MODEL 1
REMARK VINA RESULT:      -9.1      0.000      0.000
REMARK  Name = 
REMARK  10 active torsions:
REMARK  status: ('A' for Active; 'I' for Inactive)
REMARK    1  A    between atoms: C_1  and  C_2
REMARK    2  A    between atoms: C_2  and  O_3
REMARK    3  A    between atoms: O_3  and  C_4
REMARK    4  A    between atoms: C_6  and  C_7
REMARK    5  A    between atoms: C_7  and  C_8
REMARK    6  A    between atoms: C_7  and  C_9
REMARK    7  A    between atoms: C_9  and  C_10
REMARK    8  A    between atoms: N_14  and  C_15
REMARK    9  A    between atoms: C_17  and  N_18
REMARK   10  A    between atoms: C_25  and  C_26
REMARK                            x       y       z     vdW  Elec       q    Type
REMARK                         _______ _______ _______ _____ _____    ______ ____
ROOT
ATOM      1  C   UNL     1       3.304   4.325  19.168  0.00  0.00    +0.000 A 
ATOM      2  C   UNL     1       4.222   4.304  18.123  0.00  0.00    +0.000 A 
ATOM      3  C   UNL     1       4.390   5.443  17.336  0.00  0.00    +0.000 A 
ATOM      4  C   UNL     1       3.563   6.530  17.642  0.00  0.00    +0.000 A 
ATOM      5  C   UNL     1       2.683   6.482  18.726  0.00  0.00    +0.000 A 
ATOM      6  N   UNL     1       2.505   5.372  19.470  0.00  0.00    +0.000 NA
ENDROOT
BRANCH   5   7
ATOM      7  N   UNL     1       2.009   7.653  19.097  0.00  0.00    +0.000 N 
ATOM      8  C   UNL     1       1.533   7.884  20.445  0.00  0.00    +0.000 C 
ATOM      9  C   UNL     1       1.018   9.295  20.370  0.00  0.00    +0.000 A 
ATOM     10  C   UNL     1       1.302   9.823  19.108  0.00  0.00    +0.000 A 
ATOM     11  C   UNL     1       1.009  11.122  18.741  0.00  0.00    +0.000 A 
ATOM     12  C   UNL     1       0.362  11.919  19.680  0.00  0.00    +0.000 A 
ATOM     13  C   UNL     1       0.030  11.401  20.944  0.00  0.00    +0.000 A 
ATOM     14  C   UNL     1       0.358  10.077  21.315  0.00  0.00    +0.000 A 
ATOM     15  C   UNL     1       1.935   8.782  18.293  0.00  0.00    +0.000 C 
ATOM     16  O   UNL     1       2.323   8.972  17.157  0.00  0.00    +0.000 OA
BRANCH  14  17
ATOM     17  C   UNL     1      -0.027   9.578  22.682  0.00  0.00    +0.000 C 
ATOM     18  F   UNL     1       1.037   9.241  23.463  0.00  0.00    +0.000 F 
ATOM     19  F   UNL     1      -0.734  10.500  23.391  0.00  0.00    +0.000 F 
ATOM     20  F   UNL     1      -0.812   8.467  22.625  0.00  0.00    +0.000 F 
ENDBRANCH  14  17
ENDBRANCH   5   7
BRANCH   3  21
ATOM     21  C   UNL     1       5.422   5.571  16.209  0.00  0.00    +0.000 C 
ATOM     22  C   UNL     1       5.193   4.559  15.070  0.00  0.00    +0.000 C 
BRANCH  21  23
ATOM     23  C   UNL     1       6.866   5.430  16.773  0.00  0.00    +0.000 C 
BRANCH  23  24
ATOM     24  C   UNL     1       7.406   6.670  17.409  0.00  0.00    +0.000 A 
ATOM     25  N   UNL     1       7.404   7.890  16.911  0.00  0.00    +0.000 NA
ATOM     26  N   UNL     1       8.074   8.716  17.782  0.00  0.00    +0.000 NA
ATOM     27  C   UNL     1       8.434   7.992  18.818  0.00  0.00    +0.000 A 
ATOM     28  N   UNL     1       7.990   6.717  18.651  0.00  0.00    +0.000 N 
ATOM     29  C   UNL     1       8.091   5.659  19.620  0.00  0.00    +0.000 C 
ENDBRANCH  23  24
ENDBRANCH  21  23
ENDBRANCH   3  21
BRANCH   1  30
ATOM     30  O   UNL     1       3.249   3.173  19.930  0.00  0.00    +0.000 OA
BRANCH  30  32
ATOM     31  C   UNL     1       1.287   2.179  19.027  0.00  0.00    +0.000 C 
ATOM     32  C   UNL     1       1.915   2.791  20.268  0.00  0.00    +0.000 C 
ENDBRANCH  30  32
ENDBRANCH   1  30
TORSDOF 7
ENDMDL
MODEL 2
REMARK VINA RESULT:      -9.0      1.531      2.441
REMARK  Name = 
REMARK  10 active torsions:
REMARK  status: ('A' for Active; 'I' for Inactive)
REMARK    1  A    between atoms: C_1  and  C_2
REMARK    2  A    between atoms: C_2  and  O_3
REMARK    3  A    between atoms: O_3  and  C_4
REMARK    4  A    between atoms: C_6  and  C_7
REMARK    5  A    between atoms: C_7  and  C_8
REMARK    6  A    between atoms: C_7  and  C_9
REMARK    7  A    between atoms: C_9  and  C_10
REMARK    8  A    between atoms: N_14  and  C_15
REMARK    9  A    between atoms: C_17  and  N_18
REMARK   10  A    between atoms: C_25  and  C_26
REMARK                            x       y       z     vdW  Elec       q    Type
REMARK                         _______ _______ _______ _____ _____    ______ ____
ROOT
ATOM      1  C   UNL     1       3.249   4.191  19.338  0.00  0.00    +0.000 A 
ATOM      2  C   UNL     1       4.584   4.303  18.964  0.00  0.00    +0.000 A 
ATOM      3  C   UNL     1       5.111   5.563  18.677  0.00  0.00    +0.000 A 
ATOM      4  C   UNL     1       4.214   6.635  18.745  0.00  0.00    +0.000 A 
ATOM      5  C   UNL     1       2.893   6.443  19.155  0.00  0.00    +0.000 A 
ATOM      6  N   UNL     1       2.380   5.222  19.409  0.00  0.00    +0.000 NA
ENDROOT
BRANCH   5   7
ATOM      7  N   UNL     1       2.088   7.569  19.378  0.00  0.00    +0.000 N 
ATOM      8  C   UNL     1       1.537   7.888  20.678  0.00  0.00    +0.000 C 
ATOM      9  C   UNL     1       0.883   9.220  20.436  0.00  0.00    +0.000 A 
ATOM     10  C   UNL     1       1.161   9.639  19.132  0.00  0.00    +0.000 A 
ATOM     11  C   UNL     1       0.751  10.854  18.618  0.00  0.00    +0.000 A 
ATOM     12  C   UNL     1      -0.012  11.672  19.445  0.00  0.00    +0.000 A 
ATOM     13  C   UNL     1      -0.340  11.257  20.748  0.00  0.00    +0.000 A 
ATOM     14  C   UNL     1       0.109  10.022  21.271  0.00  0.00    +0.000 A 
ATOM     15  C   UNL     1       1.929   8.592  18.453  0.00  0.00    +0.000 C 
ATOM     16  O   UNL     1       2.340   8.702  17.315  0.00  0.00    +0.000 OA
BRANCH  14  17
ATOM     17  C   UNL     1      -0.277   9.631  22.673  0.00  0.00    +0.000 C 
ATOM     18  F   UNL     1      -1.062  10.548  23.301  0.00  0.00    +0.000 F 
ATOM     19  F   UNL     1      -0.967   8.459  22.712  0.00  0.00    +0.000 F 
ATOM     20  F   UNL     1       0.807   9.455  23.477  0.00  0.00    +0.000 F 
ENDBRANCH  14  17
ENDBRANCH   5   7
BRANCH   3  21
ATOM     21  C   UNL     1       6.582   5.826  18.331  0.00  0.00    +0.000 C 
ATOM     22  C   UNL     1       6.785   7.126  17.530  0.00  0.00    +0.000 C 
BRANCH  21  23
ATOM     23  C   UNL     1       7.186   4.617  17.559  0.00  0.00    +0.000 C 
BRANCH  23  24
ATOM     24  C   UNL     1       6.938   4.637  16.085  0.00  0.00    +0.000 A 
ATOM     25  N   UNL     1       7.664   5.231  15.160  0.00  0.00    +0.000 NA
ATOM     26  N   UNL     1       7.037   5.074  13.947  0.00  0.00    +0.000 NA
ATOM     27  C   UNL     1       5.961   4.346  14.148  0.00  0.00    +0.000 A 
ATOM     28  N   UNL     1       5.889   4.006  15.464  0.00  0.00    +0.000 N 
ATOM     29  C   UNL     1       4.915   3.125  16.050  0.00  0.00    +0.000 C 
ENDBRANCH  23  24
ENDBRANCH  21  23
ENDBRANCH   3  21
BRANCH   1  30
ATOM     30  O   UNL     1       2.831   2.914  19.661  0.00  0.00    +0.000 OA
BRANCH  30  32
ATOM     31  C   UNL     1       1.550   2.566  21.634  0.00  0.00    +0.000 C 
ATOM     32  C   UNL     1       2.954   2.620  21.053  0.00  0.00    +0.000 C 
ENDBRANCH  30  32
ENDBRANCH   1  30
TORSDOF 7
ENDMDL
MODEL 3
REMARK VINA RESULT:      -9.0      1.531      2.420
REMARK  Name = 
REMARK  10 active torsions:
REMARK  status: ('A' for Active; 'I' for Inactive)
REMARK    1  A    between atoms: C_1  and  C_2
REMARK    2  A    between atoms: C_2  and  O_3
REMARK    3  A    between atoms: O_3  and  C_4
REMARK    4  A    between atoms: C_6  and  C_7
REMARK    5  A    between atoms: C_7  and  C_8
REMARK    6  A    between atoms: C_7  and  C_9
REMARK    7  A    between atoms: C_9  and  C_10
REMARK    8  A    between atoms: N_14  and  C_15
REMARK    9  A    between atoms: C_17  and  N_18
REMARK   10  A    between atoms: C_25  and  C_26
REMARK                            x       y       z     vdW  Elec       q    Type
REMARK                         _______ _______ _______ _____ _____    ______ ____
ROOT
ATOM      1  C   UNL     1       3.604   4.117  19.621  0.00  0.00    +0.000 A 
ATOM      2  C   UNL     1       4.917   4.257  19.180  0.00  0.00    +0.000 A 
ATOM      3  C   UNL     1       5.365   5.507  18.753  0.00  0.00    +0.000 A 
ATOM      4  C   UNL     1       4.416   6.536  18.756  0.00  0.00    +0.000 A 
ATOM      5  C   UNL     1       3.123   6.320  19.239  0.00  0.00    +0.000 A 
ATOM      6  N   UNL     1       2.685   5.107  19.629  0.00  0.00    +0.000 NA
ENDROOT
BRANCH   5   7
ATOM      7  N   UNL     1       2.269   7.422  19.387  0.00  0.00    +0.000 N 
ATOM      8  C   UNL     1       1.670   7.779  20.656  0.00  0.00    +0.000 C 
ATOM      9  C   UNL     1       0.972   9.071  20.334  0.00  0.00    +0.000 A 
ATOM     10  C   UNL     1       1.269   9.440  19.019  0.00  0.00    +0.000 A 
ATOM     11  C   UNL     1       0.826  10.612  18.438  0.00  0.00    +0.000 A 
ATOM     12  C   UNL     1       0.010  11.436  19.206  0.00  0.00    +0.000 A 
ATOM     13  C   UNL     1      -0.337  11.069  20.518  0.00  0.00    +0.000 A 
ATOM     14  C   UNL     1       0.145   9.879  21.110  0.00  0.00    +0.000 A 
ATOM     15  C   UNL     1       2.096   8.394  18.411  0.00  0.00    +0.000 C 
ATOM     16  O   UNL     1       2.534   8.467  17.280  0.00  0.00    +0.000 OA
BRANCH  14  17
ATOM     17  C   UNL     1      -0.264   9.538  22.519  0.00  0.00    +0.000 C 
ATOM     18  F   UNL     1      -0.968   8.377  22.619  0.00  0.00    +0.000 F 
ATOM     19  F   UNL     1       0.805   9.400  23.349  0.00  0.00    +0.000 F 
ATOM     20  F   UNL     1      -1.050  10.500  23.076  0.00  0.00    +0.000 F 
ENDBRANCH  14  17
ENDBRANCH   5   7
BRANCH   3  21
ATOM     21  C   UNL     1       6.806   5.807  18.321  0.00  0.00    +0.000 C 
ATOM     22  C   UNL     1       6.934   7.128  17.540  0.00  0.00    +0.000 C 
BRANCH  21  23
ATOM     23  C   UNL     1       7.381   4.626  17.484  0.00  0.00    +0.000 C 
BRANCH  23  24
ATOM     24  C   UNL     1       7.060   4.688  16.025  0.00  0.00    +0.000 A 
ATOM     25  N   UNL     1       7.756   5.280  15.077  0.00  0.00    +0.000 NA
ATOM     26  N   UNL     1       7.064   5.170  13.895  0.00  0.00    +0.000 NA
ATOM     27  C   UNL     1       5.976   4.471  14.136  0.00  0.00    +0.000 A 
ATOM     28  N   UNL     1       5.961   4.103  15.446  0.00  0.00    +0.000 N 
ATOM     29  C   UNL     1       4.991   3.239  16.063  0.00  0.00    +0.000 C 
ENDBRANCH  23  24
ENDBRANCH  21  23
ENDBRANCH   3  21
BRANCH   1  30
ATOM     30  O   UNL     1       3.266   2.858  20.081  0.00  0.00    +0.000 OA
BRANCH  30  32
ATOM     31  C   UNL     1       2.064   2.141  18.159  0.00  0.00    +0.000 C 
ATOM     32  C   UNL     1       3.263   1.869  19.052  0.00  0.00    +0.000 C 
ENDBRANCH  30  32
ENDBRANCH   1  30
TORSDOF 7
ENDMDL
MODEL 4
REMARK VINA RESULT:      -8.9      1.549      2.581
REMARK  Name = 
REMARK  10 active torsions:
REMARK  status: ('A' for Active; 'I' for Inactive)
REMARK    1  A    between atoms: C_1  and  C_2
REMARK    2  A    between atoms: C_2  and  O_3
REMARK    3  A    between atoms: O_3  and  C_4
REMARK    4  A    between atoms: C_6  and  C_7
REMARK    5  A    between atoms: C_7  and  C_8
REMARK    6  A    between atoms: C_7  and  C_9
REMARK    7  A    between atoms: C_9  and  C_10
REMARK    8  A    between atoms: N_14  and  C_15
REMARK    9  A    between atoms: C_17  and  N_18
REMARK   10  A    between atoms: C_25  and  C_26
REMARK                            x       y       z     vdW  Elec       q    Type
REMARK                         _______ _______ _______ _____ _____    ______ ____
ROOT
ATOM      1  C   UNL     1       3.044   4.251  19.545  0.00  0.00    +0.000 A 
ATOM      2  C   UNL     1       4.147   4.224  18.697  0.00  0.00    +0.000 A 
ATOM      3  C   UNL     1       4.509   5.381  18.008  0.00  0.00    +0.000 A 
ATOM      4  C   UNL     1       3.681   6.494  18.195  0.00  0.00    +0.000 A 
ATOM      5  C   UNL     1       2.605   6.448  19.085  0.00  0.00    +0.000 A 
ATOM      6  N   UNL     1       2.242   5.322  19.731  0.00  0.00    +0.000 NA
ENDROOT
BRANCH   5   7
ATOM      7  N   UNL     1       1.918   7.636  19.369  0.00  0.00    +0.000 N 
ATOM      8  C   UNL     1       1.402   7.942  20.687  0.00  0.00    +0.000 C 
ATOM      9  C   UNL     1       0.885   9.344  20.517  0.00  0.00    +0.000 A 
ATOM     10  C   UNL     1       1.204   9.799  19.235  0.00  0.00    +0.000 A 
ATOM     11  C   UNL     1       0.918  11.075  18.786  0.00  0.00    +0.000 A 
ATOM     12  C   UNL     1       0.242  11.921  19.658  0.00  0.00    +0.000 A 
ATOM     13  C   UNL     1      -0.125  11.474  20.940  0.00  0.00    +0.000 A 
ATOM     14  C   UNL     1       0.196  10.175  21.396  0.00  0.00    +0.000 A 
ATOM     15  C   UNL     1       1.863   8.717  18.499  0.00  0.00    +0.000 C 
ATOM     16  O   UNL     1       2.283   8.843  17.366  0.00  0.00    +0.000 OA
BRANCH  14  17
ATOM     17  C   UNL     1      -0.227   9.753  22.778  0.00  0.00    +0.000 C 
ATOM     18  F   UNL     1      -0.989   8.625  22.797  0.00  0.00    +0.000 F 
ATOM     19  F   UNL     1       0.835   9.501  23.590  0.00  0.00    +0.000 F 
ATOM     20  F   UNL     1      -0.963  10.710  23.409  0.00  0.00    +0.000 F 
ENDBRANCH  14  17
ENDBRANCH   5   7
BRANCH   3  21
ATOM     21  C   UNL     1       5.746   5.500  17.109  0.00  0.00    +0.000 C 
ATOM     22  C   UNL     1       6.077   6.957  16.737  0.00  0.00    +0.000 C 
BRANCH  21  23
ATOM     23  C   UNL     1       5.571   4.640  15.823  0.00  0.00    +0.000 C 
BRANCH  23  24
ATOM     24  C   UNL     1       6.597   4.892  14.766  0.00  0.00    +0.000 A 
ATOM     25  N   UNL     1       7.707   5.592  14.879  0.00  0.00    +0.000 NA
ATOM     26  N   UNL     1       8.317   5.643  13.648  0.00  0.00    +0.000 NA
ATOM     27  C   UNL     1       7.588   4.933  12.815  0.00  0.00    +0.000 A 
ATOM     28  N   UNL     1       6.530   4.401  13.485  0.00  0.00    +0.000 N 
ATOM     29  C   UNL     1       5.572   3.477  12.941  0.00  0.00    +0.000 C 
ENDBRANCH  23  24
ENDBRANCH  21  23
ENDBRANCH   3  21
BRANCH   1  30
ATOM     30  O   UNL     1       2.795   3.077  20.231  0.00  0.00    +0.000 OA
BRANCH  30  32
ATOM     31  C   UNL     1       1.044   2.226  18.866  0.00  0.00    +0.000 C 
ATOM     32  C   UNL     1       1.412   2.725  20.254  0.00  0.00    +0.000 C 
ENDBRANCH  30  32
ENDBRANCH   1  30
TORSDOF 7
ENDMDL
MODEL 5
REMARK VINA RESULT:      -8.7      0.755      1.460
REMARK  Name = 
REMARK  10 active torsions:
REMARK  status: ('A' for Active; 'I' for Inactive)
REMARK    1  A    between atoms: C_1  and  C_2
REMARK    2  A    between atoms: C_2  and  O_3
REMARK    3  A    between atoms: O_3  and  C_4
REMARK    4  A    between atoms: C_6  and  C_7
REMARK    5  A    between atoms: C_7  and  C_8
REMARK    6  A    between atoms: C_7  and  C_9
REMARK    7  A    between atoms: C_9  and  C_10
REMARK    8  A    between atoms: N_14  and  C_15
REMARK    9  A    between atoms: C_17  and  N_18
REMARK   10  A    between atoms: C_25  and  C_26
REMARK                            x       y       z     vdW  Elec       q    Type
REMARK                         _______ _______ _______ _____ _____    ______ ____
ROOT
ATOM      1  C   UNL     1       2.936   4.053  19.035  0.00  0.00    +0.000 A 
ATOM      2  C   UNL     1       3.835   3.955  17.978  0.00  0.00    +0.000 A 
ATOM      3  C   UNL     1       4.100   5.081  17.198  0.00  0.00    +0.000 A 
ATOM      4  C   UNL     1       3.382   6.238  17.523  0.00  0.00    +0.000 A 
ATOM      5  C   UNL     1       2.515   6.262  18.618  0.00  0.00    +0.000 A 
ATOM      6  N   UNL     1       2.242   5.167  19.355  0.00  0.00    +0.000 NA
ENDROOT
BRANCH   5   7
ATOM      7  N   UNL     1       1.958   7.489  19.007  0.00  0.00    +0.000 N 
ATOM      8  C   UNL     1       1.491   7.740  20.354  0.00  0.00    +0.000 C 
ATOM      9  C   UNL     1       1.122   9.196  20.304  0.00  0.00    +0.000 A 
ATOM     10  C   UNL     1       1.473   9.718  19.056  0.00  0.00    +0.000 A 
ATOM     11  C   UNL     1       1.317  11.047  18.713  0.00  0.00    +0.000 A 
ATOM     12  C   UNL     1       0.742  11.887  19.662  0.00  0.00    +0.000 A 
ATOM     13  C   UNL     1       0.344  11.380  20.911  0.00  0.00    +0.000 A 
ATOM     14  C   UNL     1       0.533  10.022  21.258  0.00  0.00    +0.000 A 
ATOM     15  C   UNL     1       2.007   8.635  18.226  0.00  0.00    +0.000 C 
ATOM     16  O   UNL     1       2.426   8.807  17.098  0.00  0.00    +0.000 OA
BRANCH  14  17
ATOM     17  C   UNL     1       0.083   9.537  22.611  0.00  0.00    +0.000 C 
ATOM     18  F   UNL     1      -0.547  10.489  23.353  0.00  0.00    +0.000 F 
ATOM     19  F   UNL     1      -0.788   8.494  22.524  0.00  0.00    +0.000 F 
ATOM     20  F   UNL     1       1.121   9.097  23.374  0.00  0.00    +0.000 F 
ENDBRANCH  14  17
ENDBRANCH   5   7
BRANCH   3  21
ATOM     21  C   UNL     1       5.126   5.122  16.059  0.00  0.00    +0.000 C 
ATOM     22  C   UNL     1       5.790   3.756  15.803  0.00  0.00    +0.000 C 
BRANCH  21  23
ATOM     23  C   UNL     1       6.209   6.204  16.339  0.00  0.00    +0.000 C 
BRANCH  23  24
ATOM     24  C   UNL     1       7.024   5.961  17.569  0.00  0.00    +0.000 A 
ATOM     25  N   UNL     1       7.194   4.819  18.203  0.00  0.00    +0.000 NA
ATOM     26  N   UNL     1       7.944   5.055  19.330  0.00  0.00    +0.000 NA
ATOM     27  C   UNL     1       8.257   6.332  19.339  0.00  0.00    +0.000 A 
ATOM     28  N   UNL     1       7.746   6.926  18.226  0.00  0.00    +0.000 N 
ATOM     29  C   UNL     1       7.970   8.289  17.826  0.00  0.00    +0.000 C 
ENDBRANCH  23  24
ENDBRANCH  21  23
ENDBRANCH   3  21
BRANCH   1  30
ATOM     30  O   UNL     1       2.781   2.905  19.789  0.00  0.00    +0.000 OA
BRANCH  30  32
ATOM     31  C   UNL     1       1.610   2.631  21.839  0.00  0.00    +0.000 C 
ATOM     32  C   UNL     1       1.468   2.765  20.332  0.00  0.00    +0.000 C 
ENDBRANCH  30  32
ENDBRANCH   1  30
TORSDOF 7
ENDMDL
MODEL 6
REMARK VINA RESULT:      -8.6      1.859      2.681
REMARK  Name = 
REMARK  10 active torsions:
REMARK  status: ('A' for Active; 'I' for Inactive)
REMARK    1  A    between atoms: C_1  and  C_2
REMARK    2  A    between atoms: C_2  and  O_3
REMARK    3  A    between atoms: O_3  and  C_4
REMARK    4  A    between atoms: C_6  and  C_7
REMARK    5  A    between atoms: C_7  and  C_8
REMARK    6  A    between atoms: C_7  and  C_9
REMARK    7  A    between atoms: C_9  and  C_10
REMARK    8  A    between atoms: N_14  and  C_15
REMARK    9  A    between atoms: C_17  and  N_18
REMARK   10  A    between atoms: C_25  and  C_26
REMARK                            x       y       z     vdW  Elec       q    Type
REMARK                         _______ _______ _______ _____ _____    ______ ____
ROOT
ATOM      1  C   UNL     1       3.327   4.743  19.354  0.00  0.00    +0.000 A 
ATOM      2  C   UNL     1       4.263   4.786  18.325  0.00  0.00    +0.000 A 
ATOM      3  C   UNL     1       4.374   5.939  17.548  0.00  0.00    +0.000 A 
ATOM      4  C   UNL     1       3.477   6.971  17.845  0.00  0.00    +0.000 A 
ATOM      5  C   UNL     1       2.583   6.861  18.913  0.00  0.00    +0.000 A 
ATOM      6  N   UNL     1       2.460   5.737  19.647  0.00  0.00    +0.000 NA
ENDROOT
BRANCH   5   7
ATOM      7  N   UNL     1       1.831   7.986  19.279  0.00  0.00    +0.000 N 
ATOM      8  C   UNL     1       1.335   8.188  20.624  0.00  0.00    +0.000 C 
ATOM      9  C   UNL     1       0.728   9.561  20.544  0.00  0.00    +0.000 A 
ATOM     10  C   UNL     1       0.982  10.104  19.282  0.00  0.00    +0.000 A 
ATOM     11  C   UNL     1       0.606  11.381  18.910  0.00  0.00    +0.000 A 
ATOM     12  C   UNL     1      -0.097  12.135  19.845  0.00  0.00    +0.000 A 
ATOM     13  C   UNL     1      -0.400  11.598  21.108  0.00  0.00    +0.000 A 
ATOM     14  C   UNL     1       0.014  10.300  21.484  0.00  0.00    +0.000 A 
ATOM     15  C   UNL     1       1.685   9.106  18.472  0.00  0.00    +0.000 C 
ATOM     16  O   UNL     1       2.065   9.319  17.337  0.00  0.00    +0.000 OA
BRANCH  14  17
ATOM     17  C   UNL     1      -0.343   9.779  22.851  0.00  0.00    +0.000 C 
ATOM     18  F   UNL     1       0.736   9.542  23.646  0.00  0.00    +0.000 F 
ATOM     19  F   UNL     1      -1.136  10.641  23.544  0.00  0.00    +0.000 F 
ATOM     20  F   UNL     1      -1.028   8.603  22.794  0.00  0.00    +0.000 F 
ENDBRANCH  14  17
ENDBRANCH   5   7
BRANCH   3  21
ATOM     21  C   UNL     1       5.417   6.138  16.441  0.00  0.00    +0.000 C 
ATOM     22  C   UNL     1       4.973   7.159  15.377  0.00  0.00    +0.000 C 
BRANCH  21  23
ATOM     23  C   UNL     1       5.767   4.777  15.771  0.00  0.00    +0.000 C 
BRANCH  23  24
ATOM     24  C   UNL     1       6.691   4.883  14.600  0.00  0.00    +0.000 A 
ATOM     25  N   UNL     1       7.846   5.514  14.547  0.00  0.00    +0.000 NA
ATOM     26  N   UNL     1       8.327   5.435  13.262  0.00  0.00    +0.000 NA
ATOM     27  C   UNL     1       7.475   4.717  12.563  0.00  0.00    +0.000 A 
ATOM     28  N   UNL     1       6.463   4.306  13.375  0.00  0.00    +0.000 N 
ATOM     29  C   UNL     1       5.401   3.411  13.003  0.00  0.00    +0.000 C 
ENDBRANCH  23  24
ENDBRANCH  21  23
ENDBRANCH   3  21
BRANCH   1  30
ATOM     30  O   UNL     1       3.329   3.585  20.107  0.00  0.00    +0.000 OA
BRANCH  30  32
ATOM     31  C   UNL     1       4.770   1.708  20.338  0.00  0.00    +0.000 C 
ATOM     32  C   UNL     1       3.840   2.457  19.397  0.00  0.00    +0.000 C 
ENDBRANCH  30  32
ENDBRANCH   1  30
TORSDOF 7
ENDMDL
MODEL 7
REMARK VINA RESULT:      -8.4      1.833      2.906
REMARK  Name = 
REMARK  10 active torsions:
REMARK  status: ('A' for Active; 'I' for Inactive)
REMARK    1  A    between atoms: C_1  and  C_2
REMARK    2  A    between atoms: C_2  and  O_3
REMARK    3  A    between atoms: O_3  and  C_4
REMARK    4  A    between atoms: C_6  and  C_7
REMARK    5  A    between atoms: C_7  and  C_8
REMARK    6  A    between atoms: C_7  and  C_9
REMARK    7  A    between atoms: C_9  and  C_10
REMARK    8  A    between atoms: N_14  and  C_15
REMARK    9  A    between atoms: C_17  and  N_18
REMARK   10  A    between atoms: C_25  and  C_26
REMARK                            x       y       z     vdW  Elec       q    Type
REMARK                         _______ _______ _______ _____ _____    ______ ____
ROOT
ATOM      1  C   UNL     1       3.058   3.494  19.028  0.00  0.00    +0.000 A 
ATOM      2  C   UNL     1       4.160   3.342  18.192  0.00  0.00    +0.000 A 
ATOM      3  C   UNL     1       4.650   4.448  17.498  0.00  0.00    +0.000 A 
ATOM      4  C   UNL     1       3.944   5.644  17.667  0.00  0.00    +0.000 A 
ATOM      5  C   UNL     1       2.861   5.722  18.546  0.00  0.00    +0.000 A 
ATOM      6  N   UNL     1       2.374   4.647  19.198  0.00  0.00    +0.000 NA
ENDROOT
BRANCH   5   7
ATOM      7  N   UNL     1       2.302   6.979  18.813  0.00  0.00    +0.000 N 
ATOM      8  C   UNL     1       1.744   7.325  20.104  0.00  0.00    +0.000 C 
ATOM      9  C   UNL     1       1.408   8.780  19.933  0.00  0.00    +0.000 A 
ATOM     10  C   UNL     1       1.857   9.213  18.683  0.00  0.00    +0.000 A 
ATOM     11  C   UNL     1       1.751  10.519  18.244  0.00  0.00    +0.000 A 
ATOM     12  C   UNL     1       1.126  11.427  19.093  0.00  0.00    +0.000 A 
ATOM     13  C   UNL     1       0.630  11.010  20.340  0.00  0.00    +0.000 A 
ATOM     14  C   UNL     1       0.768   9.675  20.787  0.00  0.00    +0.000 A 
ATOM     15  C   UNL     1       2.428   8.070  17.965  0.00  0.00    +0.000 C 
ATOM     16  O   UNL     1       2.930   8.161  16.862  0.00  0.00    +0.000 OA
BRANCH  14  17
ATOM     17  C   UNL     1       0.213   9.287  22.132  0.00  0.00    +0.000 C 
ATOM     18  F   UNL     1      -0.464  10.290  22.756  0.00  0.00    +0.000 F 
ATOM     19  F   UNL     1      -0.655   8.242  22.052  0.00  0.00    +0.000 F 
ATOM     20  F   UNL     1       1.188   8.899  23.001  0.00  0.00    +0.000 F 
ENDBRANCH  14  17
ENDBRANCH   5   7
BRANCH   3  21
ATOM     21  C   UNL     1       5.901   4.426  16.611  0.00  0.00    +0.000 C 
ATOM     22  C   UNL     1       6.836   5.624  16.864  0.00  0.00    +0.000 C 
BRANCH  21  23
ATOM     23  C   UNL     1       5.503   4.361  15.107  0.00  0.00    +0.000 C 
BRANCH  23  24
ATOM     24  C   UNL     1       6.604   4.714  14.159  0.00  0.00    +0.000 A 
ATOM     25  N   UNL     1       7.635   5.501  14.389  0.00  0.00    +0.000 NA
ATOM     26  N   UNL     1       8.357   5.623  13.225  0.00  0.00    +0.000 NA
ATOM     27  C   UNL     1       7.776   4.869  12.318  0.00  0.00    +0.000 A 
ATOM     28  N   UNL     1       6.706   4.241  12.874  0.00  0.00    +0.000 N 
ATOM     29  C   UNL     1       5.886   3.250  12.230  0.00  0.00    +0.000 C 
ENDBRANCH  23  24
ENDBRANCH  21  23
ENDBRANCH   3  21
BRANCH   1  30
ATOM     30  O   UNL     1       2.680   2.360  19.721  0.00  0.00    +0.000 OA
BRANCH  30  32
ATOM     31  C   UNL     1       1.868   2.784  21.915  0.00  0.00    +0.000 C 
ATOM     32  C   UNL     1       1.476   2.536  20.467  0.00  0.00    +0.000 C 
ENDBRANCH  30  32
ENDBRANCH   1  30
TORSDOF 7
ENDMDL
MODEL 8
REMARK VINA RESULT:      -8.4      4.269      8.619
REMARK  Name = 
REMARK  10 active torsions:
REMARK  status: ('A' for Active; 'I' for Inactive)
REMARK    1  A    between atoms: C_1  and  C_2
REMARK    2  A    between atoms: C_2  and  O_3
REMARK    3  A    between atoms: O_3  and  C_4
REMARK    4  A    between atoms: C_6  and  C_7
REMARK    5  A    between atoms: C_7  and  C_8
REMARK    6  A    between atoms: C_7  and  C_9
REMARK    7  A    between atoms: C_9  and  C_10
REMARK    8  A    between atoms: N_14  and  C_15
REMARK    9  A    between atoms: C_17  and  N_18
REMARK   10  A    between atoms: C_25  and  C_26
REMARK                            x       y       z     vdW  Elec       q    Type
REMARK                         _______ _______ _______ _____ _____    ______ ____
ROOT
ATOM      1  C   UNL     1       1.001   9.527  21.350  0.00  0.00    +0.000 A 
ATOM      2  C   UNL     1       0.265  10.433  20.592  0.00  0.00    +0.000 A 
ATOM      3  C   UNL     1       0.232  10.296  19.204  0.00  0.00    +0.000 A 
ATOM      4  C   UNL     1       1.003   9.258  18.669  0.00  0.00    +0.000 A 
ATOM      5  C   UNL     1       1.694   8.374  19.500  0.00  0.00    +0.000 A 
ATOM      6  N   UNL     1       1.744   8.521  20.839  0.00  0.00    +0.000 NA
ENDROOT
BRANCH   5   7
ATOM      7  N   UNL     1       2.303   7.249  18.926  0.00  0.00    +0.000 N 
ATOM      8  C   UNL     1       3.372   7.354  17.955  0.00  0.00    +0.000 C 
ATOM      9  C   UNL     1       3.769   5.917  17.753  0.00  0.00    +0.000 A 
ATOM     10  C   UNL     1       3.045   5.111  18.636  0.00  0.00    +0.000 A 
ATOM     11  C   UNL     1       3.222   3.745  18.740  0.00  0.00    +0.000 A 
ATOM     12  C   UNL     1       4.146   3.154  17.884  0.00  0.00    +0.000 A 
ATOM     13  C   UNL     1       4.859   3.937  16.959  0.00  0.00    +0.000 A 
ATOM     14  C   UNL     1       4.687   5.338  16.881  0.00  0.00    +0.000 A 
ATOM     15  C   UNL     1       2.111   5.954  19.387  0.00  0.00    +0.000 C 
ATOM     16  O   UNL     1       1.377   5.523  20.254  0.00  0.00    +0.000 OA
BRANCH  14  17
ATOM     17  C   UNL     1       5.477   6.122  15.867  0.00  0.00    +0.000 C 
ATOM     18  F   UNL     1       6.469   6.879  16.412  0.00  0.00    +0.000 F 
ATOM     19  F   UNL     1       6.080   5.321  14.947  0.00  0.00    +0.000 F 
ATOM     20  F   UNL     1       4.697   6.985  15.159  0.00  0.00    +0.000 F 
ENDBRANCH  14  17
ENDBRANCH   5   7
BRANCH   3  21
ATOM     21  C   UNL     1      -0.603  11.180  18.269  0.00  0.00    +0.000 C 
ATOM     22  C   UNL     1      -0.519  12.676  18.626  0.00  0.00    +0.000 C 
BRANCH  21  23
ATOM     23  C   UNL     1      -2.088  10.711  18.256  0.00  0.00    +0.000 C 
BRANCH  23  24
ATOM     24  C   UNL     1      -2.657  10.494  16.891  0.00  0.00    +0.000 A 
ATOM     25  N   UNL     1      -2.150   9.761  15.920  0.00  0.00    +0.000 NA
ATOM     26  N   UNL     1      -2.944   9.904  14.807  0.00  0.00    +0.000 NA
ATOM     27  C   UNL     1      -3.948  10.687  15.135  0.00  0.00    +0.000 A 
ATOM     28  N   UNL     1      -3.837  11.036  16.445  0.00  0.00    +0.000 N 
ATOM     29  C   UNL     1      -4.802  11.792  17.197  0.00  0.00    +0.000 C 
ENDBRANCH  23  24
ENDBRANCH  21  23
ENDBRANCH   3  21
BRANCH   1  30
ATOM     30  O   UNL     1       0.927   9.704  22.719  0.00  0.00    +0.000 OA
BRANCH  30  32
ATOM     31  C   UNL     1      -1.154  10.740  23.217  0.00  0.00    +0.000 C 
ATOM     32  C   UNL     1      -0.372   9.437  23.248  0.00  0.00    +0.000 C 
ENDBRANCH  30  32
ENDBRANCH   1  30
TORSDOF 7
ENDMDL
MODEL 9
REMARK VINA RESULT:      -8.3      1.319      2.432
REMARK  Name = 
REMARK  10 active torsions:
REMARK  status: ('A' for Active; 'I' for Inactive)
REMARK    1  A    between atoms: C_1  and  C_2
REMARK    2  A    between atoms: C_2  and  O_3
REMARK    3  A    between atoms: O_3  and  C_4
REMARK    4  A    between atoms: C_6  and  C_7
REMARK    5  A    between atoms: C_7  and  C_8
REMARK    6  A    between atoms: C_7  and  C_9
REMARK    7  A    between atoms: C_9  and  C_10
REMARK    8  A    between atoms: N_14  and  C_15
REMARK    9  A    between atoms: C_17  and  N_18
REMARK   10  A    between atoms: C_25  and  C_26
REMARK                            x       y       z     vdW  Elec       q    Type
REMARK                         _______ _______ _______ _____ _____    ______ ____
ROOT
ATOM      1  C   UNL     1       3.414   3.484  19.382  0.00  0.00    +0.000 A 
ATOM      2  C   UNL     1       4.800   3.488  19.257  0.00  0.00    +0.000 A 
ATOM      3  C   UNL     1       5.466   4.700  19.072  0.00  0.00    +0.000 A 
ATOM      4  C   UNL     1       4.659   5.839  18.977  0.00  0.00    +0.000 A 
ATOM      5  C   UNL     1       3.275   5.755  19.140  0.00  0.00    +0.000 A 
ATOM      6  N   UNL     1       2.630   4.581  19.294  0.00  0.00    +0.000 NA
ENDROOT
BRANCH   5   7
ATOM      7  N   UNL     1       2.534   6.942  19.213  0.00  0.00    +0.000 N 
ATOM      8  C   UNL     1       1.866   7.370  20.424  0.00  0.00    +0.000 C 
ATOM      9  C   UNL     1       1.341   8.727  20.044  0.00  0.00    +0.000 A 
ATOM     10  C   UNL     1       1.793   9.053  18.762  0.00  0.00    +0.000 A 
ATOM     11  C   UNL     1       1.532  10.262  18.146  0.00  0.00    +0.000 A 
ATOM     12  C   UNL     1       0.743  11.174  18.839  0.00  0.00    +0.000 A 
ATOM     13  C   UNL     1       0.243  10.856  20.114  0.00  0.00    +0.000 A 
ATOM     14  C   UNL     1       0.539   9.625  20.744  0.00  0.00    +0.000 A 
ATOM     15  C   UNL     1       2.554   7.921  18.228  0.00  0.00    +0.000 C 
ATOM     16  O   UNL     1       3.096   7.938  17.141  0.00  0.00    +0.000 OA
BRANCH  14  17
ATOM     17  C   UNL     1      -0.028   9.340  22.110  0.00  0.00    +0.000 C 
ATOM     18  F   UNL     1      -0.772  10.361  22.618  0.00  0.00    +0.000 F 
ATOM     19  F   UNL     1      -0.839   8.247  22.117  0.00  0.00    +0.000 F 
ATOM     20  F   UNL     1       0.943   9.092  23.032  0.00  0.00    +0.000 F 
ENDBRANCH  14  17
ENDBRANCH   5   7
BRANCH   3  21
ATOM     21  C   UNL     1       6.992   4.843  19.000  0.00  0.00    +0.000 C 
ATOM     22  C   UNL     1       7.493   6.191  19.553  0.00  0.00    +0.000 C 
BRANCH  21  23
ATOM     23  C   UNL     1       7.490   4.641  17.539  0.00  0.00    +0.000 C 
BRANCH  23  24
ATOM     24  C   UNL     1       6.644   5.300  16.499  0.00  0.00    +0.000 A 
ATOM     25  N   UNL     1       6.546   6.590  16.246  0.00  0.00    +0.000 NA
ATOM     26  N   UNL     1       5.595   6.772  15.271  0.00  0.00    +0.000 NA
ATOM     27  C   UNL     1       5.161   5.583  14.914  0.00  0.00    +0.000 A 
ATOM     28  N   UNL     1       5.829   4.631  15.619  0.00  0.00    +0.000 N 
ATOM     29  C   UNL     1       5.712   3.210  15.429  0.00  0.00    +0.000 C 
ENDBRANCH  23  24
ENDBRANCH  21  23
ENDBRANCH   3  21
BRANCH   1  30
ATOM     30  O   UNL     1       2.845   2.248  19.622  0.00  0.00    +0.000 OA
BRANCH  30  32
ATOM     31  C   UNL     1       1.625   2.573  21.637  0.00  0.00    +0.000 C 
ATOM     32  C   UNL     1       1.517   2.335  20.140  0.00  0.00    +0.000 C 
ENDBRANCH  30  32
ENDBRANCH   1  30
TORSDOF 7
ENDMDL
