MODEL 1
REMARK VINA RESULT:      -8.7      0.000      0.000
REMARK  Name = 
REMARK  6 active torsions:
REMARK  status: ('A' for Active; 'I' for Inactive)
REMARK    1  A    between atoms: C_1  and  C_2
REMARK    2  A    between atoms: C_2  and  S_3
REMARK    3  A    between atoms: C_2  and  C_10
REMARK    4  A    between atoms: S_3  and  C_4
REMARK    5  A    between atoms: N_8  and  C_9
REMARK    6  A    between atoms: C_14  and  N_15
REMARK                            x       y       z     vdW  Elec       q    Type
REMARK                         _______ _______ _______ _____ _____    ______ ____
ROOT
ATOM      1  C   UNL     1       4.374   4.926  17.453  0.00  0.00    +0.000 A 
ATOM      2  C   UNL     1       3.498   3.838  17.409  0.00  0.00    +0.000 A 
ATOM      3  C   UNL     1       2.187   3.964  17.894  0.00  0.00    +0.000 A 
ATOM      4  C   UNL     1       1.723   5.185  18.403  0.00  0.00    +0.000 A 
ATOM      5  C   UNL     1       2.592   6.265  18.486  0.00  0.00    +0.000 A 
ATOM      6  C   UNL     1       3.911   6.098  18.053  0.00  0.00    +0.000 A 
ENDROOT
BRANCH   5   7
ATOM      7  N   UNL     1       2.234   7.529  19.001  0.00  0.00    +0.000 N 
ATOM      8  C   UNL     1       1.926   7.648  20.415  0.00  0.00    +0.000 C 
ATOM      9  C   UNL     1       1.043   8.839  20.403  0.00  0.00    +0.000 A 
ATOM     10  C   UNL     1      -0.103   9.101  21.117  0.00  0.00    +0.000 A 
ATOM     11  C   UNL     1      -0.755  10.307  20.858  0.00  0.00    +0.000 A 
ATOM     12  C   UNL     1      -0.191  11.248  19.975  0.00  0.00    +0.000 A 
ATOM     13 CL   UNL     1      -0.919  12.800  19.833  0.00  0.00    +0.000 Cl
ATOM     14  C   UNL     1       0.899  10.916  19.170  0.00  0.00    +0.000 A 
ATOM     15  C   UNL     1       1.405   9.648  19.331  0.00  0.00    +0.000 A 
ATOM     16  C   UNL     1       2.027   8.739  18.330  0.00  0.00    +0.000 C 
ATOM     17  O   UNL     1       2.163   9.016  17.148  0.00  0.00    +0.000 OA
ENDBRANCH   5   7
BRANCH   1  19
ATOM     18  C   UNL     1       6.923   4.818  17.810  0.00  0.00    +0.000 C 
ATOM     19  C   UNL     1       5.751   4.902  16.814  0.00  0.00    +0.000 C 
BRANCH  19  20
ATOM     20  S   UNL     1       5.912   3.687  15.467  0.00  0.00    +0.000 S 
BRANCH  20  21
ATOM     21  C   UNL     1       6.868   4.496  14.270  0.00  0.00    +0.000 A 
ATOM     22  N   UNL     1       7.775   5.430  14.450  0.00  0.00    +0.000 NA
ATOM     23  N   UNL     1       8.281   5.769  13.213  0.00  0.00    +0.000 NA
ATOM     24  C   UNL     1       7.655   5.034  12.318  0.00  0.00    +0.000 A 
ATOM     25  N   UNL     1       6.750   4.232  12.937  0.00  0.00    +0.000 N 
ATOM     26  C   UNL     1       5.883   3.307  12.291  0.00  0.00    +0.000 C 
ENDBRANCH  20  21
ENDBRANCH  19  20
ENDBRANCH   1  19
TORSDOF 4
ENDMDL
MODEL 2
REMARK VINA RESULT:      -8.3      2.800      4.135
REMARK  Name = 
REMARK  6 active torsions:
REMARK  status: ('A' for Active; 'I' for Inactive)
REMARK    1  A    between atoms: C_1  and  C_2
REMARK    2  A    between atoms: C_2  and  S_3
REMARK    3  A    between atoms: C_2  and  C_10
REMARK    4  A    between atoms: S_3  and  C_4
REMARK    5  A    between atoms: N_8  and  C_9
REMARK    6  A    between atoms: C_14  and  N_15
REMARK                            x       y       z     vdW  Elec       q    Type
REMARK                         _______ _______ _______ _____ _____    ______ ____
ROOT
ATOM      1  C   UNL     1       2.719   6.625  19.274  0.00  0.00    +0.000 A 
ATOM      2  C   UNL     1       3.228   7.049  18.043  0.00  0.00    +0.000 A 
ATOM      3  C   UNL     1       2.845   8.288  17.508  0.00  0.00    +0.000 A 
ATOM      4  C   UNL     1       1.971   9.134  18.206  0.00  0.00    +0.000 A 
ATOM      5  C   UNL     1       1.430   8.711  19.413  0.00  0.00    +0.000 A 
ATOM      6  C   UNL     1       1.779   7.446  19.897  0.00  0.00    +0.000 A 
ENDROOT
BRANCH   5   7
ATOM      7  N   UNL     1       0.526   9.473  20.183  0.00  0.00    +0.000 N 
ATOM      8  C   UNL     1      -0.635  10.052  19.532  0.00  0.00    +0.000 C 
ATOM      9  C   UNL     1      -0.910  11.197  20.432  0.00  0.00    +0.000 A 
ATOM     10  C   UNL     1      -1.305  12.482  20.138  0.00  0.00    +0.000 A 
ATOM     11  C   UNL     1      -1.444  13.367  21.207  0.00  0.00    +0.000 A 
ATOM     12  C   UNL     1      -1.284  12.918  22.532  0.00  0.00    +0.000 A 
ATOM     13 CL   UNL     1      -1.656  13.987  23.827  0.00  0.00    +0.000 Cl
ATOM     14  C   UNL     1      -0.764  11.652  22.804  0.00  0.00    +0.000 A 
ATOM     15  C   UNL     1      -0.472  10.871  21.711  0.00  0.00    +0.000 A 
ATOM     16  C   UNL     1       0.606   9.863  21.524  0.00  0.00    +0.000 C 
ATOM     17  O   UNL     1       1.441   9.592  22.374  0.00  0.00    +0.000 OA
ENDBRANCH   5   7
BRANCH   1  19
ATOM     18  C   UNL     1       2.187   4.743  20.950  0.00  0.00    +0.000 C 
ATOM     19  C   UNL     1       3.203   5.369  19.976  0.00  0.00    +0.000 C 
BRANCH  19  20
ATOM     20  S   UNL     1       3.923   4.131  18.853  0.00  0.00    +0.000 S 
BRANCH  20  21
ATOM     21  C   UNL     1       5.593   4.576  18.735  0.00  0.00    +0.000 A 
ATOM     22  N   UNL     1       6.383   5.028  19.683  0.00  0.00    +0.000 NA
ATOM     23  N   UNL     1       7.628   5.238  19.130  0.00  0.00    +0.000 NA
ATOM     24  C   UNL     1       7.551   4.915  17.856  0.00  0.00    +0.000 A 
ATOM     25  N   UNL     1       6.289   4.508  17.563  0.00  0.00    +0.000 N 
ATOM     26  C   UNL     1       5.828   4.091  16.283  0.00  0.00    +0.000 C 
ENDBRANCH  20  21
ENDBRANCH  19  20
ENDBRANCH   1  19
TORSDOF 4
ENDMDL
MODEL 3
REMARK VINA RESULT:      -8.2      1.765      2.357
REMARK  Name = 
REMARK  6 active torsions:
REMARK  status: ('A' for Active; 'I' for Inactive)
REMARK    1  A    between atoms: C_1  and  C_2
REMARK    2  A    between atoms: C_2  and  S_3
REMARK    3  A    between atoms: C_2  and  C_10
REMARK    4  A    between atoms: S_3  and  C_4
REMARK    5  A    between atoms: N_8  and  C_9
REMARK    6  A    between atoms: C_14  and  N_15
REMARK                            x       y       z     vdW  Elec       q    Type
REMARK                         _______ _______ _______ _____ _____    ______ ____
ROOT
ATOM      1  C   UNL     1       3.568   4.322  19.630  0.00  0.00    +0.000 A 
ATOM      2  C   UNL     1       2.645   3.443  20.204  0.00  0.00    +0.000 A 
ATOM      3  C   UNL     1       1.436   3.927  20.726  0.00  0.00    +0.000 A 
ATOM      4  C   UNL     1       1.119   5.292  20.657  0.00  0.00    +0.000 A 
ATOM      5  C   UNL     1       2.041   6.182  20.122  0.00  0.00    +0.000 A 
ATOM      6  C   UNL     1       3.264   5.683  19.663  0.00  0.00    +0.000 A 
ENDROOT
BRANCH   5   7
ATOM      7  N   UNL     1       1.830   7.574  20.026  0.00  0.00    +0.000 N 
ATOM      8  C   UNL     1       1.437   8.307  21.216  0.00  0.00    +0.000 C 
ATOM      9  C   UNL     1       0.739   9.463  20.606  0.00  0.00    +0.000 A 
ATOM     10  C   UNL     1      -0.408  10.114  20.997  0.00  0.00    +0.000 A 
ATOM     11  C   UNL     1      -0.858  11.157  20.188  0.00  0.00    +0.000 A 
ATOM     12  C   UNL     1      -0.100  11.578  19.078  0.00  0.00    +0.000 A 
ATOM     13 CL   UNL     1      -0.585  12.990  18.223  0.00  0.00    +0.000 Cl
ATOM     14  C   UNL     1       0.988  10.831  18.625  0.00  0.00    +0.000 A 
ATOM     15  C   UNL     1       1.293   9.705  19.353  0.00  0.00    +0.000 A 
ATOM     16  C   UNL     1       1.851   8.402  18.899  0.00  0.00    +0.000 C 
ATOM     17  O   UNL     1       2.114   8.142  17.735  0.00  0.00    +0.000 OA
ENDBRANCH   5   7
BRANCH   1  19
ATOM     18  C   UNL     1       4.573   3.183  17.549  0.00  0.00    +0.000 C 
ATOM     19  C   UNL     1       4.822   3.848  18.916  0.00  0.00    +0.000 C 
BRANCH  19  20
ATOM     20  S   UNL     1       6.138   5.103  18.835  0.00  0.00    +0.000 S 
BRANCH  20  21
ATOM     21  C   UNL     1       6.672   5.062  17.188  0.00  0.00    +0.000 A 
ATOM     22  N   UNL     1       7.695   4.411  16.681  0.00  0.00    +0.000 NA
ATOM     23  N   UNL     1       7.729   4.667  15.327  0.00  0.00    +0.000 NA
ATOM     24  C   UNL     1       6.727   5.477  15.056  0.00  0.00    +0.000 A 
ATOM     25  N   UNL     1       6.046   5.761  16.197  0.00  0.00    +0.000 N 
ATOM     26  C   UNL     1       4.909   6.610  16.295  0.00  0.00    +0.000 C 
ENDBRANCH  20  21
ENDBRANCH  19  20
ENDBRANCH   1  19
TORSDOF 4
ENDMDL
MODEL 4
REMARK VINA RESULT:      -8.1      1.791      2.848
REMARK  Name = 
REMARK  6 active torsions:
REMARK  status: ('A' for Active; 'I' for Inactive)
REMARK    1  A    between atoms: C_1  and  C_2
REMARK    2  A    between atoms: C_2  and  S_3
REMARK    3  A    between atoms: C_2  and  C_10
REMARK    4  A    between atoms: S_3  and  C_4
REMARK    5  A    between atoms: N_8  and  C_9
REMARK    6  A    between atoms: C_14  and  N_15
REMARK                            x       y       z     vdW  Elec       q    Type
REMARK                         _______ _______ _______ _____ _____    ______ ____
ROOT
ATOM      1  C   UNL     1       4.134   4.501  17.008  0.00  0.00    +0.000 A 
ATOM      2  C   UNL     1       3.258   3.414  17.092  0.00  0.00    +0.000 A 
ATOM      3  C   UNL     1       2.053   3.530  17.801  0.00  0.00    +0.000 A 
ATOM      4  C   UNL     1       1.690   4.740  18.410  0.00  0.00    +0.000 A 
ATOM      5  C   UNL     1       2.566   5.817  18.365  0.00  0.00    +0.000 A 
ATOM      6  C   UNL     1       3.788   5.659  17.705  0.00  0.00    +0.000 A 
ENDROOT
BRANCH   5   7
ATOM      7  N   UNL     1       2.309   7.069  18.964  0.00  0.00    +0.000 N 
ATOM      8  C   UNL     1       2.121   7.133  20.402  0.00  0.00    +0.000 C 
ATOM      9  C   UNL     1       1.296   8.359  20.515  0.00  0.00    +0.000 A 
ATOM     10  C   UNL     1       0.224   8.635  21.332  0.00  0.00    +0.000 A 
ATOM     11  C   UNL     1      -0.390   9.878  21.181  0.00  0.00    +0.000 A 
ATOM     12  C   UNL     1       0.144  10.836  20.298  0.00  0.00    +0.000 A 
ATOM     13 CL   UNL     1      -0.521  12.423  20.285  0.00  0.00    +0.000 Cl
ATOM     14  C   UNL     1       1.149  10.497  19.391  0.00  0.00    +0.000 A 
ATOM     15  C   UNL     1       1.608   9.202  19.454  0.00  0.00    +0.000 A 
ATOM     16  C   UNL     1       2.105   8.317  18.366  0.00  0.00    +0.000 C 
ATOM     17  O   UNL     1       2.158   8.645  17.191  0.00  0.00    +0.000 OA
ENDBRANCH   5   7
BRANCH   1  19
ATOM     18  C   UNL     1       5.443   5.621  15.093  0.00  0.00    +0.000 C 
ATOM     19  C   UNL     1       5.378   4.490  16.137  0.00  0.00    +0.000 C 
BRANCH  19  20
ATOM     20  S   UNL     1       6.929   4.339  17.077  0.00  0.00    +0.000 S 
BRANCH  20  21
ATOM     21  C   UNL     1       7.406   5.975  17.388  0.00  0.00    +0.000 A 
ATOM     22  N   UNL     1       7.436   6.987  16.549  0.00  0.00    +0.000 NA
ATOM     23  N   UNL     1       7.873   8.095  17.242  0.00  0.00    +0.000 NA
ATOM     24  C   UNL     1       8.105   7.718  18.481  0.00  0.00    +0.000 A 
ATOM     25  N   UNL     1       7.839   6.392  18.613  0.00  0.00    +0.000 N 
ATOM     26  C   UNL     1       7.982   5.632  19.807  0.00  0.00    +0.000 C 
ENDBRANCH  20  21
ENDBRANCH  19  20
ENDBRANCH   1  19
TORSDOF 4
ENDMDL
MODEL 5
REMARK VINA RESULT:      -8.1      2.682      3.902
REMARK  Name = 
REMARK  6 active torsions:
REMARK  status: ('A' for Active; 'I' for Inactive)
REMARK    1  A    between atoms: C_1  and  C_2
REMARK    2  A    between atoms: C_2  and  S_3
REMARK    3  A    between atoms: C_2  and  C_10
REMARK    4  A    between atoms: S_3  and  C_4
REMARK    5  A    between atoms: N_8  and  C_9
REMARK    6  A    between atoms: C_14  and  N_15
REMARK                            x       y       z     vdW  Elec       q    Type
REMARK                         _______ _______ _______ _____ _____    ______ ____
ROOT
ATOM      1  C   UNL     1       2.558   6.468  19.311  0.00  0.00    +0.000 A 
ATOM      2  C   UNL     1       2.767   6.677  17.944  0.00  0.00    +0.000 A 
ATOM      3  C   UNL     1       2.466   7.920  17.365  0.00  0.00    +0.000 A 
ATOM      4  C   UNL     1       1.983   8.979  18.146  0.00  0.00    +0.000 A 
ATOM      5  C   UNL     1       1.737   8.775  19.497  0.00  0.00    +0.000 A 
ATOM      6  C   UNL     1       1.987   7.511  20.040  0.00  0.00    +0.000 A 
ENDROOT
BRANCH   5   7
ATOM      7  N   UNL     1       1.231   9.766  20.366  0.00  0.00    +0.000 N 
ATOM      8  C   UNL     1       1.190   9.493  21.792  0.00  0.00    +0.000 C 
ATOM      9  C   UNL     1       0.092  10.397  22.211  0.00  0.00    +0.000 A 
ATOM     10  C   UNL     1      -0.919  10.201  23.122  0.00  0.00    +0.000 A 
ATOM     11  C   UNL     1      -1.847  11.231  23.277  0.00  0.00    +0.000 A 
ATOM     12  C   UNL     1      -1.678  12.452  22.597  0.00  0.00    +0.000 A 
ATOM     13 CL   UNL     1      -2.729  13.764  22.963  0.00  0.00    +0.000 Cl
ATOM     14  C   UNL     1      -0.724  12.588  21.588  0.00  0.00    +0.000 A 
ATOM     15  C   UNL     1       0.058  11.484  21.344  0.00  0.00    +0.000 A 
ATOM     16  C   UNL     1       0.647  11.001  20.066  0.00  0.00    +0.000 C 
ATOM     17  O   UNL     1       0.486  11.554  18.988  0.00  0.00    +0.000 OA
ENDBRANCH   5   7
BRANCH   1  19
ATOM     18  C   UNL     1       1.929   4.575  20.940  0.00  0.00    +0.000 C 
ATOM     19  C   UNL     1       2.999   5.203  20.026  0.00  0.00    +0.000 C 
BRANCH  19  20
ATOM     20  S   UNL     1       3.769   3.971  18.930  0.00  0.00    +0.000 S 
BRANCH  20  21
ATOM     21  C   UNL     1       5.411   4.499  18.775  0.00  0.00    +0.000 A 
ATOM     22  N   UNL     1       6.202   4.980  19.708  0.00  0.00    +0.000 NA
ATOM     23  N   UNL     1       7.420   5.257  19.126  0.00  0.00    +0.000 NA
ATOM     24  C   UNL     1       7.326   4.945  17.850  0.00  0.00    +0.000 A 
ATOM     25  N   UNL     1       6.078   4.479  17.584  0.00  0.00    +0.000 N 
ATOM     26  C   UNL     1       5.605   4.053  16.312  0.00  0.00    +0.000 C 
ENDBRANCH  20  21
ENDBRANCH  19  20
ENDBRANCH   1  19
TORSDOF 4
ENDMDL
MODEL 6
REMARK VINA RESULT:      -7.9      1.277      1.839
REMARK  Name = 
REMARK  6 active torsions:
REMARK  status: ('A' for Active; 'I' for Inactive)
REMARK    1  A    between atoms: C_1  and  C_2
REMARK    2  A    between atoms: C_2  and  S_3
REMARK    3  A    between atoms: C_2  and  C_10
REMARK    4  A    between atoms: S_3  and  C_4
REMARK    5  A    between atoms: N_8  and  C_9
REMARK    6  A    between atoms: C_14  and  N_15
REMARK                            x       y       z     vdW  Elec       q    Type
REMARK                         _______ _______ _______ _____ _____    ______ ____
ROOT
ATOM      1  C   UNL     1       4.631   5.584  17.723  0.00  0.00    +0.000 A 
ATOM      2  C   UNL     1       4.192   4.376  18.272  0.00  0.00    +0.000 A 
ATOM      3  C   UNL     1       3.010   4.330  19.026  0.00  0.00    +0.000 A 
ATOM      4  C   UNL     1       2.234   5.482  19.218  0.00  0.00    +0.000 A 
ATOM      5  C   UNL     1       2.676   6.696  18.709  0.00  0.00    +0.000 A 
ATOM      6  C   UNL     1       3.888   6.728  18.013  0.00  0.00    +0.000 A 
ENDROOT
BRANCH   5   7
ATOM      7  N   UNL     1       1.984   7.916  18.864  0.00  0.00    +0.000 N 
ATOM      8  C   UNL     1       1.843   8.793  17.715  0.00  0.00    +0.000 C 
ATOM      9  C   UNL     1       1.681  10.102  18.390  0.00  0.00    +0.000 A 
ATOM     10  C   UNL     1       2.183  11.339  18.059  0.00  0.00    +0.000 A 
ATOM     11  C   UNL     1       1.895  12.397  18.921  0.00  0.00    +0.000 A 
ATOM     12  C   UNL     1       1.037  12.208  20.022  0.00  0.00    +0.000 A 
ATOM     13 CL   UNL     1       0.549  13.575  20.944  0.00  0.00    +0.000 Cl
ATOM     14  C   UNL     1       0.640  10.929  20.412  0.00  0.00    +0.000 A 
ATOM     15  C   UNL     1       1.094   9.891  19.633  0.00  0.00    +0.000 A 
ATOM     16  C   UNL     1       1.456   8.500  20.020  0.00  0.00    +0.000 C 
ATOM     17  O   UNL     1       1.409   8.077  21.165  0.00  0.00    +0.000 OA
ENDBRANCH   5   7
BRANCH   1  19
ATOM     18  C   UNL     1       7.129   6.145  17.434  0.00  0.00    +0.000 C 
ATOM     19  C   UNL     1       5.816   5.676  16.777  0.00  0.00    +0.000 C 
BRANCH  19  20
ATOM     20  S   UNL     1       6.058   4.189  15.756  0.00  0.00    +0.000 S 
BRANCH  20  21
ATOM     21  C   UNL     1       6.955   4.749  14.385  0.00  0.00    +0.000 A 
ATOM     22  N   UNL     1       7.933   5.628  14.357  0.00  0.00    +0.000 NA
ATOM     23  N   UNL     1       8.350   5.752  13.049  0.00  0.00    +0.000 NA
ATOM     24  C   UNL     1       7.602   4.950  12.321  0.00  0.00    +0.000 A 
ATOM     25  N   UNL     1       6.705   4.312  13.117  0.00  0.00    +0.000 N 
ATOM     26  C   UNL     1       5.728   3.375  12.680  0.00  0.00    +0.000 C 
ENDBRANCH  20  21
ENDBRANCH  19  20
ENDBRANCH   1  19
TORSDOF 4
ENDMDL
MODEL 7
REMARK VINA RESULT:      -7.9      2.113      2.974
REMARK  Name = 
REMARK  6 active torsions:
REMARK  status: ('A' for Active; 'I' for Inactive)
REMARK    1  A    between atoms: C_1  and  C_2
REMARK    2  A    between atoms: C_2  and  S_3
REMARK    3  A    between atoms: C_2  and  C_10
REMARK    4  A    between atoms: S_3  and  C_4
REMARK    5  A    between atoms: N_8  and  C_9
REMARK    6  A    between atoms: C_14  and  N_15
REMARK                            x       y       z     vdW  Elec       q    Type
REMARK                         _______ _______ _______ _____ _____    ______ ____
ROOT
ATOM      1  C   UNL     1       4.197   5.044  16.825  0.00  0.00    +0.000 A 
ATOM      2  C   UNL     1       3.636   3.803  17.140  0.00  0.00    +0.000 A 
ATOM      3  C   UNL     1       2.626   3.709  18.110  0.00  0.00    +0.000 A 
ATOM      4  C   UNL     1       2.142   4.855  18.758  0.00  0.00    +0.000 A 
ATOM      5  C   UNL     1       2.714   6.089  18.481  0.00  0.00    +0.000 A 
ATOM      6  C   UNL     1       3.760   6.150  17.556  0.00  0.00    +0.000 A 
ENDROOT
BRANCH   5   7
ATOM      7  N   UNL     1       2.318   7.298  19.092  0.00  0.00    +0.000 N 
ATOM      8  C   UNL     1       2.130   7.327  20.532  0.00  0.00    +0.000 C 
ATOM      9  C   UNL     1       1.170   8.450  20.659  0.00  0.00    +0.000 A 
ATOM     10  C   UNL     1       0.078   8.594  21.481  0.00  0.00    +0.000 A 
ATOM     11  C   UNL     1      -0.676   9.760  21.344  0.00  0.00    +0.000 A 
ATOM     12  C   UNL     1      -0.259  10.780  20.468  0.00  0.00    +0.000 A 
ATOM     13 CL   UNL     1      -1.101  12.280  20.472  0.00  0.00    +0.000 Cl
ATOM     14  C   UNL     1       0.775  10.567  19.555  0.00  0.00    +0.000 A 
ATOM     15  C   UNL     1       1.379   9.333  19.605  0.00  0.00    +0.000 A 
ATOM     16  C   UNL     1       1.970   8.520  18.507  0.00  0.00    +0.000 C 
ATOM     17  O   UNL     1       1.980   8.862  17.334  0.00  0.00    +0.000 OA
ENDBRANCH   5   7
BRANCH   1  19
ATOM     18  C   UNL     1       5.193   6.650  15.075  0.00  0.00    +0.000 C 
ATOM     19  C   UNL     1       5.183   5.236  15.686  0.00  0.00    +0.000 C 
BRANCH  19  20
ATOM     20  S   UNL     1       6.862   4.643  16.062  0.00  0.00    +0.000 S 
BRANCH  20  21
ATOM     21  C   UNL     1       7.125   5.109  17.710  0.00  0.00    +0.000 A 
ATOM     22  N   UNL     1       6.981   4.380  18.794  0.00  0.00    +0.000 NA
ATOM     23  N   UNL     1       7.310   5.166  19.877  0.00  0.00    +0.000 NA
ATOM     24  C   UNL     1       7.633   6.355  19.416  0.00  0.00    +0.000 A 
ATOM     25  N   UNL     1       7.517   6.368  18.062  0.00  0.00    +0.000 N 
ATOM     26  C   UNL     1       7.774   7.484  17.218  0.00  0.00    +0.000 C 
ENDBRANCH  20  21
ENDBRANCH  19  20
ENDBRANCH   1  19
TORSDOF 4
ENDMDL
MODEL 8
REMARK VINA RESULT:      -7.8      3.911      5.030
REMARK  Name = 
REMARK  6 active torsions:
REMARK  status: ('A' for Active; 'I' for Inactive)
REMARK    1  A    between atoms: C_1  and  C_2
REMARK    2  A    between atoms: C_2  and  S_3
REMARK    3  A    between atoms: C_2  and  C_10
REMARK    4  A    between atoms: S_3  and  C_4
REMARK    5  A    between atoms: N_8  and  C_9
REMARK    6  A    between atoms: C_14  and  N_15
REMARK                            x       y       z     vdW  Elec       q    Type
REMARK                         _______ _______ _______ _____ _____    ______ ____
ROOT
ATOM      1  C   UNL     1       2.204   7.379  19.373  0.00  0.00    +0.000 A 
ATOM      2  C   UNL     1       2.652   7.571  18.063  0.00  0.00    +0.000 A 
ATOM      3  C   UNL     1       2.349   8.759  17.379  0.00  0.00    +0.000 A 
ATOM      4  C   UNL     1       1.622   9.783  18.004  0.00  0.00    +0.000 A 
ATOM      5  C   UNL     1       1.140   9.591  19.292  0.00  0.00    +0.000 A 
ATOM      6  C   UNL     1       1.402   8.375  19.930  0.00  0.00    +0.000 A 
ENDROOT
BRANCH   5   7
ATOM      7  N   UNL     1       0.380  10.545  20.001  0.00  0.00    +0.000 N 
ATOM      8  C   UNL     1       0.745  10.853  21.373  0.00  0.00    +0.000 C 
ATOM      9  C   UNL     1      -0.557  11.325  21.901  0.00  0.00    +0.000 A 
ATOM     10  C   UNL     1      -1.149  11.108  23.124  0.00  0.00    +0.000 A 
ATOM     11  C   UNL     1      -2.418  11.651  23.324  0.00  0.00    +0.000 A 
ATOM     12  C   UNL     1      -3.007  12.470  22.341  0.00  0.00    +0.000 A 
ATOM     13 CL   UNL     1      -4.482  13.279  22.704  0.00  0.00    +0.000 Cl
ATOM     14  C   UNL     1      -2.452  12.576  21.066  0.00  0.00    +0.000 A 
ATOM     15  C   UNL     1      -1.286  11.879  20.855  0.00  0.00    +0.000 A 
ATOM     16  C   UNL     1      -0.783  11.221  19.618  0.00  0.00    +0.000 C 
ATOM     17  O   UNL     1      -1.394  11.199  18.561  0.00  0.00    +0.000 OA
ENDBRANCH   5   7
BRANCH   1  19
ATOM     18  C   UNL     1       1.468   5.236  20.599  0.00  0.00    +0.000 C 
ATOM     19  C   UNL     1       2.619   6.186  20.217  0.00  0.00    +0.000 C 
BRANCH  19  20
ATOM     20  S   UNL     1       4.057   5.286  19.559  0.00  0.00    +0.000 S 
BRANCH  20  21
ATOM     21  C   UNL     1       3.371   3.971  18.666  0.00  0.00    +0.000 A 
ATOM     22  N   UNL     1       2.586   4.026  17.612  0.00  0.00    +0.000 NA
ATOM     23  N   UNL     1       2.296   2.732  17.235  0.00  0.00    +0.000 NA
ATOM     24  C   UNL     1       2.907   1.930  18.082  0.00  0.00    +0.000 A 
ATOM     25  N   UNL     1       3.581   2.666  19.004  0.00  0.00    +0.000 N 
ATOM     26  C   UNL     1       4.350   2.144  20.080  0.00  0.00    +0.000 C 
ENDBRANCH  20  21
ENDBRANCH  19  20
ENDBRANCH   1  19
TORSDOF 4
ENDMDL
MODEL 9
REMARK VINA RESULT:      -7.8      3.842      5.105
REMARK  Name = 
REMARK  6 active torsions:
REMARK  status: ('A' for Active; 'I' for Inactive)
REMARK    1  A    between atoms: C_1  and  C_2
REMARK    2  A    between atoms: C_2  and  S_3
REMARK    3  A    between atoms: C_2  and  C_10
REMARK    4  A    between atoms: S_3  and  C_4
REMARK    5  A    between atoms: N_8  and  C_9
REMARK    6  A    between atoms: C_14  and  N_15
REMARK                            x       y       z     vdW  Elec       q    Type
REMARK                         _______ _______ _______ _____ _____    ______ ____
ROOT
ATOM      1  C   UNL     1       2.374   7.306  19.407  0.00  0.00    +0.000 A 
ATOM      2  C   UNL     1       2.812   7.697  18.138  0.00  0.00    +0.000 A 
ATOM      3  C   UNL     1       2.357   8.897  17.571  0.00  0.00    +0.000 A 
ATOM      4  C   UNL     1       1.482   9.738  18.274  0.00  0.00    +0.000 A 
ATOM      5  C   UNL     1       1.011   9.346  19.520  0.00  0.00    +0.000 A 
ATOM      6  C   UNL     1       1.431   8.117  20.038  0.00  0.00    +0.000 A 
ENDROOT
BRANCH   5   7
ATOM      7  N   UNL     1       0.113  10.105  20.300  0.00  0.00    +0.000 N 
ATOM      8  C   UNL     1      -0.981  10.794  19.637  0.00  0.00    +0.000 C 
ATOM      9  C   UNL     1      -1.238  11.889  20.602  0.00  0.00    +0.000 A 
ATOM     10  C   UNL     1      -1.547  13.211  20.382  0.00  0.00    +0.000 A 
ATOM     11  C   UNL     1      -1.691  14.029  21.503  0.00  0.00    +0.000 A 
ATOM     12  C   UNL     1      -1.623  13.482  22.799  0.00  0.00    +0.000 A 
ATOM     13 CL   UNL     1      -2.001  14.481  24.147  0.00  0.00    +0.000 Cl
ATOM     14  C   UNL     1      -1.187  12.173  23.005  0.00  0.00    +0.000 A 
ATOM     15  C   UNL     1      -0.884  11.452  21.874  0.00  0.00    +0.000 A 
ATOM     16  C   UNL     1       0.146  10.398  21.667  0.00  0.00    +0.000 C 
ATOM     17  O   UNL     1       0.921  10.022  22.533  0.00  0.00    +0.000 OA
ENDBRANCH   5   7
BRANCH   1  19
ATOM     18  C   UNL     1       1.881   5.097  20.636  0.00  0.00    +0.000 C 
ATOM     19  C   UNL     1       2.939   6.100  20.136  0.00  0.00    +0.000 C 
BRANCH  19  20
ATOM     20  S   UNL     1       4.296   5.275  19.248  0.00  0.00    +0.000 S 
BRANCH  20  21
ATOM     21  C   UNL     1       3.538   3.938  18.448  0.00  0.00    +0.000 A 
ATOM     22  N   UNL     1       2.776   3.958  17.377  0.00  0.00    +0.000 NA
ATOM     23  N   UNL     1       2.407   2.659  17.099  0.00  0.00    +0.000 NA
ATOM     24  C   UNL     1       2.950   1.891  18.020  0.00  0.00    +0.000 A 
ATOM     25  N   UNL     1       3.656   2.654  18.894  0.00  0.00    +0.000 N 
ATOM     26  C   UNL     1       4.371   2.173  20.026  0.00  0.00    +0.000 C 
ENDBRANCH  20  21
ENDBRANCH  19  20
ENDBRANCH   1  19
TORSDOF 4
ENDMDL
