MODEL 1
REMARK VINA RESULT:     -10.5      0.000      0.000
REMARK  Name = 
REMARK  8 active torsions:
REMARK  status: ('A' for Active; 'I' for Inactive)
REMARK    1  A    between atoms: C_1  and  N_2
REMARK    2  A    between atoms: C_6  and  C_7
REMARK    3  A    between atoms: C_7  and  C_8
REMARK    4  A    between atoms: C_8  and  C_9
REMARK    5  A    between atoms: C_13  and  N_14
REMARK    6  A    between atoms: C_19  and  C_20
REMARK    7  A    between atoms: C_20  and  N_21
REMARK    8  A    between atoms: C_30  and  C_31
REMARK                            x       y       z     vdW  Elec       q    Type
REMARK                         _______ _______ _______ _____ _____    ______ ____
ROOT
ATOM      1  N   UNL     1       1.516   7.781  20.238  0.00  0.00    +0.000 N 
ATOM      2  C   UNL     1       1.520   6.471  20.865  0.00  0.00    +0.000 C 
ATOM      3  C   UNL     1       2.288   5.618  19.929  0.00  0.00    +0.000 A 
ATOM      4  C   UNL     1       2.711   6.376  18.841  0.00  0.00    +0.000 A 
ATOM      5  C   UNL     1       3.454   5.814  17.821  0.00  0.00    +0.000 A 
ATOM      6  C   UNL     1       3.812   4.450  17.925  0.00  0.00    +0.000 A 
ATOM      7  C   UNL     1       3.383   3.701  19.049  0.00  0.00    +0.000 A 
ATOM      8  C   UNL     1       2.575   4.263  20.048  0.00  0.00    +0.000 A 
ATOM      9  C   UNL     1       2.214   7.764  19.024  0.00  0.00    +0.000 C 
ATOM     10  O   UNL     1       2.420   8.648  18.213  0.00  0.00    +0.000 OA
ENDROOT
BRANCH   1  15
ATOM     11  C   UNL     1      -0.535  10.920  20.465  0.00  0.00    +0.000 A 
ATOM     12  C   UNL     1      -0.601  11.062  21.858  0.00  0.00    +0.000 A 
ATOM     13  C   UNL     1      -0.007  10.128  22.721  0.00  0.00    +0.000 A 
ATOM     14  C   UNL     1       0.694   9.024  22.217  0.00  0.00    +0.000 A 
ATOM     15  C   UNL     1       0.798   8.842  20.843  0.00  0.00    +0.000 A 
ATOM     16  C   UNL     1       0.164   9.787  20.012  0.00  0.00    +0.000 A 
BRANCH  11  17
ATOM     17  C   UNL     1      -1.201  11.942  19.403  0.00  0.00    +0.000 C 
ATOM     18  C   UNL     1      -0.323  12.294  18.172  0.00  0.00    +0.000 C 
ATOM     19  O   UNL     1      -0.327  13.699  18.482  0.00  0.00    +0.000 OA
ATOM     20  C   UNL     1      -1.076  13.470  19.693  0.00  0.00    +0.000 C 
BRANCH  17  21
ATOM     21  C   UNL     1      -2.639  11.508  19.021  0.00  0.00    +0.000 C 
BRANCH  21  27
ATOM     22  C   UNL     1      -5.012  11.971  16.980  0.00  0.00    +0.000 C 
ATOM     23  N   UNL     1      -3.828  11.177  16.777  0.00  0.00    +0.000 N 
ATOM     24  C   UNL     1      -3.561  10.458  15.649  0.00  0.00    +0.000 A 
ATOM     25  N   UNL     1      -2.425   9.826  15.795  0.00  0.00    +0.000 NA
ATOM     26  N   UNL     1      -1.944  10.117  17.044  0.00  0.00    +0.000 NA
ATOM     27  C   UNL     1      -2.779  10.952  17.635  0.00  0.00    +0.000 A 
ENDBRANCH  21  27
ENDBRANCH  17  21
ENDBRANCH  11  17
ENDBRANCH   1  15
BRANCH   8  28
ATOM     28  C   UNL     1       2.028   3.419  21.173  0.00  0.00    +0.000 C 
ATOM     29  F   UNL     1       2.321   3.896  22.413  0.00  0.00    +0.000 F 
ATOM     30  F   UNL     1       0.671   3.326  21.126  0.00  0.00    +0.000 F 
ATOM     31  F   UNL     1       2.497   2.143  21.150  0.00  0.00    +0.000 F 
ENDBRANCH   8  28
BRANCH   6  32
ATOM     32  C   UNL     1       4.678   3.771  16.873  0.00  0.00    +0.000 C 
BRANCH  32  33
ATOM     33  N   UNL     1       5.360   4.738  16.013  0.00  0.00    +0.000 NA
ATOM     34  C   UNL     1       5.439   4.280  14.612  0.00  0.00    +0.000 C 
ATOM     35  C   UNL     1       6.551   5.127  14.021  0.00  0.00    +0.000 C 
ATOM     36  C   UNL     1       7.607   5.036  15.105  0.00  0.00    +0.000 C 
ATOM     37  C   UNL     1       6.760   5.096  16.367  0.00  0.00    +0.000 C 
ATOM     38  C   UNL     1       6.759   6.464  17.089  0.00  0.00    +0.000 C 
ATOM     39  O   UNL     1       7.775   5.972  18.016  0.00  0.00    +0.000 OA
ATOM     40  C   UNL     1       7.363   4.605  17.697  0.00  0.00    +0.000 C 
ENDBRANCH  32  33
ENDBRANCH   6  32
TORSDOF 7
ENDMDL
MODEL 2
REMARK VINA RESULT:     -10.4      0.804      1.406
REMARK  Name = 
REMARK  8 active torsions:
REMARK  status: ('A' for Active; 'I' for Inactive)
REMARK    1  A    between atoms: C_1  and  N_2
REMARK    2  A    between atoms: C_6  and  C_7
REMARK    3  A    between atoms: C_7  and  C_8
REMARK    4  A    between atoms: C_8  and  C_9
REMARK    5  A    between atoms: C_13  and  N_14
REMARK    6  A    between atoms: C_19  and  C_20
REMARK    7  A    between atoms: C_20  and  N_21
REMARK    8  A    between atoms: C_30  and  C_31
REMARK                            x       y       z     vdW  Elec       q    Type
REMARK                         _______ _______ _______ _____ _____    ______ ____
ROOT
ATOM      1  N   UNL     1       1.439   7.761  20.309  0.00  0.00    +0.000 N 
ATOM      2  C   UNL     1       1.380   6.423  20.871  0.00  0.00    +0.000 C 
ATOM      3  C   UNL     1       2.163   5.593  19.926  0.00  0.00    +0.000 A 
ATOM      4  C   UNL     1       2.653   6.389  18.896  0.00  0.00    +0.000 A 
ATOM      5  C   UNL     1       3.422   5.855  17.881  0.00  0.00    +0.000 A 
ATOM      6  C   UNL     1       3.737   4.478  17.932  0.00  0.00    +0.000 A 
ATOM      7  C   UNL     1       3.241   3.688  18.999  0.00  0.00    +0.000 A 
ATOM      8  C   UNL     1       2.407   4.225  19.991  0.00  0.00    +0.000 A 
ATOM      9  C   UNL     1       2.187   7.781  19.126  0.00  0.00    +0.000 C 
ATOM     10  O   UNL     1       2.452   8.696  18.369  0.00  0.00    +0.000 OA
ENDROOT
BRANCH   1  15
ATOM     11  C   UNL     1      -0.645  10.872  20.599  0.00  0.00    +0.000 A 
ATOM     12  C   UNL     1      -0.671  11.014  21.993  0.00  0.00    +0.000 A 
ATOM     13  C   UNL     1      -0.039  10.088  22.838  0.00  0.00    +0.000 A 
ATOM     14  C   UNL     1       0.660   8.993  22.313  0.00  0.00    +0.000 A 
ATOM     15  C   UNL     1       0.726   8.812  20.936  0.00  0.00    +0.000 A 
ATOM     16  C   UNL     1       0.055   9.749  20.125  0.00  0.00    +0.000 A 
BRANCH  11  17
ATOM     17  C   UNL     1      -1.355  11.886  19.558  0.00  0.00    +0.000 C 
ATOM     18  C   UNL     1      -0.485  12.320  18.347  0.00  0.00    +0.000 C 
ATOM     19  O   UNL     1      -0.570  13.714  18.696  0.00  0.00    +0.000 OA
ATOM     20  C   UNL     1      -1.318  13.410  19.891  0.00  0.00    +0.000 C 
BRANCH  17  21
ATOM     21  C   UNL     1      -2.762  11.384  19.146  0.00  0.00    +0.000 C 
BRANCH  21  27
ATOM     22  C   UNL     1      -5.043  12.023  17.048  0.00  0.00    +0.000 C 
ATOM     23  N   UNL     1      -3.876  11.202  16.847  0.00  0.00    +0.000 N 
ATOM     24  C   UNL     1      -3.589  10.532  15.694  0.00  0.00    +0.000 A 
ATOM     25  N   UNL     1      -2.479   9.858  15.848  0.00  0.00    +0.000 NA
ATOM     26  N   UNL     1      -2.037  10.071  17.127  0.00  0.00    +0.000 NA
ATOM     27  C   UNL     1      -2.867  10.902  17.729  0.00  0.00    +0.000 A 
ENDBRANCH  21  27
ENDBRANCH  17  21
ENDBRANCH  11  17
ENDBRANCH   1  15
BRANCH   8  28
ATOM     28  C   UNL     1       1.790   3.345  21.050  0.00  0.00    +0.000 C 
ATOM     29  F   UNL     1       2.130   3.691  22.321  0.00  0.00    +0.000 F 
ATOM     30  F   UNL     1       0.429   3.380  21.010  0.00  0.00    +0.000 F 
ATOM     31  F   UNL     1       2.140   2.038  20.918  0.00  0.00    +0.000 F 
ENDBRANCH   8  28
BRANCH   6  32
ATOM     32  C   UNL     1       4.628   3.824  16.884  0.00  0.00    +0.000 C 
BRANCH  32  33
ATOM     33  N   UNL     1       6.028   4.227  17.022  0.00  0.00    +0.000 NA
ATOM     34  C   UNL     1       6.347   4.675  18.391  0.00  0.00    +0.000 C 
ATOM     35  C   UNL     1       7.624   5.476  18.216  0.00  0.00    +0.000 C 
ATOM     36  C   UNL     1       7.287   6.318  17.001  0.00  0.00    +0.000 C 
ATOM     37  C   UNL     1       6.508   5.329  16.146  0.00  0.00    +0.000 C 
ATOM     38  C   UNL     1       7.302   4.720  14.966  0.00  0.00    +0.000 C 
ATOM     39  O   UNL     1       6.696   5.695  14.061  0.00  0.00    +0.000 OA
ATOM     40  C   UNL     1       5.604   5.863  15.020  0.00  0.00    +0.000 C 
ENDBRANCH  32  33
ENDBRANCH   6  32
TORSDOF 7
ENDMDL
MODEL 3
REMARK VINA RESULT:     -10.3      1.869      2.868
REMARK  Name = 
REMARK  8 active torsions:
REMARK  status: ('A' for Active; 'I' for Inactive)
REMARK    1  A    between atoms: C_1  and  N_2
REMARK    2  A    between atoms: C_6  and  C_7
REMARK    3  A    between atoms: C_7  and  C_8
REMARK    4  A    between atoms: C_8  and  C_9
REMARK    5  A    between atoms: C_13  and  N_14
REMARK    6  A    between atoms: C_19  and  C_20
REMARK    7  A    between atoms: C_20  and  N_21
REMARK    8  A    between atoms: C_30  and  C_31
REMARK                            x       y       z     vdW  Elec       q    Type
REMARK                         _______ _______ _______ _____ _____    ______ ____
ROOT
ATOM      1  N   UNL     1       1.530   7.844  20.160  0.00  0.00    +0.000 N 
ATOM      2  C   UNL     1       1.517   6.538  20.795  0.00  0.00    +0.000 C 
ATOM      3  C   UNL     1       2.285   5.673  19.870  0.00  0.00    +0.000 A 
ATOM      4  C   UNL     1       2.724   6.420  18.781  0.00  0.00    +0.000 A 
ATOM      5  C   UNL     1       3.469   5.845  17.771  0.00  0.00    +0.000 A 
ATOM      6  C   UNL     1       3.814   4.479  17.885  0.00  0.00    +0.000 A 
ATOM      7  C   UNL     1       3.369   3.740  19.010  0.00  0.00    +0.000 A 
ATOM      8  C   UNL     1       2.559   4.315  20.000  0.00  0.00    +0.000 A 
ATOM      9  C   UNL     1       2.238   7.813  18.952  0.00  0.00    +0.000 C 
ATOM     10  O   UNL     1       2.458   8.690  18.138  0.00  0.00    +0.000 OA
ENDROOT
BRANCH   1  15
ATOM     11  C   UNL     1      -0.554  10.963  20.352  0.00  0.00    +0.000 A 
ATOM     12  C   UNL     1      -0.579  11.149  21.741  0.00  0.00    +0.000 A 
ATOM     13  C   UNL     1       0.054  10.251  22.614  0.00  0.00    +0.000 A 
ATOM     14  C   UNL     1       0.753   9.140  22.123  0.00  0.00    +0.000 A 
ATOM     15  C   UNL     1       0.818   8.915  20.753  0.00  0.00    +0.000 A 
ATOM     16  C   UNL     1       0.146   9.825  19.913  0.00  0.00    +0.000 A 
BRANCH  11  17
ATOM     17  C   UNL     1      -1.265  11.942  19.279  0.00  0.00    +0.000 C 
ATOM     18  C   UNL     1      -2.818  11.918  19.276  0.00  0.00    +0.000 C 
ATOM     19  O   UNL     1      -2.879  11.499  17.901  0.00  0.00    +0.000 OA
ATOM     20  C   UNL     1      -1.441  11.414  17.821  0.00  0.00    +0.000 C 
BRANCH  17  21
ATOM     21  C   UNL     1      -0.680  13.376  19.343  0.00  0.00    +0.000 C 
BRANCH  21  27
ATOM     22  C   UNL     1       1.317  14.404  21.571  0.00  0.00    +0.000 C 
ATOM     23  N   UNL     1       1.651  13.901  20.264  0.00  0.00    +0.000 N 
ATOM     24  C   UNL     1       2.919  13.819  19.766  0.00  0.00    +0.000 A 
ATOM     25  N   UNL     1       2.877  13.349  18.546  0.00  0.00    +0.000 NA
ATOM     26  N   UNL     1       1.561  13.135  18.227  0.00  0.00    +0.000 NA
ATOM     27  C   UNL     1       0.817  13.446  19.272  0.00  0.00    +0.000 A 
ENDBRANCH  21  27
ENDBRANCH  17  21
ENDBRANCH  11  17
ENDBRANCH   1  15
BRANCH   8  28
ATOM     28  C   UNL     1       1.996   3.483  21.125  0.00  0.00    +0.000 C 
ATOM     29  F   UNL     1       2.405   2.186  21.110  0.00  0.00    +0.000 F 
ATOM     30  F   UNL     1       2.356   3.968  22.346  0.00  0.00    +0.000 F 
ATOM     31  F   UNL     1       0.637   3.440  21.120  0.00  0.00    +0.000 F 
ENDBRANCH   8  28
BRANCH   6  32
ATOM     32  C   UNL     1       4.682   3.785  16.843  0.00  0.00    +0.000 C 
BRANCH  32  33
ATOM     33  N   UNL     1       5.383   4.741  15.986  0.00  0.00    +0.000 NA
ATOM     34  C   UNL     1       5.469   4.276  14.587  0.00  0.00    +0.000 C 
ATOM     35  C   UNL     1       6.596   5.109  14.004  0.00  0.00    +0.000 C 
ATOM     36  C   UNL     1       7.640   5.011  15.098  0.00  0.00    +0.000 C 
ATOM     37  C   UNL     1       6.783   5.085  16.352  0.00  0.00    +0.000 C 
ATOM     38  C   UNL     1       6.790   6.457  17.067  0.00  0.00    +0.000 C 
ATOM     39  O   UNL     1       7.792   5.958  18.006  0.00  0.00    +0.000 OA
ATOM     40  C   UNL     1       7.368   4.594  17.689  0.00  0.00    +0.000 C 
ENDBRANCH  32  33
ENDBRANCH   6  32
TORSDOF 7
ENDMDL
MODEL 4
REMARK VINA RESULT:     -10.3      1.897      2.810
REMARK  Name = 
REMARK  8 active torsions:
REMARK  status: ('A' for Active; 'I' for Inactive)
REMARK    1  A    between atoms: C_1  and  N_2
REMARK    2  A    between atoms: C_6  and  C_7
REMARK    3  A    between atoms: C_7  and  C_8
REMARK    4  A    between atoms: C_8  and  C_9
REMARK    5  A    between atoms: C_13  and  N_14
REMARK    6  A    between atoms: C_19  and  C_20
REMARK    7  A    between atoms: C_20  and  N_21
REMARK    8  A    between atoms: C_30  and  C_31
REMARK                            x       y       z     vdW  Elec       q    Type
REMARK                         _______ _______ _______ _____ _____    ______ ____
ROOT
ATOM      1  N   UNL     1       1.573   7.843  20.060  0.00  0.00    +0.000 N 
ATOM      2  C   UNL     1       1.525   6.536  20.692  0.00  0.00    +0.000 C 
ATOM      3  C   UNL     1       2.302   5.661  19.785  0.00  0.00    +0.000 A 
ATOM      4  C   UNL     1       2.779   6.403  18.709  0.00  0.00    +0.000 A 
ATOM      5  C   UNL     1       3.541   5.819  17.716  0.00  0.00    +0.000 A 
ATOM      6  C   UNL     1       3.863   4.448  17.837  0.00  0.00    +0.000 A 
ATOM      7  C   UNL     1       3.380   3.714  18.950  0.00  0.00    +0.000 A 
ATOM      8  C   UNL     1       2.553   4.299  19.920  0.00  0.00    +0.000 A 
ATOM      9  C   UNL     1       2.310   7.803  18.870  0.00  0.00    +0.000 C 
ATOM     10  O   UNL     1       2.563   8.678  18.063  0.00  0.00    +0.000 OA
ENDROOT
BRANCH   1  15
ATOM     11  C   UNL     1      -0.654  10.863  20.218  0.00  0.00    +0.000 A 
ATOM     12  C   UNL     1      -0.558  11.161  21.584  0.00  0.00    +0.000 A 
ATOM     13  C   UNL     1       0.204  10.368  22.457  0.00  0.00    +0.000 A 
ATOM     14  C   UNL     1       0.914   9.256  21.986  0.00  0.00    +0.000 A 
ATOM     15  C   UNL     1       0.861   8.923  20.637  0.00  0.00    +0.000 A 
ATOM     16  C   UNL     1       0.063   9.728  19.800  0.00  0.00    +0.000 A 
BRANCH  11  17
ATOM     17  C   UNL     1      -1.517  11.717  19.149  0.00  0.00    +0.000 C 
ATOM     18  C   UNL     1      -2.760  12.449  19.724  0.00  0.00    +0.000 C 
ATOM     19  O   UNL     1      -3.665  11.745  18.854  0.00  0.00    +0.000 OA
ATOM     20  C   UNL     1      -2.589  10.954  18.309  0.00  0.00    +0.000 C 
BRANCH  17  21
ATOM     21  C   UNL     1      -0.611  12.637  18.292  0.00  0.00    +0.000 C 
BRANCH  21  27
ATOM     22  C   UNL     1       2.526  12.245  18.156  0.00  0.00    +0.000 C 
ATOM     23  N   UNL     1       1.797  13.176  18.977  0.00  0.00    +0.000 N 
ATOM     24  C   UNL     1       2.369  14.034  19.870  0.00  0.00    +0.000 A 
ATOM     25  N   UNL     1       1.434  14.720  20.475  0.00  0.00    +0.000 NA
ATOM     26  N   UNL     1       0.226  14.296  19.988  0.00  0.00    +0.000 NA
ATOM     27  C   UNL     1       0.441  13.377  19.065  0.00  0.00    +0.000 A 
ENDBRANCH  21  27
ENDBRANCH  17  21
ENDBRANCH  11  17
ENDBRANCH   1  15
BRANCH   8  28
ATOM     28  C   UNL     1       1.950   3.474  21.029  0.00  0.00    +0.000 C 
ATOM     29  F   UNL     1       2.320   3.873  22.276  0.00  0.00    +0.000 F 
ATOM     30  F   UNL     1       0.590   3.521  21.016  0.00  0.00    +0.000 F 
ATOM     31  F   UNL     1       2.286   2.159  20.950  0.00  0.00    +0.000 F 
ENDBRANCH   8  28
BRANCH   6  32
ATOM     32  C   UNL     1       4.746   3.743  16.816  0.00  0.00    +0.000 C 
BRANCH  32  33
ATOM     33  N   UNL     1       5.411   4.687  15.918  0.00  0.00    +0.000 NA
ATOM     34  C   UNL     1       5.444   4.201  14.524  0.00  0.00    +0.000 C 
ATOM     35  C   UNL     1       6.545   5.027  13.885  0.00  0.00    +0.000 C 
ATOM     36  C   UNL     1       7.632   4.948  14.939  0.00  0.00    +0.000 C 
ATOM     37  C   UNL     1       6.823   5.039  16.224  0.00  0.00    +0.000 C 
ATOM     38  C   UNL     1       6.855   6.421  16.918  0.00  0.00    +0.000 C 
ATOM     39  O   UNL     1       7.894   5.938  17.825  0.00  0.00    +0.000 OA
ATOM     40  C   UNL     1       7.461   4.569  17.544  0.00  0.00    +0.000 C 
ENDBRANCH  32  33
ENDBRANCH   6  32
TORSDOF 7
ENDMDL
MODEL 5
REMARK VINA RESULT:     -10.1      0.678      1.117
REMARK  Name = 
REMARK  8 active torsions:
REMARK  status: ('A' for Active; 'I' for Inactive)
REMARK    1  A    between atoms: C_1  and  N_2
REMARK    2  A    between atoms: C_6  and  C_7
REMARK    3  A    between atoms: C_7  and  C_8
REMARK    4  A    between atoms: C_8  and  C_9
REMARK    5  A    between atoms: C_13  and  N_14
REMARK    6  A    between atoms: C_19  and  C_20
REMARK    7  A    between atoms: C_20  and  N_21
REMARK    8  A    between atoms: C_30  and  C_31
REMARK                            x       y       z     vdW  Elec       q    Type
REMARK                         _______ _______ _______ _____ _____    ______ ____
ROOT
ATOM      1  N   UNL     1       1.676   7.652  20.182  0.00  0.00    +0.000 N 
ATOM      2  C   UNL     1       1.610   6.329  20.776  0.00  0.00    +0.000 C 
ATOM      3  C   UNL     1       2.381   5.470  19.848  0.00  0.00    +0.000 A 
ATOM      4  C   UNL     1       2.872   6.237  18.796  0.00  0.00    +0.000 A 
ATOM      5  C   UNL     1       3.631   5.672  17.790  0.00  0.00    +0.000 A 
ATOM      6  C   UNL     1       3.935   4.294  17.873  0.00  0.00    +0.000 A 
ATOM      7  C   UNL     1       3.438   3.534  18.962  0.00  0.00    +0.000 A 
ATOM      8  C   UNL     1       2.614   4.102  19.945  0.00  0.00    +0.000 A 
ATOM      9  C   UNL     1       2.418   7.637  18.995  0.00  0.00    +0.000 C 
ATOM     10  O   UNL     1       2.686   8.532  18.214  0.00  0.00    +0.000 OA
ENDROOT
BRANCH   1  15
ATOM     11  C   UNL     1      -0.372  10.793  20.406  0.00  0.00    +0.000 A 
ATOM     12  C   UNL     1      -0.397  10.963  21.798  0.00  0.00    +0.000 A 
ATOM     13  C   UNL     1       0.225  10.048  22.662  0.00  0.00    +0.000 A 
ATOM     14  C   UNL     1       0.911   8.935  22.159  0.00  0.00    +0.000 A 
ATOM     15  C   UNL     1       0.975   8.724  20.786  0.00  0.00    +0.000 A 
ATOM     16  C   UNL     1       0.316   9.652  19.956  0.00  0.00    +0.000 A 
BRANCH  11  17
ATOM     17  C   UNL     1      -1.070  11.793  19.344  0.00  0.00    +0.000 C 
ATOM     18  C   UNL     1      -0.168  12.938  18.809  0.00  0.00    +0.000 C 
ATOM     19  O   UNL     1      -1.051  13.960  19.307  0.00  0.00    +0.000 OA
ATOM     20  C   UNL     1      -1.915  12.976  19.911  0.00  0.00    +0.000 C 
BRANCH  17  21
ATOM     21  C   UNL     1      -1.792  11.010  18.217  0.00  0.00    +0.000 C 
BRANCH  21  27
ATOM     22  C   UNL     1      -3.390  11.050  15.487  0.00  0.00    +0.000 C 
ATOM     23  N   UNL     1      -3.882  11.410  16.791  0.00  0.00    +0.000 N 
ATOM     24  C   UNL     1      -5.142  11.867  17.046  0.00  0.00    +0.000 A 
ATOM     25  N   UNL     1      -5.258  12.133  18.321  0.00  0.00    +0.000 NA
ATOM     26  N   UNL     1      -4.053  11.865  18.914  0.00  0.00    +0.000 NA
ATOM     27  C   UNL     1      -3.222  11.406  17.996  0.00  0.00    +0.000 A 
ENDBRANCH  21  27
ENDBRANCH  17  21
ENDBRANCH  11  17
ENDBRANCH   1  15
BRANCH   8  28
ATOM     28  C   UNL     1       1.996   3.253  21.028  0.00  0.00    +0.000 C 
ATOM     29  F   UNL     1       2.406   3.578  22.284  0.00  0.00    +0.000 F 
ATOM     30  F   UNL     1       0.638   3.360  21.045  0.00  0.00    +0.000 F 
ATOM     31  F   UNL     1       2.271   1.930  20.881  0.00  0.00    +0.000 F 
ENDBRANCH   8  28
BRANCH   6  32
ATOM     32  C   UNL     1       4.815   3.607  16.837  0.00  0.00    +0.000 C 
BRANCH  32  33
ATOM     33  N   UNL     1       5.421   4.562  15.909  0.00  0.00    +0.000 NA
ATOM     34  C   UNL     1       5.449   4.053  14.524  0.00  0.00    +0.000 C 
ATOM     35  C   UNL     1       6.501   4.914  13.848  0.00  0.00    +0.000 C 
ATOM     36  C   UNL     1       7.609   4.901  14.882  0.00  0.00    +0.000 C 
ATOM     37  C   UNL     1       6.822   4.981  16.181  0.00  0.00    +0.000 C 
ATOM     38  C   UNL     1       6.806   6.376  16.849  0.00  0.00    +0.000 C 
ATOM     39  O   UNL     1       7.882   5.956  17.744  0.00  0.00    +0.000 OA
ATOM     40  C   UNL     1       7.504   4.564  17.497  0.00  0.00    +0.000 C 
ENDBRANCH  32  33
ENDBRANCH   6  32
TORSDOF 7
ENDMDL
MODEL 6
REMARK VINA RESULT:     -10.1      2.082      3.223
REMARK  Name = 
REMARK  8 active torsions:
REMARK  status: ('A' for Active; 'I' for Inactive)
REMARK    1  A    between atoms: C_1  and  N_2
REMARK    2  A    between atoms: C_6  and  C_7
REMARK    3  A    between atoms: C_7  and  C_8
REMARK    4  A    between atoms: C_8  and  C_9
REMARK    5  A    between atoms: C_13  and  N_14
REMARK    6  A    between atoms: C_19  and  C_20
REMARK    7  A    between atoms: C_20  and  N_21
REMARK    8  A    between atoms: C_30  and  C_31
REMARK                            x       y       z     vdW  Elec       q    Type
REMARK                         _______ _______ _______ _____ _____    ______ ____
ROOT
ATOM      1  N   UNL     1       1.433   7.831  20.261  0.00  0.00    +0.000 N 
ATOM      2  C   UNL     1       1.442   6.520  20.886  0.00  0.00    +0.000 C 
ATOM      3  C   UNL     1       2.221   5.674  19.952  0.00  0.00    +0.000 A 
ATOM      4  C   UNL     1       2.646   6.436  18.869  0.00  0.00    +0.000 A 
ATOM      5  C   UNL     1       3.398   5.882  17.852  0.00  0.00    +0.000 A 
ATOM      6  C   UNL     1       3.764   4.520  17.955  0.00  0.00    +0.000 A 
ATOM      7  C   UNL     1       3.335   3.765  19.075  0.00  0.00    +0.000 A 
ATOM      8  C   UNL     1       2.517   4.320  20.071  0.00  0.00    +0.000 A 
ATOM      9  C   UNL     1       2.138   7.820  19.051  0.00  0.00    +0.000 C 
ATOM     10  O   UNL     1       2.342   8.707  18.243  0.00  0.00    +0.000 OA
ENDROOT
BRANCH   1  15
ATOM     11  C   UNL     1      -0.744  10.884  20.482  0.00  0.00    +0.000 A 
ATOM     12  C   UNL     1      -0.733  11.086  21.870  0.00  0.00    +0.000 A 
ATOM     13  C   UNL     1      -0.045  10.219  22.733  0.00  0.00    +0.000 A 
ATOM     14  C   UNL     1       0.674   9.125  22.233  0.00  0.00    +0.000 A 
ATOM     15  C   UNL     1       0.704   8.885  20.864  0.00  0.00    +0.000 A 
ATOM     16  C   UNL     1      -0.021   9.763  20.035  0.00  0.00    +0.000 A 
BRANCH  11  17
ATOM     17  C   UNL     1      -1.519  11.827  19.421  0.00  0.00    +0.000 C 
ATOM     18  C   UNL     1      -2.651  12.710  20.012  0.00  0.00    +0.000 C 
ATOM     19  O   UNL     1      -3.652  12.114  19.168  0.00  0.00    +0.000 OA
ATOM     20  C   UNL     1      -2.692  11.194  18.610  0.00  0.00    +0.000 C 
BRANCH  17  21
ATOM     21  C   UNL     1      -0.525  12.624  18.537  0.00  0.00    +0.000 C 
BRANCH  21  27
ATOM     22  C   UNL     1       2.596  12.275  18.153  0.00  0.00    +0.000 C 
ATOM     23  N   UNL     1       1.923  13.130  19.095  0.00  0.00    +0.000 N 
ATOM     24  C   UNL     1       2.552  13.920  20.013  0.00  0.00    +0.000 A 
ATOM     25  N   UNL     1       1.659  14.545  20.735  0.00  0.00    +0.000 NA
ATOM     26  N   UNL     1       0.421  14.149  20.299  0.00  0.00    +0.000 NA
ATOM     27  C   UNL     1       0.575  13.310  19.292  0.00  0.00    +0.000 A 
ENDBRANCH  21  27
ENDBRANCH  17  21
ENDBRANCH  11  17
ENDBRANCH   1  15
BRANCH   8  28
ATOM     28  C   UNL     1       1.970   3.470  21.191  0.00  0.00    +0.000 C 
ATOM     29  F   UNL     1       0.613   3.373  21.197  0.00  0.00    +0.000 F 
ATOM     30  F   UNL     1       2.431   2.190  21.130  0.00  0.00    +0.000 F 
ATOM     31  F   UNL     1       2.311   3.938  22.422  0.00  0.00    +0.000 F 
ENDBRANCH   8  28
BRANCH   6  32
ATOM     32  C   UNL     1       4.641   3.849  16.906  0.00  0.00    +0.000 C 
BRANCH  32  33
ATOM     33  N   UNL     1       6.046   4.238  17.031  0.00  0.00    +0.000 NA
ATOM     34  C   UNL     1       6.381   4.686  18.397  0.00  0.00    +0.000 C 
ATOM     35  C   UNL     1       7.664   5.474  18.210  0.00  0.00    +0.000 C 
ATOM     36  C   UNL     1       7.325   6.316  16.996  0.00  0.00    +0.000 C 
ATOM     37  C   UNL     1       6.529   5.334  16.150  0.00  0.00    +0.000 C 
ATOM     38  C   UNL     1       7.307   4.715  14.964  0.00  0.00    +0.000 C 
ATOM     39  O   UNL     1       6.702   5.695  14.062  0.00  0.00    +0.000 OA
ATOM     40  C   UNL     1       5.621   5.875  15.031  0.00  0.00    +0.000 C 
ENDBRANCH  32  33
ENDBRANCH   6  32
TORSDOF 7
ENDMDL
MODEL 7
REMARK VINA RESULT:     -10.1      2.111      3.056
REMARK  Name = 
REMARK  8 active torsions:
REMARK  status: ('A' for Active; 'I' for Inactive)
REMARK    1  A    between atoms: C_1  and  N_2
REMARK    2  A    between atoms: C_6  and  C_7
REMARK    3  A    between atoms: C_7  and  C_8
REMARK    4  A    between atoms: C_8  and  C_9
REMARK    5  A    between atoms: C_13  and  N_14
REMARK    6  A    between atoms: C_19  and  C_20
REMARK    7  A    between atoms: C_20  and  N_21
REMARK    8  A    between atoms: C_30  and  C_31
REMARK                            x       y       z     vdW  Elec       q    Type
REMARK                         _______ _______ _______ _____ _____    ______ ____
ROOT
ATOM      1  N   UNL     1       1.393   7.781  20.428  0.00  0.00    +0.000 N 
ATOM      2  C   UNL     1       1.428   6.457  21.023  0.00  0.00    +0.000 C 
ATOM      3  C   UNL     1       2.192   5.639  20.054  0.00  0.00    +0.000 A 
ATOM      4  C   UNL     1       2.584   6.428  18.977  0.00  0.00    +0.000 A 
ATOM      5  C   UNL     1       3.317   5.902  17.931  0.00  0.00    +0.000 A 
ATOM      6  C   UNL     1       3.698   4.542  17.996  0.00  0.00    +0.000 A 
ATOM      7  C   UNL     1       3.301   3.760  19.110  0.00  0.00    +0.000 A 
ATOM      8  C   UNL     1       2.503   4.285  20.136  0.00  0.00    +0.000 A 
ATOM      9  C   UNL     1       2.069   7.803  19.202  0.00  0.00    +0.000 C 
ATOM     10  O   UNL     1       2.246   8.709  18.409  0.00  0.00    +0.000 OA
ENDROOT
BRANCH   1  15
ATOM     11  C   UNL     1      -0.562  10.969  20.781  0.00  0.00    +0.000 A 
ATOM     12  C   UNL     1      -0.723  10.998  22.173  0.00  0.00    +0.000 A 
ATOM     13  C   UNL     1      -0.224   9.973  22.992  0.00  0.00    +0.000 A 
ATOM     14  C   UNL     1       0.473   8.887  22.445  0.00  0.00    +0.000 A 
ATOM     15  C   UNL     1       0.669   8.816  21.070  0.00  0.00    +0.000 A 
ATOM     16  C   UNL     1       0.129   9.851  20.282  0.00  0.00    +0.000 A 
BRANCH  11  17
ATOM     17  C   UNL     1      -1.114  12.101  19.767  0.00  0.00    +0.000 C 
ATOM     18  C   UNL     1      -2.629  12.024  19.437  0.00  0.00    +0.000 C 
ATOM     19  O   UNL     1      -2.386  11.861  18.028  0.00  0.00    +0.000 OA
ATOM     20  C   UNL     1      -0.959  11.841  18.236  0.00  0.00    +0.000 C 
BRANCH  17  21
ATOM     21  C   UNL     1      -0.657  13.519  20.195  0.00  0.00    +0.000 C 
BRANCH  21  27
ATOM     22  C   UNL     1       0.094  16.160  18.623  0.00  0.00    +0.000 C 
ATOM     23  N   UNL     1       0.977  15.085  18.996  0.00  0.00    +0.000 N 
ATOM     24  C   UNL     1       2.305  15.031  18.690  0.00  0.00    +0.000 A 
ATOM     25  N   UNL     1       2.811  13.914  19.144  0.00  0.00    +0.000 NA
ATOM     26  N   UNL     1       1.798  13.212  19.744  0.00  0.00    +0.000 NA
ATOM     27  C   UNL     1       0.691  13.927  19.677  0.00  0.00    +0.000 A 
ENDBRANCH  21  27
ENDBRANCH  17  21
ENDBRANCH  11  17
ENDBRANCH   1  15
BRANCH   8  28
ATOM     28  C   UNL     1       1.990   3.407  21.250  0.00  0.00    +0.000 C 
ATOM     29  F   UNL     1       2.296   3.860  22.495  0.00  0.00    +0.000 F 
ATOM     30  F   UNL     1       0.633   3.292  21.224  0.00  0.00    +0.000 F 
ATOM     31  F   UNL     1       2.479   2.139  21.190  0.00  0.00    +0.000 F 
ENDBRANCH   8  28
BRANCH   6  32
ATOM     32  C   UNL     1       4.555   3.902  16.913  0.00  0.00    +0.000 C 
BRANCH  32  33
ATOM     33  N   UNL     1       5.970   4.248  17.053  0.00  0.00    +0.000 NA
ATOM     34  C   UNL     1       6.304   4.684  18.423  0.00  0.00    +0.000 C 
ATOM     35  C   UNL     1       7.612   5.433  18.250  0.00  0.00    +0.000 C 
ATOM     36  C   UNL     1       7.312   6.287  17.034  0.00  0.00    +0.000 C 
ATOM     37  C   UNL     1       6.495   5.330  16.178  0.00  0.00    +0.000 C 
ATOM     38  C   UNL     1       7.266   4.690  14.999  0.00  0.00    +0.000 C 
ATOM     39  O   UNL     1       6.701   5.688  14.093  0.00  0.00    +0.000 OA
ATOM     40  C   UNL     1       5.615   5.900  15.051  0.00  0.00    +0.000 C 
ENDBRANCH  32  33
ENDBRANCH   6  32
TORSDOF 7
ENDMDL
MODEL 8
REMARK VINA RESULT:     -10.1      2.100      3.267
REMARK  Name = 
REMARK  8 active torsions:
REMARK  status: ('A' for Active; 'I' for Inactive)
REMARK    1  A    between atoms: C_1  and  N_2
REMARK    2  A    between atoms: C_6  and  C_7
REMARK    3  A    between atoms: C_7  and  C_8
REMARK    4  A    between atoms: C_8  and  C_9
REMARK    5  A    between atoms: C_13  and  N_14
REMARK    6  A    between atoms: C_19  and  C_20
REMARK    7  A    between atoms: C_20  and  N_21
REMARK    8  A    between atoms: C_30  and  C_31
REMARK                            x       y       z     vdW  Elec       q    Type
REMARK                         _______ _______ _______ _____ _____    ______ ____
ROOT
ATOM      1  N   UNL     1       1.446   7.765  20.338  0.00  0.00    +0.000 N 
ATOM      2  C   UNL     1       1.449   6.447  20.946  0.00  0.00    +0.000 C 
ATOM      3  C   UNL     1       2.231   5.611  20.006  0.00  0.00    +0.000 A 
ATOM      4  C   UNL     1       2.663   6.386  18.934  0.00  0.00    +0.000 A 
ATOM      5  C   UNL     1       3.420   5.843  17.915  0.00  0.00    +0.000 A 
ATOM      6  C   UNL     1       3.783   4.479  18.002  0.00  0.00    +0.000 A 
ATOM      7  C   UNL     1       3.345   3.711  19.111  0.00  0.00    +0.000 A 
ATOM      8  C   UNL     1       2.524   4.255  20.109  0.00  0.00    +0.000 A 
ATOM      9  C   UNL     1       2.157   7.769  19.132  0.00  0.00    +0.000 C 
ATOM     10  O   UNL     1       2.368   8.666  18.336  0.00  0.00    +0.000 OA
ENDROOT
BRANCH   1  15
ATOM     11  C   UNL     1      -0.652  10.871  20.587  0.00  0.00    +0.000 A 
ATOM     12  C   UNL     1      -0.709  11.010  21.981  0.00  0.00    +0.000 A 
ATOM     13  C   UNL     1      -0.093  10.084  22.838  0.00  0.00    +0.000 A 
ATOM     14  C   UNL     1       0.620   8.992  22.326  0.00  0.00    +0.000 A 
ATOM     15  C   UNL     1       0.716   8.814  20.951  0.00  0.00    +0.000 A 
ATOM     16  C   UNL     1       0.061   9.750  20.126  0.00  0.00    +0.000 A 
BRANCH  11  17
ATOM     17  C   UNL     1      -1.342  11.884  19.533  0.00  0.00    +0.000 C 
ATOM     18  C   UNL     1      -2.699  12.493  19.978  0.00  0.00    +0.000 C 
ATOM     19  O   UNL     1      -3.399  11.938  18.850  0.00  0.00    +0.000 OA
ATOM     20  C   UNL     1      -2.208  11.264  18.392  0.00  0.00    +0.000 C 
BRANCH  17  21
ATOM     21  C   UNL     1      -0.335  12.948  19.025  0.00  0.00    +0.000 C 
BRANCH  21  27
ATOM     22  C   UNL     1      -0.676  15.261  21.158  0.00  0.00    +0.000 C 
ATOM     23  N   UNL     1       0.475  14.418  20.959  0.00  0.00    +0.000 N 
ATOM     24  C   UNL     1       1.639  14.517  21.664  0.00  0.00    +0.000 A 
ATOM     25  N   UNL     1       2.493  13.632  21.221  0.00  0.00    +0.000 NA
ATOM     26  N   UNL     1       1.891  12.950  20.196  0.00  0.00    +0.000 NA
ATOM     27  C   UNL     1       0.662  13.407  20.048  0.00  0.00    +0.000 A 
ENDBRANCH  21  27
ENDBRANCH  17  21
ENDBRANCH  11  17
ENDBRANCH   1  15
BRANCH   8  28
ATOM     28  C   UNL     1       1.969   3.392  21.215  0.00  0.00    +0.000 C 
ATOM     29  F   UNL     1       0.612   3.297  21.212  0.00  0.00    +0.000 F 
ATOM     30  F   UNL     1       2.428   2.112  21.141  0.00  0.00    +0.000 F 
ATOM     31  F   UNL     1       2.303   3.844  22.454  0.00  0.00    +0.000 F 
ENDBRANCH   8  28
BRANCH   6  32
ATOM     32  C   UNL     1       4.664   3.820  16.950  0.00  0.00    +0.000 C 
BRANCH  32  33
ATOM     33  N   UNL     1       6.063   4.228  17.068  0.00  0.00    +0.000 NA
ATOM     34  C   UNL     1       6.399   4.680  18.432  0.00  0.00    +0.000 C 
ATOM     35  C   UNL     1       7.670   5.486  18.238  0.00  0.00    +0.000 C 
ATOM     36  C   UNL     1       7.313   6.325  17.027  0.00  0.00    +0.000 C 
ATOM     37  C   UNL     1       6.527   5.332  16.185  0.00  0.00    +0.000 C 
ATOM     38  C   UNL     1       7.306   4.726  14.994  0.00  0.00    +0.000 C 
ATOM     39  O   UNL     1       6.683   5.697  14.096  0.00  0.00    +0.000 OA
ATOM     40  C   UNL     1       5.604   5.861  15.071  0.00  0.00    +0.000 C 
ENDBRANCH  32  33
ENDBRANCH   6  32
TORSDOF 7
ENDMDL
MODEL 9
REMARK VINA RESULT:     -10.1      1.977      2.949
REMARK  Name = 
REMARK  8 active torsions:
REMARK  status: ('A' for Active; 'I' for Inactive)
REMARK    1  A    between atoms: C_1  and  N_2
REMARK    2  A    between atoms: C_6  and  C_7
REMARK    3  A    between atoms: C_7  and  C_8
REMARK    4  A    between atoms: C_8  and  C_9
REMARK    5  A    between atoms: C_13  and  N_14
REMARK    6  A    between atoms: C_19  and  C_20
REMARK    7  A    between atoms: C_20  and  N_21
REMARK    8  A    between atoms: C_30  and  C_31
REMARK                            x       y       z     vdW  Elec       q    Type
REMARK                         _______ _______ _______ _____ _____    ______ ____
ROOT
ATOM      1  N   UNL     1       1.541   7.631  20.294  0.00  0.00    +0.000 N 
ATOM      2  C   UNL     1       1.522   6.307  20.891  0.00  0.00    +0.000 C 
ATOM      3  C   UNL     1       2.303   5.470  19.951  0.00  0.00    +0.000 A 
ATOM      4  C   UNL     1       2.756   6.250  18.891  0.00  0.00    +0.000 A 
ATOM      5  C   UNL     1       3.516   5.706  17.874  0.00  0.00    +0.000 A 
ATOM      6  C   UNL     1       3.861   4.337  17.953  0.00  0.00    +0.000 A 
ATOM      7  C   UNL     1       3.403   3.565  19.050  0.00  0.00    +0.000 A 
ATOM      8  C   UNL     1       2.578   4.110  20.045  0.00  0.00    +0.000 A 
ATOM      9  C   UNL     1       2.265   7.637  19.096  0.00  0.00    +0.000 C 
ATOM     10  O   UNL     1       2.495   8.538  18.310  0.00  0.00    +0.000 OA
ENDROOT
BRANCH   1  15
ATOM     11  C   UNL     1      -0.439  10.812  20.557  0.00  0.00    +0.000 A 
ATOM     12  C   UNL     1      -0.578  10.893  21.950  0.00  0.00    +0.000 A 
ATOM     13  C   UNL     1      -0.055   9.906  22.799  0.00  0.00    +0.000 A 
ATOM     14  C   UNL     1       0.644   8.806  22.282  0.00  0.00    +0.000 A 
ATOM     15  C   UNL     1       0.818   8.683  20.909  0.00  0.00    +0.000 A 
ATOM     16  C   UNL     1       0.255   9.682  20.090  0.00  0.00    +0.000 A 
BRANCH  11  17
ATOM     17  C   UNL     1      -1.019  11.899  19.510  0.00  0.00    +0.000 C 
ATOM     18  C   UNL     1      -2.314  12.632  19.954  0.00  0.00    +0.000 C 
ATOM     19  O   UNL     1      -3.056  12.160  18.815  0.00  0.00    +0.000 OA
ATOM     20  C   UNL     1      -1.933  11.378  18.357  0.00  0.00    +0.000 C 
BRANCH  17  21
ATOM     21  C   UNL     1       0.090  12.866  19.021  0.00  0.00    +0.000 C 
BRANCH  21  27
ATOM     22  C   UNL     1      -0.386  15.767  20.191  0.00  0.00    +0.000 C 
ATOM     23  N   UNL     1       0.615  14.815  20.597  0.00  0.00    +0.000 N 
ATOM     24  C   UNL     1       1.556  15.043  21.558  0.00  0.00    +0.000 A 
ATOM     25  N   UNL     1       2.330  13.994  21.665  0.00  0.00    +0.000 NA
ATOM     26  N   UNL     1       1.905  13.067  20.751  0.00  0.00    +0.000 NA
ATOM     27  C   UNL     1       0.853  13.551  20.117  0.00  0.00    +0.000 A 
ENDBRANCH  21  27
ENDBRANCH  17  21
ENDBRANCH  11  17
ENDBRANCH   1  15
BRANCH   8  28
ATOM     28  C   UNL     1       2.001   3.244  21.138  0.00  0.00    +0.000 C 
ATOM     29  F   UNL     1       2.306   3.667  22.394  0.00  0.00    +0.000 F 
ATOM     30  F   UNL     1       0.641   3.198  21.085  0.00  0.00    +0.000 F 
ATOM     31  F   UNL     1       2.428   1.955  21.070  0.00  0.00    +0.000 F 
ENDBRANCH   8  28
BRANCH   6  32
ATOM     32  C   UNL     1       4.745   3.676  16.904  0.00  0.00    +0.000 C 
BRANCH  32  33
ATOM     33  N   UNL     1       5.367   4.654  16.011  0.00  0.00    +0.000 NA
ATOM     34  C   UNL     1       5.371   4.203  14.606  0.00  0.00    +0.000 C 
ATOM     35  C   UNL     1       6.439   5.064  13.958  0.00  0.00    +0.000 C 
ATOM     36  C   UNL     1       7.555   4.981  14.980  0.00  0.00    +0.000 C 
ATOM     37  C   UNL     1       6.780   5.026  16.288  0.00  0.00    +0.000 C 
ATOM     38  C   UNL     1       6.804   6.392  17.015  0.00  0.00    +0.000 C 
ATOM     39  O   UNL     1       7.876   5.908  17.882  0.00  0.00    +0.000 OA
ATOM     40  C   UNL     1       7.462   4.537  17.580  0.00  0.00    +0.000 C 
ENDBRANCH  32  33
ENDBRANCH   6  32
TORSDOF 7
ENDMDL
