MODEL 1
REMARK VINA RESULT:     -10.1      0.000      0.000
REMARK  Name = 
REMARK  8 active torsions:
REMARK  status: ('A' for Active; 'I' for Inactive)
REMARK    1  A    between atoms: C_1  and  N_2
REMARK    2  A    between atoms: C_6  and  C_7
REMARK    3  A    between atoms: C_7  and  C_8
REMARK    4  A    between atoms: C_8  and  C_9
REMARK    5  A    between atoms: C_13  and  N_14
REMARK    6  A    between atoms: C_19  and  C_20
REMARK    7  A    between atoms: C_20  and  N_21
REMARK    8  A    between atoms: C_29  and  C_30
REMARK                            x       y       z     vdW  Elec       q    Type
REMARK                         _______ _______ _______ _____ _____    ______ ____
ROOT
ATOM      1  N   UNL     1       1.154   8.597  20.340  0.00  0.00    +0.000 N 
ATOM      2  C   UNL     1       1.328   7.239  20.813  0.00  0.00    +0.000 C 
ATOM      3  C   UNL     1       2.065   6.566  19.728  0.00  0.00    +0.000 A 
ATOM      4  C   UNL     1       2.448   7.500  18.767  0.00  0.00    +0.000 A 
ATOM      5  C   UNL     1       3.238   7.109  17.698  0.00  0.00    +0.000 A 
ATOM      6  C   UNL     1       3.617   5.745  17.617  0.00  0.00    +0.000 A 
ATOM      7  C   UNL     1       3.160   4.823  18.588  0.00  0.00    +0.000 A 
ATOM      8  C   UNL     1       2.353   5.211  19.653  0.00  0.00    +0.000 A 
ATOM      9  C   UNL     1       1.830   8.805  19.127  0.00  0.00    +0.000 C 
ATOM     10  O   UNL     1       1.906   9.812  18.435  0.00  0.00    +0.000 OA
ENDROOT
BRANCH   1  15
ATOM     11  C   UNL     1      -1.198  11.427  20.981  0.00  0.00    +0.000 A 
ATOM     12  C   UNL     1      -1.351  11.312  22.368  0.00  0.00    +0.000 A 
ATOM     13  C   UNL     1      -0.707  10.299  23.096  0.00  0.00    +0.000 A 
ATOM     14  C   UNL     1       0.130   9.369  22.461  0.00  0.00    +0.000 A 
ATOM     15  C   UNL     1       0.297   9.438  21.086  0.00  0.00    +0.000 A 
ATOM     16  C   UNL     1      -0.400  10.447  20.389  0.00  0.00    +0.000 A 
BRANCH  11  17
ATOM     17  C   UNL     1      -1.869  12.561  20.063  0.00  0.00    +0.000 C 
ATOM     18  C   UNL     1      -0.894  13.191  19.030  0.00  0.00    +0.000 C 
ATOM     19  O   UNL     1      -0.992  14.500  19.621  0.00  0.00    +0.000 OA
ATOM     20  C   UNL     1      -1.924  14.026  20.614  0.00  0.00    +0.000 C 
BRANCH  17  21
ATOM     21  C   UNL     1      -3.221  12.072  19.466  0.00  0.00    +0.000 C 
BRANCH  21  27
ATOM     22  C   UNL     1      -5.481  12.229  17.084  0.00  0.00    +0.000 C 
ATOM     23  N   UNL     1      -4.165  11.649  17.071  0.00  0.00    +0.000 N 
ATOM     24  C   UNL     1      -3.672  10.984  15.984  0.00  0.00    +0.000 A 
ATOM     25  N   UNL     1      -2.491  10.498  16.258  0.00  0.00    +0.000 NA
ATOM     26  N   UNL     1      -2.184  10.865  17.543  0.00  0.00    +0.000 NA
ATOM     27  C   UNL     1      -3.184  11.576  18.045  0.00  0.00    +0.000 A 
ENDBRANCH  21  27
ENDBRANCH  17  21
ENDBRANCH  11  17
ENDBRANCH   1  15
BRANCH   8  28
ATOM     28  C   UNL     1       1.806   4.202  20.630  0.00  0.00    +0.000 C 
ATOM     29  F   UNL     1       2.247   4.373  21.909  0.00  0.00    +0.000 F 
ATOM     30  F   UNL     1       0.450   4.248  20.699  0.00  0.00    +0.000 F 
ATOM     31  F   UNL     1       2.134   2.924  20.305  0.00  0.00    +0.000 F 
ENDBRANCH   8  28
BRANCH   6  32
ATOM     32  C   UNL     1       4.530   5.226  16.522  0.00  0.00    +0.000 C 
BRANCH  32  33
ATOM     33  N   UNL     1       5.962   5.412  16.826  0.00  0.00    +0.000 NA
ATOM     34  C   UNL     1       6.331   6.857  16.876  0.00  0.00    +0.000 C 
ATOM     35  C   UNL     1       7.739   7.157  17.482  0.00  0.00    +0.000 C 
ATOM     36  C   UNL     1       7.780   6.428  18.777  0.00  0.00    +0.000 C 
ATOM     37  C   UNL     1       8.579   5.384  19.501  0.00  0.00    +0.000 C 
ATOM     38  C   UNL     1       7.763   4.968  18.324  0.00  0.00    +0.000 C 
ATOM     39  C   UNL     1       6.346   4.618  18.024  0.00  0.00    +0.000 C 
ENDBRANCH  32  33
ENDBRANCH   6  32
TORSDOF 7
ENDMDL
MODEL 2
REMARK VINA RESULT:      -9.9      1.770      2.306
REMARK  Name = 
REMARK  8 active torsions:
REMARK  status: ('A' for Active; 'I' for Inactive)
REMARK    1  A    between atoms: C_1  and  N_2
REMARK    2  A    between atoms: C_6  and  C_7
REMARK    3  A    between atoms: C_7  and  C_8
REMARK    4  A    between atoms: C_8  and  C_9
REMARK    5  A    between atoms: C_13  and  N_14
REMARK    6  A    between atoms: C_19  and  C_20
REMARK    7  A    between atoms: C_20  and  N_21
REMARK    8  A    between atoms: C_29  and  C_30
REMARK                            x       y       z     vdW  Elec       q    Type
REMARK                         _______ _______ _______ _____ _____    ______ ____
ROOT
ATOM      1  N   UNL     1       1.191   8.367  20.405  0.00  0.00    +0.000 N 
ATOM      2  C   UNL     1       1.314   6.998  20.860  0.00  0.00    +0.000 C 
ATOM      3  C   UNL     1       2.030   6.314  19.769  0.00  0.00    +0.000 A 
ATOM      4  C   UNL     1       2.451   7.245  18.823  0.00  0.00    +0.000 A 
ATOM      5  C   UNL     1       3.232   6.841  17.752  0.00  0.00    +0.000 A 
ATOM      6  C   UNL     1       3.561   5.465  17.654  0.00  0.00    +0.000 A 
ATOM      7  C   UNL     1       3.067   4.546  18.610  0.00  0.00    +0.000 A 
ATOM      8  C   UNL     1       2.269   4.950  19.677  0.00  0.00    +0.000 A 
ATOM      9  C   UNL     1       1.880   8.567  19.198  0.00  0.00    +0.000 C 
ATOM     10  O   UNL     1       1.995   9.580  18.520  0.00  0.00    +0.000 OA
ENDROOT
BRANCH   1  15
ATOM     11  C   UNL     1      -1.170  11.190  21.048  0.00  0.00    +0.000 A 
ATOM     12  C   UNL     1      -1.246  11.135  22.445  0.00  0.00    +0.000 A 
ATOM     13  C   UNL     1      -0.546  10.165  23.181  0.00  0.00    +0.000 A 
ATOM     14  C   UNL     1       0.271   9.220  22.543  0.00  0.00    +0.000 A 
ATOM     15  C   UNL     1       0.362   9.229  21.160  0.00  0.00    +0.000 A 
ATOM     16  C   UNL     1      -0.388  10.196  20.457  0.00  0.00    +0.000 A 
BRANCH  11  17
ATOM     17  C   UNL     1      -1.908  12.272  20.119  0.00  0.00    +0.000 C 
ATOM     18  C   UNL     1      -2.748  11.645  18.971  0.00  0.00    +0.000 C 
ATOM     19  O   UNL     1      -1.938  12.249  17.946  0.00  0.00    +0.000 OA
ATOM     20  C   UNL     1      -1.107  12.899  18.929  0.00  0.00    +0.000 C 
BRANCH  17  21
ATOM     21  C   UNL     1      -2.667  13.325  20.979  0.00  0.00    +0.000 C 
BRANCH  21  27
ATOM     22  C   UNL     1      -5.539  13.929  19.498  0.00  0.00    +0.000 C 
ATOM     23  N   UNL     1      -5.264  13.253  20.738  0.00  0.00    +0.000 N 
ATOM     24  C   UNL     1      -6.258  12.788  21.551  0.00  0.00    +0.000 A 
ATOM     25  N   UNL     1      -5.742  12.282  22.639  0.00  0.00    +0.000 NA
ATOM     26  N   UNL     1      -4.379  12.395  22.538  0.00  0.00    +0.000 NA
ATOM     27  C   UNL     1      -4.073  12.969  21.384  0.00  0.00    +0.000 A 
ENDBRANCH  21  27
ENDBRANCH  17  21
ENDBRANCH  11  17
ENDBRANCH   1  15
BRANCH   8  28
ATOM     28  C   UNL     1       1.682   3.948  20.638  0.00  0.00    +0.000 C 
ATOM     29  F   UNL     1       1.923   2.649  20.302  0.00  0.00    +0.000 F 
ATOM     30  F   UNL     1       2.179   4.101  21.894  0.00  0.00    +0.000 F 
ATOM     31  F   UNL     1       0.330   4.048  20.742  0.00  0.00    +0.000 F 
ENDBRANCH   8  28
BRANCH   6  32
ATOM     32  C   UNL     1       4.460   4.928  16.556  0.00  0.00    +0.000 C 
BRANCH  32  33
ATOM     33  N   UNL     1       5.892   5.177  16.806  0.00  0.00    +0.000 NA
ATOM     34  C   UNL     1       6.223   6.630  16.711  0.00  0.00    +0.000 C 
ATOM     35  C   UNL     1       7.635   7.022  17.251  0.00  0.00    +0.000 C 
ATOM     36  C   UNL     1       7.724   6.419  18.608  0.00  0.00    +0.000 C 
ATOM     37  C   UNL     1       8.567   5.470  19.407  0.00  0.00    +0.000 C 
ATOM     38  C   UNL     1       7.737   4.923  18.295  0.00  0.00    +0.000 C 
ATOM     39  C   UNL     1       6.324   4.510  18.064  0.00  0.00    +0.000 C 
ENDBRANCH  32  33
ENDBRANCH   6  32
TORSDOF 7
ENDMDL
MODEL 3
REMARK VINA RESULT:      -9.9      2.962      9.331
REMARK  Name = 
REMARK  8 active torsions:
REMARK  status: ('A' for Active; 'I' for Inactive)
REMARK    1  A    between atoms: C_1  and  N_2
REMARK    2  A    between atoms: C_6  and  C_7
REMARK    3  A    between atoms: C_7  and  C_8
REMARK    4  A    between atoms: C_8  and  C_9
REMARK    5  A    between atoms: C_13  and  N_14
REMARK    6  A    between atoms: C_19  and  C_20
REMARK    7  A    between atoms: C_20  and  N_21
REMARK    8  A    between atoms: C_29  and  C_30
REMARK                            x       y       z     vdW  Elec       q    Type
REMARK                         _______ _______ _______ _____ _____    ______ ____
ROOT
ATOM      1  N   UNL     1       2.402   7.381  19.268  0.00  0.00    +0.000 N 
ATOM      2  C   UNL     1       1.613   7.700  20.439  0.00  0.00    +0.000 C 
ATOM      3  C   UNL     1       1.091   9.053  20.171  0.00  0.00    +0.000 A 
ATOM      4  C   UNL     1       1.405   9.429  18.867  0.00  0.00    +0.000 A 
ATOM      5  C   UNL     1       0.931  10.629  18.359  0.00  0.00    +0.000 A 
ATOM      6  C   UNL     1       0.145  11.445  19.211  0.00  0.00    +0.000 A 
ATOM      7  C   UNL     1      -0.105  11.045  20.545  0.00  0.00    +0.000 A 
ATOM      8  C   UNL     1       0.386   9.849  21.061  0.00  0.00    +0.000 A 
ATOM      9  C   UNL     1       2.287   8.380  18.288  0.00  0.00    +0.000 C 
ATOM     10  O   UNL     1       2.806   8.456  17.182  0.00  0.00    +0.000 OA
ENDROOT
BRANCH   1  15
ATOM     11  C   UNL     1       5.447   5.264  18.820  0.00  0.00    +0.000 A 
ATOM     12  C   UNL     1       4.942   4.019  19.217  0.00  0.00    +0.000 A 
ATOM     13  C   UNL     1       3.616   3.869  19.652  0.00  0.00    +0.000 A 
ATOM     14  C   UNL     1       2.738   4.962  19.692  0.00  0.00    +0.000 A 
ATOM     15  C   UNL     1       3.201   6.216  19.324  0.00  0.00    +0.000 A 
ATOM     16  C   UNL     1       4.550   6.328  18.930  0.00  0.00    +0.000 A 
BRANCH  11  17
ATOM     17  C   UNL     1       6.935   5.535  18.284  0.00  0.00    +0.000 C 
ATOM     18  C   UNL     1       7.961   5.844  19.410  0.00  0.00    +0.000 C 
ATOM     19  O   UNL     1       8.219   7.172  18.915  0.00  0.00    +0.000 OA
ATOM     20  C   UNL     1       7.304   6.983  17.816  0.00  0.00    +0.000 C 
BRANCH  17  21
ATOM     21  C   UNL     1       7.382   4.428  17.284  0.00  0.00    +0.000 C 
BRANCH  21  27
ATOM     22  C   UNL     1       4.595   3.552  15.776  0.00  0.00    +0.000 C 
ATOM     23  N   UNL     1       5.763   4.208  15.250  0.00  0.00    +0.000 N 
ATOM     24  C   UNL     1       5.888   4.524  13.927  0.00  0.00    +0.000 A 
ATOM     25  N   UNL     1       7.065   5.045  13.704  0.00  0.00    +0.000 NA
ATOM     26  N   UNL     1       7.726   5.095  14.904  0.00  0.00    +0.000 NA
ATOM     27  C   UNL     1       6.944   4.604  15.854  0.00  0.00    +0.000 A 
ENDBRANCH  21  27
ENDBRANCH  17  21
ENDBRANCH  11  17
ENDBRANCH   1  15
BRANCH   8  28
ATOM     28  C   UNL     1       0.182   9.479  22.508  0.00  0.00    +0.000 C 
ATOM     29  F   UNL     1       1.333   9.158  23.166  0.00  0.00    +0.000 F 
ATOM     30  F   UNL     1      -0.376  10.496  23.216  0.00  0.00    +0.000 F 
ATOM     31  F   UNL     1      -0.635   8.404  22.666  0.00  0.00    +0.000 F 
ENDBRANCH   8  28
BRANCH   6  32
ATOM     32  C   UNL     1      -0.474  12.746  18.735  0.00  0.00    +0.000 C 
BRANCH  32  33
ATOM     33  N   UNL     1       0.191  13.940  19.288  0.00  0.00    +0.000 NA
ATOM     34  C   UNL     1       1.500  14.201  18.619  0.00  0.00    +0.000 C 
ATOM     35  C   UNL     1       2.128  15.599  18.923  0.00  0.00    +0.000 C 
ATOM     36  C   UNL     1       1.050  16.587  18.656  0.00  0.00    +0.000 C 
ATOM     37  C   UNL     1       0.280  17.681  19.335  0.00  0.00    +0.000 C 
ATOM     38  C   UNL     1       0.044  16.272  19.763  0.00  0.00    +0.000 C 
ATOM     39  C   UNL     1      -0.749  15.093  19.313  0.00  0.00    +0.000 C 
ENDBRANCH  32  33
ENDBRANCH   6  32
TORSDOF 7
ENDMDL
MODEL 4
REMARK VINA RESULT:      -9.8      2.885      8.998
REMARK  Name = 
REMARK  8 active torsions:
REMARK  status: ('A' for Active; 'I' for Inactive)
REMARK    1  A    between atoms: C_1  and  N_2
REMARK    2  A    between atoms: C_6  and  C_7
REMARK    3  A    between atoms: C_7  and  C_8
REMARK    4  A    between atoms: C_8  and  C_9
REMARK    5  A    between atoms: C_13  and  N_14
REMARK    6  A    between atoms: C_19  and  C_20
REMARK    7  A    between atoms: C_20  and  N_21
REMARK    8  A    between atoms: C_29  and  C_30
REMARK                            x       y       z     vdW  Elec       q    Type
REMARK                         _______ _______ _______ _____ _____    ______ ____
ROOT
ATOM      1  N   UNL     1       2.390   7.288  19.234  0.00  0.00    +0.000 N 
ATOM      2  C   UNL     1       1.611   7.631  20.405  0.00  0.00    +0.000 C 
ATOM      3  C   UNL     1       1.046   8.956  20.093  0.00  0.00    +0.000 A 
ATOM      4  C   UNL     1       1.327   9.289  18.770  0.00  0.00    +0.000 A 
ATOM      5  C   UNL     1       0.810  10.453  18.224  0.00  0.00    +0.000 A 
ATOM      6  C   UNL     1       0.015  11.280  19.057  0.00  0.00    +0.000 A 
ATOM      7  C   UNL     1      -0.201  10.927  20.410  0.00  0.00    +0.000 A 
ATOM      8  C   UNL     1       0.333   9.766  20.964  0.00  0.00    +0.000 A 
ATOM      9  C   UNL     1       2.230   8.243  18.218  0.00  0.00    +0.000 C 
ATOM     10  O   UNL     1       2.728   8.289  17.100  0.00  0.00    +0.000 OA
ENDROOT
BRANCH   1  15
ATOM     11  C   UNL     1       5.491   5.245  18.827  0.00  0.00    +0.000 A 
ATOM     12  C   UNL     1       5.027   4.001  19.271  0.00  0.00    +0.000 A 
ATOM     13  C   UNL     1       3.710   3.828  19.725  0.00  0.00    +0.000 A 
ATOM     14  C   UNL     1       2.800   4.895  19.736  0.00  0.00    +0.000 A 
ATOM     15  C   UNL     1       3.223   6.148  19.321  0.00  0.00    +0.000 A 
ATOM     16  C   UNL     1       4.565   6.287  18.910  0.00  0.00    +0.000 A 
BRANCH  11  17
ATOM     17  C   UNL     1       6.966   5.541  18.268  0.00  0.00    +0.000 C 
ATOM     18  C   UNL     1       8.004   5.870  19.377  0.00  0.00    +0.000 C 
ATOM     19  O   UNL     1       8.231   7.201  18.877  0.00  0.00    +0.000 OA
ATOM     20  C   UNL     1       7.303   6.995  17.792  0.00  0.00    +0.000 C 
BRANCH  17  21
ATOM     21  C   UNL     1       7.416   4.440  17.263  0.00  0.00    +0.000 C 
BRANCH  21  27
ATOM     22  C   UNL     1       4.594   3.567  15.821  0.00  0.00    +0.000 C 
ATOM     23  N   UNL     1       5.754   4.209  15.265  0.00  0.00    +0.000 N 
ATOM     24  C   UNL     1       5.854   4.511  13.936  0.00  0.00    +0.000 A 
ATOM     25  N   UNL     1       7.029   5.021  13.683  0.00  0.00    +0.000 NA
ATOM     26  N   UNL     1       7.716   5.080  14.869  0.00  0.00    +0.000 NA
ATOM     27  C   UNL     1       6.951   4.604  15.840  0.00  0.00    +0.000 A 
ENDBRANCH  21  27
ENDBRANCH  17  21
ENDBRANCH  11  17
ENDBRANCH   1  15
BRANCH   8  28
ATOM     28  C   UNL     1       0.164   9.448  22.428  0.00  0.00    +0.000 C 
ATOM     29  F   UNL     1      -0.414  10.450  23.150  0.00  0.00    +0.000 F 
ATOM     30  F   UNL     1      -0.621   8.356  22.621  0.00  0.00    +0.000 F 
ATOM     31  F   UNL     1       1.345   9.190  23.050  0.00  0.00    +0.000 F 
ENDBRANCH   8  28
BRANCH   6  32
ATOM     32  C   UNL     1      -0.649  12.543  18.541  0.00  0.00    +0.000 C 
BRANCH  32  33
ATOM     33  N   UNL     1       0.169  13.753  18.747  0.00  0.00    +0.000 NA
ATOM     34  C   UNL     1       0.024  14.287  20.133  0.00  0.00    +0.000 C 
ATOM     35  C   UNL     1       1.070  15.375  20.534  0.00  0.00    +0.000 C 
ATOM     36  C   UNL     1       2.397  14.796  20.193  0.00  0.00    +0.000 C 
ATOM     37  C   UNL     1       3.613  15.082  19.363  0.00  0.00    +0.000 C 
ATOM     38  C   UNL     1       2.340  14.736  18.667  0.00  0.00    +0.000 C 
ATOM     39  C   UNL     1       1.570  13.513  18.304  0.00  0.00    +0.000 C 
ENDBRANCH  32  33
ENDBRANCH   6  32
TORSDOF 7
ENDMDL
MODEL 5
REMARK VINA RESULT:      -9.8      1.705      2.715
REMARK  Name = 
REMARK  8 active torsions:
REMARK  status: ('A' for Active; 'I' for Inactive)
REMARK    1  A    between atoms: C_1  and  N_2
REMARK    2  A    between atoms: C_6  and  C_7
REMARK    3  A    between atoms: C_7  and  C_8
REMARK    4  A    between atoms: C_8  and  C_9
REMARK    5  A    between atoms: C_13  and  N_14
REMARK    6  A    between atoms: C_19  and  C_20
REMARK    7  A    between atoms: C_20  and  N_21
REMARK    8  A    between atoms: C_29  and  C_30
REMARK                            x       y       z     vdW  Elec       q    Type
REMARK                         _______ _______ _______ _____ _____    ______ ____
ROOT
ATOM      1  N   UNL     1       1.167   8.591  20.413  0.00  0.00    +0.000 N 
ATOM      2  C   UNL     1       1.338   7.231  20.878  0.00  0.00    +0.000 C 
ATOM      3  C   UNL     1       2.060   6.559  19.783  0.00  0.00    +0.000 A 
ATOM      4  C   UNL     1       2.439   7.495  18.823  0.00  0.00    +0.000 A 
ATOM      5  C   UNL     1       3.217   7.105  17.744  0.00  0.00    +0.000 A 
ATOM      6  C   UNL     1       3.588   5.739  17.653  0.00  0.00    +0.000 A 
ATOM      7  C   UNL     1       3.135   4.814  18.624  0.00  0.00    +0.000 A 
ATOM      8  C   UNL     1       2.340   5.203  19.699  0.00  0.00    +0.000 A 
ATOM      9  C   UNL     1       1.832   8.801  19.195  0.00  0.00    +0.000 C 
ATOM     10  O   UNL     1       1.907   9.811  18.507  0.00  0.00    +0.000 OA
ENDROOT
BRANCH   1  15
ATOM     11  C   UNL     1      -1.246  11.367  21.069  0.00  0.00    +0.000 A 
ATOM     12  C   UNL     1      -1.321  11.303  22.466  0.00  0.00    +0.000 A 
ATOM     13  C   UNL     1      -0.604  10.342  23.197  0.00  0.00    +0.000 A 
ATOM     14  C   UNL     1       0.230   9.416  22.554  0.00  0.00    +0.000 A 
ATOM     15  C   UNL     1       0.322   9.433  21.171  0.00  0.00    +0.000 A 
ATOM     16  C   UNL     1      -0.446  10.390  20.474  0.00  0.00    +0.000 A 
BRANCH  11  17
ATOM     17  C   UNL     1      -2.003  12.439  20.146  0.00  0.00    +0.000 C 
ATOM     18  C   UNL     1      -3.500  12.640  20.516  0.00  0.00    +0.000 C 
ATOM     19  O   UNL     1      -3.959  12.157  19.240  0.00  0.00    +0.000 OA
ATOM     20  C   UNL     1      -2.606  11.954  18.785  0.00  0.00    +0.000 C 
BRANCH  17  21
ATOM     21  C   UNL     1      -1.181  13.756  20.026  0.00  0.00    +0.000 C 
BRANCH  21  27
ATOM     22  C   UNL     1       1.519  14.596  21.702  0.00  0.00    +0.000 C 
ATOM     23  N   UNL     1       1.389  13.984  20.406  0.00  0.00    +0.000 N 
ATOM     24  C   UNL     1       2.472  13.704  19.621  0.00  0.00    +0.000 A 
ATOM     25  N   UNL     1       2.075  13.221  18.474  0.00  0.00    +0.000 NA
ATOM     26  N   UNL     1       0.706  13.159  18.506  0.00  0.00    +0.000 NA
ATOM     27  C   UNL     1       0.276  13.605  19.677  0.00  0.00    +0.000 A 
ENDBRANCH  21  27
ENDBRANCH  17  21
ENDBRANCH  11  17
ENDBRANCH   1  15
BRANCH   8  28
ATOM     28  C   UNL     1       1.797   4.192  20.676  0.00  0.00    +0.000 C 
ATOM     29  F   UNL     1       2.246   4.358  21.953  0.00  0.00    +0.000 F 
ATOM     30  F   UNL     1       0.441   4.240  20.754  0.00  0.00    +0.000 F 
ATOM     31  F   UNL     1       2.120   2.914  20.345  0.00  0.00    +0.000 F 
ENDBRANCH   8  28
BRANCH   6  32
ATOM     32  C   UNL     1       4.488   5.220  16.548  0.00  0.00    +0.000 C 
BRANCH  32  33
ATOM     33  N   UNL     1       5.923   5.407  16.832  0.00  0.00    +0.000 NA
ATOM     34  C   UNL     1       6.286   6.853  16.903  0.00  0.00    +0.000 C 
ATOM     35  C   UNL     1       7.701   7.150  17.492  0.00  0.00    +0.000 C 
ATOM     36  C   UNL     1       7.765   6.398  18.774  0.00  0.00    +0.000 C 
ATOM     37  C   UNL     1       8.580   5.347  19.467  0.00  0.00    +0.000 C 
ATOM     38  C   UNL     1       7.748   4.946  18.296  0.00  0.00    +0.000 C 
ATOM     39  C   UNL     1       6.328   4.594  18.011  0.00  0.00    +0.000 C 
ENDBRANCH  32  33
ENDBRANCH   6  32
TORSDOF 7
ENDMDL
MODEL 6
REMARK VINA RESULT:      -9.8      2.526      9.417
REMARK  Name = 
REMARK  8 active torsions:
REMARK  status: ('A' for Active; 'I' for Inactive)
REMARK    1  A    between atoms: C_1  and  N_2
REMARK    2  A    between atoms: C_6  and  C_7
REMARK    3  A    between atoms: C_7  and  C_8
REMARK    4  A    between atoms: C_8  and  C_9
REMARK    5  A    between atoms: C_13  and  N_14
REMARK    6  A    between atoms: C_19  and  C_20
REMARK    7  A    between atoms: C_20  and  N_21
REMARK    8  A    between atoms: C_29  and  C_30
REMARK                            x       y       z     vdW  Elec       q    Type
REMARK                         _______ _______ _______ _____ _____    ______ ____
ROOT
ATOM      1  N   UNL     1       2.157   7.398  19.448  0.00  0.00    +0.000 N 
ATOM      2  C   UNL     1       1.383   7.718  20.630  0.00  0.00    +0.000 C 
ATOM      3  C   UNL     1       0.816   9.048  20.345  0.00  0.00    +0.000 A 
ATOM      4  C   UNL     1       1.092   9.408  19.028  0.00  0.00    +0.000 A 
ATOM      5  C   UNL     1       0.573  10.582  18.507  0.00  0.00    +0.000 A 
ATOM      6  C   UNL     1      -0.219  11.392  19.359  0.00  0.00    +0.000 A 
ATOM      7  C   UNL     1      -0.429  11.013  20.706  0.00  0.00    +0.000 A 
ATOM      8  C   UNL     1       0.106   9.842  21.235  0.00  0.00    +0.000 A 
ATOM      9  C   UNL     1       1.992   8.372  18.452  0.00  0.00    +0.000 C 
ATOM     10  O   UNL     1       2.487   8.441  17.334  0.00  0.00    +0.000 OA
ENDROOT
BRANCH   1  15
ATOM     11  C   UNL     1       5.218   5.331  18.892  0.00  0.00    +0.000 A 
ATOM     12  C   UNL     1       4.781   4.100  19.397  0.00  0.00    +0.000 A 
ATOM     13  C   UNL     1       3.495   3.945  19.941  0.00  0.00    +0.000 A 
ATOM     14  C   UNL     1       2.592   5.017  19.984  0.00  0.00    +0.000 A 
ATOM     15  C   UNL     1       2.990   6.257  19.510  0.00  0.00    +0.000 A 
ATOM     16  C   UNL     1       4.303   6.378  19.009  0.00  0.00    +0.000 A 
BRANCH  11  17
ATOM     17  C   UNL     1       6.655   5.605  18.230  0.00  0.00    +0.000 C 
ATOM     18  C   UNL     1       7.567   4.349  18.167  0.00  0.00    +0.000 C 
ATOM     19  O   UNL     1       8.558   4.930  19.034  0.00  0.00    +0.000 OA
ATOM     20  C   UNL     1       7.802   6.154  19.144  0.00  0.00    +0.000 C 
BRANCH  17  21
ATOM     21  C   UNL     1       6.514   6.374  16.883  0.00  0.00    +0.000 C 
BRANCH  21  27
ATOM     22  C   UNL     1       4.388   4.078  15.874  0.00  0.00    +0.000 C 
ATOM     23  N   UNL     1       5.589   4.564  15.248  0.00  0.00    +0.000 N 
ATOM     24  C   UNL     1       6.063   4.043  14.078  0.00  0.00    +0.000 A 
ATOM     25  N   UNL     1       7.197   4.611  13.765  0.00  0.00    +0.000 NA
ATOM     26  N   UNL     1       7.471   5.541  14.734  0.00  0.00    +0.000 NA
ATOM     27  C   UNL     1       6.498   5.535  15.633  0.00  0.00    +0.000 A 
ENDBRANCH  21  27
ENDBRANCH  17  21
ENDBRANCH  11  17
ENDBRANCH   1  15
BRANCH   8  28
ATOM     28  C   UNL     1      -0.057   9.495  22.692  0.00  0.00    +0.000 C 
ATOM     29  F   UNL     1       1.118   9.244  23.338  0.00  0.00    +0.000 F 
ATOM     30  F   UNL     1      -0.651  10.501  23.388  0.00  0.00    +0.000 F 
ATOM     31  F   UNL     1      -0.819   8.387  22.888  0.00  0.00    +0.000 F 
ENDBRANCH   8  28
BRANCH   6  32
ATOM     32  C   UNL     1      -0.885  12.665  18.870  0.00  0.00    +0.000 C 
BRANCH  32  33
ATOM     33  N   UNL     1      -2.181  12.424  18.209  0.00  0.00    +0.000 NA
ATOM     34  C   UNL     1      -2.070  11.386  17.142  0.00  0.00    +0.000 C 
ATOM     35  C   UNL     1      -3.433  10.851  16.599  0.00  0.00    +0.000 C 
ATOM     36  C   UNL     1      -4.219  10.468  17.801  0.00  0.00    +0.000 C 
ATOM     37  C   UNL     1      -5.524  10.762  18.482  0.00  0.00    +0.000 C 
ATOM     38  C   UNL     1      -4.475  11.822  18.463  0.00  0.00    +0.000 C 
ATOM     39  C   UNL     1      -3.243  12.179  19.222  0.00  0.00    +0.000 C 
ENDBRANCH  32  33
ENDBRANCH   6  32
TORSDOF 7
ENDMDL
MODEL 7
REMARK VINA RESULT:      -9.6      1.469      1.848
REMARK  Name = 
REMARK  8 active torsions:
REMARK  status: ('A' for Active; 'I' for Inactive)
REMARK    1  A    between atoms: C_1  and  N_2
REMARK    2  A    between atoms: C_6  and  C_7
REMARK    3  A    between atoms: C_7  and  C_8
REMARK    4  A    between atoms: C_8  and  C_9
REMARK    5  A    between atoms: C_13  and  N_14
REMARK    6  A    between atoms: C_19  and  C_20
REMARK    7  A    between atoms: C_20  and  N_21
REMARK    8  A    between atoms: C_29  and  C_30
REMARK                            x       y       z     vdW  Elec       q    Type
REMARK                         _______ _______ _______ _____ _____    ______ ____
ROOT
ATOM      1  N   UNL     1       1.095   8.825  20.462  0.00  0.00    +0.000 N 
ATOM      2  C   UNL     1       1.337   7.465  20.897  0.00  0.00    +0.000 C 
ATOM      3  C   UNL     1       2.068   6.848  19.776  0.00  0.00    +0.000 A 
ATOM      4  C   UNL     1       2.386   7.818  18.828  0.00  0.00    +0.000 A 
ATOM      5  C   UNL     1       3.161   7.485  17.728  0.00  0.00    +0.000 A 
ATOM      6  C   UNL     1       3.592   6.140  17.604  0.00  0.00    +0.000 A 
ATOM      7  C   UNL     1       3.200   5.177  18.564  0.00  0.00    +0.000 A 
ATOM      8  C   UNL     1       2.408   5.508  19.660  0.00  0.00    +0.000 A 
ATOM      9  C   UNL     1       1.727   9.088  19.236  0.00  0.00    +0.000 C 
ATOM     10  O   UNL     1       1.743  10.113  18.567  0.00  0.00    +0.000 OA
ENDROOT
BRANCH   1  15
ATOM     11  C   UNL     1      -1.259  11.612  21.264  0.00  0.00    +0.000 A 
ATOM     12  C   UNL     1      -1.440  11.395  22.636  0.00  0.00    +0.000 A 
ATOM     13  C   UNL     1      -0.814  10.328  23.299  0.00  0.00    +0.000 A 
ATOM     14  C   UNL     1       0.032   9.444  22.614  0.00  0.00    +0.000 A 
ATOM     15  C   UNL     1       0.226   9.613  21.252  0.00  0.00    +0.000 A 
ATOM     16  C   UNL     1      -0.453  10.674  20.618  0.00  0.00    +0.000 A 
BRANCH  11  17
ATOM     17  C   UNL     1      -1.907  12.814  20.421  0.00  0.00    +0.000 C 
ATOM     18  C   UNL     1      -0.873  13.634  19.599  0.00  0.00    +0.000 C 
ATOM     19  O   UNL     1      -1.135  14.844  20.331  0.00  0.00    +0.000 OA
ATOM     20  C   UNL     1      -2.134  14.188  21.138  0.00  0.00    +0.000 C 
BRANCH  17  21
ATOM     21  C   UNL     1      -3.143  12.328  19.609  0.00  0.00    +0.000 C 
BRANCH  21  27
ATOM     22  C   UNL     1      -6.167  12.853  18.430  0.00  0.00    +0.000 C 
ATOM     23  N   UNL     1      -5.729  12.628  19.782  0.00  0.00    +0.000 N 
ATOM     24  C   UNL     1      -6.589  12.665  20.843  0.00  0.00    +0.000 A 
ATOM     25  N   UNL     1      -5.928  12.500  21.957  0.00  0.00    +0.000 NA
ATOM     26  N   UNL     1      -4.607  12.329  21.630  0.00  0.00    +0.000 NA
ATOM     27  C   UNL     1      -4.472  12.391  20.313  0.00  0.00    +0.000 A 
ENDBRANCH  21  27
ENDBRANCH  17  21
ENDBRANCH  11  17
ENDBRANCH   1  15
BRANCH   8  28
ATOM     28  C   UNL     1       1.931   4.455  20.627  0.00  0.00    +0.000 C 
ATOM     29  F   UNL     1       2.386   4.625  21.902  0.00  0.00    +0.000 F 
ATOM     30  F   UNL     1       0.575   4.431  20.721  0.00  0.00    +0.000 F 
ATOM     31  F   UNL     1       2.316   3.201  20.272  0.00  0.00    +0.000 F 
ENDBRANCH   8  28
BRANCH   6  32
ATOM     32  C   UNL     1       4.494   5.684  16.472  0.00  0.00    +0.000 C 
BRANCH  32  33
ATOM     33  N   UNL     1       5.928   5.762  16.807  0.00  0.00    +0.000 NA
ATOM     34  C   UNL     1       6.355   7.167  17.074  0.00  0.00    +0.000 C 
ATOM     35  C   UNL     1       7.767   7.315  17.725  0.00  0.00    +0.000 C 
ATOM     36  C   UNL     1       7.764   6.400  18.897  0.00  0.00    +0.000 C 
ATOM     37  C   UNL     1       8.512   5.229  19.461  0.00  0.00    +0.000 C 
ATOM     38  C   UNL     1       7.693   5.026  18.232  0.00  0.00    +0.000 C 
ATOM     39  C   UNL     1       6.266   4.784  17.876  0.00  0.00    +0.000 C 
ENDBRANCH  32  33
ENDBRANCH   6  32
TORSDOF 7
ENDMDL
MODEL 8
REMARK VINA RESULT:      -9.6      2.557      9.519
REMARK  Name = 
REMARK  8 active torsions:
REMARK  status: ('A' for Active; 'I' for Inactive)
REMARK    1  A    between atoms: C_1  and  N_2
REMARK    2  A    between atoms: C_6  and  C_7
REMARK    3  A    between atoms: C_7  and  C_8
REMARK    4  A    between atoms: C_8  and  C_9
REMARK    5  A    between atoms: C_13  and  N_14
REMARK    6  A    between atoms: C_19  and  C_20
REMARK    7  A    between atoms: C_20  and  N_21
REMARK    8  A    between atoms: C_29  and  C_30
REMARK                            x       y       z     vdW  Elec       q    Type
REMARK                         _______ _______ _______ _____ _____    ______ ____
ROOT
ATOM      1  N   UNL     1       2.093   7.439  19.415  0.00  0.00    +0.000 N 
ATOM      2  C   UNL     1       1.341   7.734  20.617  0.00  0.00    +0.000 C 
ATOM      3  C   UNL     1       0.776   9.073  20.374  0.00  0.00    +0.000 A 
ATOM      4  C   UNL     1       1.032   9.464  19.062  0.00  0.00    +0.000 A 
ATOM      5  C   UNL     1       0.510  10.653  18.578  0.00  0.00    +0.000 A 
ATOM      6  C   UNL     1      -0.264  11.445  19.463  0.00  0.00    +0.000 A 
ATOM      7  C   UNL     1      -0.454  11.034  20.803  0.00  0.00    +0.000 A 
ATOM      8  C   UNL     1       0.085   9.848  21.295  0.00  0.00    +0.000 A 
ATOM      9  C   UNL     1       1.918   8.439  18.446  0.00  0.00    +0.000 C 
ATOM     10  O   UNL     1       2.394   8.532  17.321  0.00  0.00    +0.000 OA
ENDROOT
BRANCH   1  15
ATOM     11  C   UNL     1       5.023   5.288  18.551  0.00  0.00    +0.000 A 
ATOM     12  C   UNL     1       4.666   4.107  19.214  0.00  0.00    +0.000 A 
ATOM     13  C   UNL     1       3.482   4.014  19.962  0.00  0.00    +0.000 A 
ATOM     14  C   UNL     1       2.600   5.100  20.062  0.00  0.00    +0.000 A 
ATOM     15  C   UNL     1       2.922   6.294  19.435  0.00  0.00    +0.000 A 
ATOM     16  C   UNL     1       4.140   6.355  18.726  0.00  0.00    +0.000 A 
BRANCH  11  17
ATOM     17  C   UNL     1       6.338   5.487  17.652  0.00  0.00    +0.000 C 
ATOM     18  C   UNL     1       7.626   5.761  18.477  0.00  0.00    +0.000 C 
ATOM     19  O   UNL     1       7.805   7.071  17.908  0.00  0.00    +0.000 OA
ATOM     20  C   UNL     1       6.636   6.914  17.078  0.00  0.00    +0.000 C 
BRANCH  17  21
ATOM     21  C   UNL     1       6.472   4.353  16.594  0.00  0.00    +0.000 C 
BRANCH  21  27
ATOM     22  C   UNL     1       5.248   3.614  13.634  0.00  0.00    +0.000 C 
ATOM     23  N   UNL     1       6.380   4.428  13.988  0.00  0.00    +0.000 N 
ATOM     24  C   UNL     1       7.190   4.999  13.048  0.00  0.00    +0.000 A 
ATOM     25  N   UNL     1       8.178   5.623  13.632  0.00  0.00    +0.000 NA
ATOM     26  N   UNL     1       8.010   5.482  14.986  0.00  0.00    +0.000 NA
ATOM     27  C   UNL     1       6.916   4.772  15.218  0.00  0.00    +0.000 A 
ENDBRANCH  21  27
ENDBRANCH  17  21
ENDBRANCH  11  17
ENDBRANCH   1  15
BRANCH   8  28
ATOM     28  C   UNL     1      -0.056   9.467  22.746  0.00  0.00    +0.000 C 
ATOM     29  F   UNL     1      -0.751   8.311  22.952  0.00  0.00    +0.000 F 
ATOM     30  F   UNL     1       1.153   9.279  23.339  0.00  0.00    +0.000 F 
ATOM     31  F   UNL     1      -0.703  10.411  23.478  0.00  0.00    +0.000 F 
ENDBRANCH   8  28
BRANCH   6  32
ATOM     32  C   UNL     1      -0.932  12.732  19.017  0.00  0.00    +0.000 C 
BRANCH  32  33
ATOM     33  N   UNL     1      -2.222  12.510  18.336  0.00  0.00    +0.000 NA
ATOM     34  C   UNL     1      -2.093  11.528  17.220  0.00  0.00    +0.000 C 
ATOM     35  C   UNL     1      -3.447  11.005  16.642  0.00  0.00    +0.000 C 
ATOM     36  C   UNL     1      -4.236  10.556  17.819  0.00  0.00    +0.000 C 
ATOM     37  C   UNL     1      -5.547  10.802  18.504  0.00  0.00    +0.000 C 
ATOM     38  C   UNL     1      -4.510  11.873  18.545  0.00  0.00    +0.000 C 
ATOM     39  C   UNL     1      -3.287  12.205  19.329  0.00  0.00    +0.000 C 
ENDBRANCH  32  33
ENDBRANCH   6  32
TORSDOF 7
ENDMDL
MODEL 9
REMARK VINA RESULT:      -9.6      2.081      3.275
REMARK  Name = 
REMARK  8 active torsions:
REMARK  status: ('A' for Active; 'I' for Inactive)
REMARK    1  A    between atoms: C_1  and  N_2
REMARK    2  A    between atoms: C_6  and  C_7
REMARK    3  A    between atoms: C_7  and  C_8
REMARK    4  A    between atoms: C_8  and  C_9
REMARK    5  A    between atoms: C_13  and  N_14
REMARK    6  A    between atoms: C_19  and  C_20
REMARK    7  A    between atoms: C_20  and  N_21
REMARK    8  A    between atoms: C_29  and  C_30
REMARK                            x       y       z     vdW  Elec       q    Type
REMARK                         _______ _______ _______ _____ _____    ______ ____
ROOT
ATOM      1  N   UNL     1       1.524   8.717  19.083  0.00  0.00    +0.000 N 
ATOM      2  C   UNL     1       1.604   7.545  19.929  0.00  0.00    +0.000 C 
ATOM      3  C   UNL     1       2.589   6.677  19.259  0.00  0.00    +0.000 A 
ATOM      4  C   UNL     1       3.174   7.360  18.195  0.00  0.00    +0.000 A 
ATOM      5  C   UNL     1       4.202   6.772  17.476  0.00  0.00    +0.000 A 
ATOM      6  C   UNL     1       4.613   5.468  17.852  0.00  0.00    +0.000 A 
ATOM      7  C   UNL     1       3.954   4.792  18.906  0.00  0.00    +0.000 A 
ATOM      8  C   UNL     1       2.909   5.375  19.618  0.00  0.00    +0.000 A 
ATOM      9  C   UNL     1       2.466   8.659  18.043  0.00  0.00    +0.000 C 
ATOM     10  O   UNL     1       2.687   9.458  17.141  0.00  0.00    +0.000 OA
ENDROOT
BRANCH   1  15
ATOM     11  C   UNL     1      -1.659  10.602  18.564  0.00  0.00    +0.000 A 
ATOM     12  C   UNL     1      -1.590  11.502  19.635  0.00  0.00    +0.000 A 
ATOM     13  C   UNL     1      -0.518  11.484  20.541  0.00  0.00    +0.000 A 
ATOM     14  C   UNL     1       0.537  10.570  20.400  0.00  0.00    +0.000 A 
ATOM     15  C   UNL     1       0.500   9.650  19.363  0.00  0.00    +0.000 A 
ATOM     16  C   UNL     1      -0.615   9.678  18.499  0.00  0.00    +0.000 A 
BRANCH  11  17
ATOM     17  C   UNL     1      -2.825  10.557  17.462  0.00  0.00    +0.000 C 
ATOM     18  C   UNL     1      -2.577   9.524  16.327  0.00  0.00    +0.000 C 
ATOM     19  O   UNL     1      -2.519  10.541  15.310  0.00  0.00    +0.000 OA
ATOM     20  C   UNL     1      -2.768  11.580  16.278  0.00  0.00    +0.000 C 
BRANCH  17  21
ATOM     21  C   UNL     1      -4.227  10.463  18.132  0.00  0.00    +0.000 C 
BRANCH  21  27
ATOM     22  C   UNL     1      -4.949  12.645  20.483  0.00  0.00    +0.000 C 
ATOM     23  N   UNL     1      -5.367  12.597  19.107  0.00  0.00    +0.000 N 
ATOM     24  C   UNL     1      -6.239  13.506  18.578  0.00  0.00    +0.000 A 
ATOM     25  N   UNL     1      -6.505  13.197  17.337  0.00  0.00    +0.000 NA
ATOM     26  N   UNL     1      -5.781  12.074  17.029  0.00  0.00    +0.000 NA
ATOM     27  C   UNL     1      -5.075  11.707  18.088  0.00  0.00    +0.000 A 
ENDBRANCH  21  27
ENDBRANCH  17  21
ENDBRANCH  11  17
ENDBRANCH   1  15
BRANCH   8  28
ATOM     28  C   UNL     1       2.164   4.611  20.681  0.00  0.00    +0.000 C 
ATOM     29  F   UNL     1       2.566   3.315  20.818  0.00  0.00    +0.000 F 
ATOM     30  F   UNL     1       2.314   5.174  21.909  0.00  0.00    +0.000 F 
ATOM     31  F   UNL     1       0.826   4.549  20.445  0.00  0.00    +0.000 F 
ENDBRANCH   8  28
BRANCH   6  32
ATOM     32  C   UNL     1       5.769   4.759  17.171  0.00  0.00    +0.000 C 
BRANCH  32  33
ATOM     33  N   UNL     1       5.802   4.974  15.712  0.00  0.00    +0.000 NA
ATOM     34  C   UNL     1       7.200   5.100  15.205  0.00  0.00    +0.000 C 
ATOM     35  C   UNL     1       7.347   5.026  13.652  0.00  0.00    +0.000 C 
ATOM     36  C   UNL     1       6.612   3.802  13.239  0.00  0.00    +0.000 C 
ATOM     37  C   UNL     1       5.487   3.365  12.348  0.00  0.00    +0.000 C 
ATOM     38  C   UNL     1       5.164   4.174  13.558  0.00  0.00    +0.000 C 
ATOM     39  C   UNL     1       4.966   3.956  15.019  0.00  0.00    +0.000 C 
ENDBRANCH  32  33
ENDBRANCH   6  32
TORSDOF 7
ENDMDL
