MODEL 1
REMARK VINA RESULT:      -9.4      0.000      0.000
REMARK  Name = 
REMARK  9 active torsions:
REMARK  status: ('A' for Active; 'I' for Inactive)
REMARK    1  A    between atoms: C_1  and  N_2
REMARK    2  A    between atoms: N_5  and  C_6
REMARK    3  A    between atoms: C_6  and  C_7
REMARK    4  A    between atoms: C_11  and  C_12
REMARK    5  A    between atoms: N_18  and  C_19
REMARK    6  A    between atoms: C_23  and  C_24
REMARK    7  A    between atoms: C_24  and  C_25
REMARK    8  A    between atoms: C_25  and  C_26
REMARK    9  A    between atoms: N_30  and  C_31
REMARK                            x       y       z     vdW  Elec       q    Type
REMARK                         _______ _______ _______ _____ _____    ______ ____
ROOT
ATOM      1  C   UNL     1      -0.871  10.686  18.967  0.00  0.00    +0.000 A 
ATOM      2  C   UNL     1       0.069   9.941  18.252  0.00  0.00    +0.000 A 
ATOM      3  C   UNL     1       0.858   9.058  18.958  0.00  0.00    +0.000 A 
ATOM      4  C   UNL     1       0.769   8.892  20.335  0.00  0.00    +0.000 A 
ATOM      5  C   UNL     1      -0.109   9.667  21.083  0.00  0.00    +0.000 A 
ATOM      6  C   UNL     1      -0.941  10.560  20.375  0.00  0.00    +0.000 A 
ATOM      7  C   UNL     1       1.683   7.784  20.749  0.00  0.00    +0.000 C 
ATOM      8  N   UNL     1       2.299   7.364  19.494  0.00  0.00    +0.000 N 
ATOM      9  C   UNL     1       1.848   8.126  18.419  0.00  0.00    +0.000 C 
ATOM     10  O   UNL     1       2.115   8.087  17.232  0.00  0.00    +0.000 OA
ENDROOT
BRANCH   8  11
ATOM     11  C   UNL     1       3.197   6.273  19.418  0.00  0.00    +0.000 A 
ATOM     12  C   UNL     1       2.873   5.018  19.938  0.00  0.00    +0.000 A 
ATOM     13  C   UNL     1       3.771   3.956  19.850  0.00  0.00    +0.000 A 
ATOM     14  C   UNL     1       5.027   4.153  19.284  0.00  0.00    +0.000 A 
ATOM     15  C   UNL     1       5.427   5.410  18.796  0.00  0.00    +0.000 A 
ATOM     16  C   UNL     1       4.463   6.437  18.836  0.00  0.00    +0.000 A 
BRANCH  15  17
ATOM     17  C   UNL     1       6.915   5.685  18.277  0.00  0.00    +0.000 C 
ATOM     18  C   UNL     1       7.270   7.095  17.716  0.00  0.00    +0.000 C 
ATOM     19  O   UNL     1       8.487   7.127  18.514  0.00  0.00    +0.000 OA
ATOM     20  C   UNL     1       7.928   6.111  19.380  0.00  0.00    +0.000 C 
BRANCH  17  21
ATOM     21  C   UNL     1       7.434   4.532  17.400  0.00  0.00    +0.000 C 
BRANCH  21  22
ATOM     22  C   UNL     1       7.013   4.647  15.970  0.00  0.00    +0.000 A 
ATOM     23  N   UNL     1       7.681   5.259  15.013  0.00  0.00    +0.000 NA
ATOM     24  N   UNL     1       6.983   5.120  13.838  0.00  0.00    +0.000 NA
ATOM     25  C   UNL     1       5.903   4.425  14.100  0.00  0.00    +0.000 A 
ATOM     26  N   UNL     1       5.866   4.126  15.428  0.00  0.00    +0.000 N 
ATOM     27  C   UNL     1       4.818   3.395  16.088  0.00  0.00    +0.000 C 
ENDBRANCH  21  22
ENDBRANCH  17  21
ENDBRANCH  15  17
ENDBRANCH   8  11
BRANCH   5  28
ATOM     28  C   UNL     1      -0.198   9.576  22.585  0.00  0.00    +0.000 C 
ATOM     29  F   UNL     1       1.016   9.487  23.195  0.00  0.00    +0.000 F 
ATOM     30  F   UNL     1      -0.809  10.662  23.135  0.00  0.00    +0.000 F 
ATOM     31  F   UNL     1      -0.904   8.491  23.003  0.00  0.00    +0.000 F 
ENDBRANCH   5  28
BRANCH   1  32
ATOM     32  C   UNL     1      -1.828  11.578  18.208  0.00  0.00    +0.000 C 
BRANCH  32  37
ATOM     33  C   UNL     1      -3.251  10.033  13.933  0.00  0.00    +0.000 C 
ATOM     34  N   UNL     1      -3.671  10.193  15.322  0.00  0.00    +0.000 NA
ATOM     35  C   UNL     1      -3.703  11.617  15.703  0.00  0.00    +0.000 C 
ATOM     36  C   UNL     1      -4.057  11.818  17.196  0.00  0.00    +0.000 C 
ATOM     37  N   UNL     1      -3.204  11.068  18.148  0.00  0.00    +0.000 NA
ATOM     38  C   UNL     1      -3.193   9.648  17.720  0.00  0.00    +0.000 C 
ATOM     39  C   UNL     1      -2.807   9.429  16.235  0.00  0.00    +0.000 C 
ENDBRANCH  32  37
ENDBRANCH   1  32
TORSDOF 7
ENDMDL
MODEL 2
REMARK VINA RESULT:      -9.3      2.615      3.480
REMARK  Name = 
REMARK  9 active torsions:
REMARK  status: ('A' for Active; 'I' for Inactive)
REMARK    1  A    between atoms: C_1  and  N_2
REMARK    2  A    between atoms: N_5  and  C_6
REMARK    3  A    between atoms: C_6  and  C_7
REMARK    4  A    between atoms: C_11  and  C_12
REMARK    5  A    between atoms: N_18  and  C_19
REMARK    6  A    between atoms: C_23  and  C_24
REMARK    7  A    between atoms: C_24  and  C_25
REMARK    8  A    between atoms: C_25  and  C_26
REMARK    9  A    between atoms: N_30  and  C_31
REMARK                            x       y       z     vdW  Elec       q    Type
REMARK                         _______ _______ _______ _____ _____    ______ ____
ROOT
ATOM      1  C   UNL     1       0.100  11.908  19.672  0.00  0.00    +0.000 A 
ATOM      2  C   UNL     1       0.846  11.205  18.724  0.00  0.00    +0.000 A 
ATOM      3  C   UNL     1       1.245   9.924  19.043  0.00  0.00    +0.000 A 
ATOM      4  C   UNL     1       0.953   9.318  20.259  0.00  0.00    +0.000 A 
ATOM      5  C   UNL     1       0.270  10.016  21.249  0.00  0.00    +0.000 A 
ATOM      6  C   UNL     1      -0.165  11.320  20.931  0.00  0.00    +0.000 A 
ATOM      7  C   UNL     1       1.433   7.904  20.223  0.00  0.00    +0.000 C 
ATOM      8  N   UNL     1       2.033   7.782  18.897  0.00  0.00    +0.000 N 
ATOM      9  C   UNL     1       1.961   8.978  18.188  0.00  0.00    +0.000 C 
ATOM     10  O   UNL     1       2.339   9.280  17.071  0.00  0.00    +0.000 OA
ENDROOT
BRANCH   8  11
ATOM     11  C   UNL     1       2.561   6.561  18.413  0.00  0.00    +0.000 A 
ATOM     12  C   UNL     1       1.809   5.385  18.413  0.00  0.00    +0.000 A 
ATOM     13  C   UNL     1       2.347   4.194  17.930  0.00  0.00    +0.000 A 
ATOM     14  C   UNL     1       3.666   4.157  17.486  0.00  0.00    +0.000 A 
ATOM     15  C   UNL     1       4.487   5.299  17.517  0.00  0.00    +0.000 A 
ATOM     16  C   UNL     1       3.882   6.498  17.943  0.00  0.00    +0.000 A 
BRANCH  15  17
ATOM     17  C   UNL     1       6.042   5.237  17.147  0.00  0.00    +0.000 C 
ATOM     18  C   UNL     1       6.804   6.567  16.865  0.00  0.00    +0.000 C 
ATOM     19  O   UNL     1       7.896   6.147  17.730  0.00  0.00    +0.000 OA
ATOM     20  C   UNL     1       7.007   5.199  18.369  0.00  0.00    +0.000 C 
BRANCH  17  21
ATOM     21  C   UNL     1       6.339   4.134  16.116  0.00  0.00    +0.000 C 
BRANCH  21  22
ATOM     22  C   UNL     1       6.932   4.661  14.848  0.00  0.00    +0.000 A 
ATOM     23  N   UNL     1       7.984   5.449  14.755  0.00  0.00    +0.000 NA
ATOM     24  N   UNL     1       8.232   5.686  13.424  0.00  0.00    +0.000 NA
ATOM     25  C   UNL     1       7.328   5.038  12.732  0.00  0.00    +0.000 A 
ATOM     26  N   UNL     1       6.476   4.399  13.581  0.00  0.00    +0.000 N 
ATOM     27  C   UNL     1       5.343   3.609  13.185  0.00  0.00    +0.000 C 
ENDBRANCH  21  22
ENDBRANCH  17  21
ENDBRANCH  15  17
ENDBRANCH   8  11
BRANCH   5  28
ATOM     28  C   UNL     1      -0.014   9.431  22.609  0.00  0.00    +0.000 C 
ATOM     29  F   UNL     1       1.107   9.039  23.275  0.00  0.00    +0.000 F 
ATOM     30  F   UNL     1      -0.643  10.314  23.432  0.00  0.00    +0.000 F 
ATOM     31  F   UNL     1      -0.814   8.332  22.549  0.00  0.00    +0.000 F 
ENDBRANCH   5  28
BRANCH   1  32
ATOM     32  C   UNL     1      -0.448  13.270  19.308  0.00  0.00    +0.000 C 
BRANCH  32  37
ATOM     33  C   UNL     1       1.834  17.154  17.760  0.00  0.00    +0.000 C 
ATOM     34  N   UNL     1       1.213  16.549  18.935  0.00  0.00    +0.000 NA
ATOM     35  C   UNL     1       1.920  15.316  19.329  0.00  0.00    +0.000 C 
ATOM     36  C   UNL     1       1.233  14.599  20.515  0.00  0.00    +0.000 C 
ATOM     37  N   UNL     1      -0.206  14.304  20.321  0.00  0.00    +0.000 NA
ATOM     38  C   UNL     1      -0.872  15.567  19.917  0.00  0.00    +0.000 C 
ATOM     39  C   UNL     1      -0.215  16.279  18.707  0.00  0.00    +0.000 C 
ENDBRANCH  32  37
ENDBRANCH   1  32
TORSDOF 7
ENDMDL
MODEL 3
REMARK VINA RESULT:      -9.1      3.082      9.322
REMARK  Name = 
REMARK  9 active torsions:
REMARK  status: ('A' for Active; 'I' for Inactive)
REMARK    1  A    between atoms: C_1  and  N_2
REMARK    2  A    between atoms: N_5  and  C_6
REMARK    3  A    between atoms: C_6  and  C_7
REMARK    4  A    between atoms: C_11  and  C_12
REMARK    5  A    between atoms: N_18  and  C_19
REMARK    6  A    between atoms: C_23  and  C_24
REMARK    7  A    between atoms: C_24  and  C_25
REMARK    8  A    between atoms: C_25  and  C_26
REMARK    9  A    between atoms: N_30  and  C_31
REMARK                            x       y       z     vdW  Elec       q    Type
REMARK                         _______ _______ _______ _____ _____    ______ ____
ROOT
ATOM      1  C   UNL     1       3.904   6.198  17.813  0.00  0.00    +0.000 A 
ATOM      2  C   UNL     1       3.285   7.447  17.897  0.00  0.00    +0.000 A 
ATOM      3  C   UNL     1       2.377   7.646  18.915  0.00  0.00    +0.000 A 
ATOM      4  C   UNL     1       2.045   6.663  19.840  0.00  0.00    +0.000 A 
ATOM      5  C   UNL     1       2.593   5.389  19.744  0.00  0.00    +0.000 A 
ATOM      6  C   UNL     1       3.541   5.174  18.720  0.00  0.00    +0.000 A 
ATOM      7  C   UNL     1       1.125   7.250  20.861  0.00  0.00    +0.000 C 
ATOM      8  N   UNL     1       0.959   8.630  20.416  0.00  0.00    +0.000 N 
ATOM      9  C   UNL     1       1.669   8.882  19.244  0.00  0.00    +0.000 C 
ATOM     10  O   UNL     1       1.786   9.889  18.570  0.00  0.00    +0.000 OA
ENDROOT
BRANCH   8  11
ATOM     11  C   UNL     1       0.205   9.578  21.148  0.00  0.00    +0.000 A 
ATOM     12  C   UNL     1       0.108   9.521  22.540  0.00  0.00    +0.000 A 
ATOM     13  C   UNL     1      -0.639  10.465  23.242  0.00  0.00    +0.000 A 
ATOM     14  C   UNL     1      -1.339  11.451  22.552  0.00  0.00    +0.000 A 
ATOM     15  C   UNL     1      -1.323  11.520  21.147  0.00  0.00    +0.000 A 
ATOM     16  C   UNL     1      -0.497  10.593  20.480  0.00  0.00    +0.000 A 
BRANCH  15  17
ATOM     17  C   UNL     1      -2.236  12.554  20.337  0.00  0.00    +0.000 C 
ATOM     18  C   UNL     1      -3.006  12.055  19.078  0.00  0.00    +0.000 C 
ATOM     19  O   UNL     1      -4.224  12.702  19.543  0.00  0.00    +0.000 OA
ATOM     20  C   UNL     1      -3.684  12.722  20.886  0.00  0.00    +0.000 C 
BRANCH  17  21
ATOM     21  C   UNL     1      -1.519  13.898  20.120  0.00  0.00    +0.000 C 
BRANCH  21  22
ATOM     22  C   UNL     1      -0.129  13.742  19.590  0.00  0.00    +0.000 A 
ATOM     23  N   UNL     1       0.196  13.350  18.374  0.00  0.00    +0.000 NA
ATOM     24  N   UNL     1       1.566  13.363  18.266  0.00  0.00    +0.000 NA
ATOM     25  C   UNL     1       2.050  13.762  19.416  0.00  0.00    +0.000 A 
ATOM     26  N   UNL     1       1.026  13.990  20.285  0.00  0.00    +0.000 N 
ATOM     27  C   UNL     1       1.174  14.416  21.650  0.00  0.00    +0.000 C 
ENDBRANCH  21  22
ENDBRANCH  17  21
ENDBRANCH  15  17
ENDBRANCH   8  11
BRANCH   5  28
ATOM     28  C   UNL     1       2.218   4.267  20.678  0.00  0.00    +0.000 C 
ATOM     29  F   UNL     1       2.474   4.544  21.986  0.00  0.00    +0.000 F 
ATOM     30  F   UNL     1       0.892   3.964  20.617  0.00  0.00    +0.000 F 
ATOM     31  F   UNL     1       2.884   3.114  20.405  0.00  0.00    +0.000 F 
ENDBRANCH   5  28
BRANCH   1  32
ATOM     32  C   UNL     1       4.987   5.986  16.779  0.00  0.00    +0.000 C 
BRANCH  32  37
ATOM     33  C   UNL     1       7.264   4.720  12.792  0.00  0.00    +0.000 C 
ATOM     34  N   UNL     1       6.905   4.265  14.132  0.00  0.00    +0.000 NA
ATOM     35  C   UNL     1       5.442   4.159  14.278  0.00  0.00    +0.000 C 
ATOM     36  C   UNL     1       5.023   3.768  15.716  0.00  0.00    +0.000 C 
ATOM     37  N   UNL     1       5.567   4.637  16.785  0.00  0.00    +0.000 NA
ATOM     38  C   UNL     1       7.035   4.723  16.591  0.00  0.00    +0.000 C 
ATOM     39  C   UNL     1       7.470   5.147  15.165  0.00  0.00    +0.000 C 
ENDBRANCH  32  37
ENDBRANCH   1  32
TORSDOF 7
ENDMDL
MODEL 4
REMARK VINA RESULT:      -9.1      2.674      9.372
REMARK  Name = 
REMARK  9 active torsions:
REMARK  status: ('A' for Active; 'I' for Inactive)
REMARK    1  A    between atoms: C_1  and  N_2
REMARK    2  A    between atoms: N_5  and  C_6
REMARK    3  A    between atoms: C_6  and  C_7
REMARK    4  A    between atoms: C_11  and  C_12
REMARK    5  A    between atoms: N_18  and  C_19
REMARK    6  A    between atoms: C_23  and  C_24
REMARK    7  A    between atoms: C_24  and  C_25
REMARK    8  A    between atoms: C_25  and  C_26
REMARK    9  A    between atoms: N_30  and  C_31
REMARK                            x       y       z     vdW  Elec       q    Type
REMARK                         _______ _______ _______ _____ _____    ______ ____
ROOT
ATOM      1  C   UNL     1       3.863   6.174  17.849  0.00  0.00    +0.000 A 
ATOM      2  C   UNL     1       3.250   7.425  17.951  0.00  0.00    +0.000 A 
ATOM      3  C   UNL     1       2.359   7.620  18.985  0.00  0.00    +0.000 A 
ATOM      4  C   UNL     1       2.037   6.632  19.907  0.00  0.00    +0.000 A 
ATOM      5  C   UNL     1       2.578   5.357  19.793  0.00  0.00    +0.000 A 
ATOM      6  C   UNL     1       3.510   5.146  18.754  0.00  0.00    +0.000 A 
ATOM      7  C   UNL     1       1.136   7.215  20.947  0.00  0.00    +0.000 C 
ATOM      8  N   UNL     1       0.968   8.600  20.515  0.00  0.00    +0.000 N 
ATOM      9  C   UNL     1       1.661   8.857  19.334  0.00  0.00    +0.000 C 
ATOM     10  O   UNL     1       1.772   9.868  18.666  0.00  0.00    +0.000 OA
ENDROOT
BRANCH   8  11
ATOM     11  C   UNL     1       0.229   9.544  21.266  0.00  0.00    +0.000 A 
ATOM     12  C   UNL     1      -0.045   9.351  22.621  0.00  0.00    +0.000 A 
ATOM     13  C   UNL     1      -0.773  10.296  23.342  0.00  0.00    +0.000 A 
ATOM     14  C   UNL     1      -1.278  11.423  22.701  0.00  0.00    +0.000 A 
ATOM     15  C   UNL     1      -1.080  11.639  21.325  0.00  0.00    +0.000 A 
ATOM     16  C   UNL     1      -0.276  10.699  20.649  0.00  0.00    +0.000 A 
BRANCH  15  17
ATOM     17  C   UNL     1      -1.774  12.853  20.547  0.00  0.00    +0.000 C 
ATOM     18  C   UNL     1      -3.120  13.423  21.086  0.00  0.00    +0.000 C 
ATOM     19  O   UNL     1      -2.618  14.783  20.954  0.00  0.00    +0.000 OA
ATOM     20  C   UNL     1      -1.265  14.268  20.950  0.00  0.00    +0.000 C 
BRANCH  17  21
ATOM     21  C   UNL     1      -1.773  12.627  19.025  0.00  0.00    +0.000 C 
BRANCH  21  22
ATOM     22  C   UNL     1      -2.884  11.740  18.563  0.00  0.00    +0.000 A 
ATOM     23  N   UNL     1      -4.169  11.930  18.785  0.00  0.00    +0.000 NA
ATOM     24  N   UNL     1      -4.870  10.916  18.176  0.00  0.00    +0.000 NA
ATOM     25  C   UNL     1      -3.999  10.129  17.593  0.00  0.00    +0.000 A 
ATOM     26  N   UNL     1      -2.740  10.592  17.828  0.00  0.00    +0.000 N 
ATOM     27  C   UNL     1      -1.527   9.972  17.367  0.00  0.00    +0.000 C 
ENDBRANCH  21  22
ENDBRANCH  17  21
ENDBRANCH  15  17
ENDBRANCH   8  11
BRANCH   5  28
ATOM     28  C   UNL     1       2.212   4.230  20.725  0.00  0.00    +0.000 C 
ATOM     29  F   UNL     1       0.885   3.926  20.713  0.00  0.00    +0.000 F 
ATOM     30  F   UNL     1       2.860   3.072  20.418  0.00  0.00    +0.000 F 
ATOM     31  F   UNL     1       2.518   4.503  22.022  0.00  0.00    +0.000 F 
ENDBRANCH   5  28
BRANCH   1  32
ATOM     32  C   UNL     1       4.928   5.965  16.796  0.00  0.00    +0.000 C 
BRANCH  32  37
ATOM     33  C   UNL     1       7.418   4.856  12.890  0.00  0.00    +0.000 C 
ATOM     34  N   UNL     1       6.974   4.343  14.182  0.00  0.00    +0.000 NA
ATOM     35  C   UNL     1       5.503   4.256  14.238  0.00  0.00    +0.000 C 
ATOM     36  C   UNL     1       4.993   3.803  15.627  0.00  0.00    +0.000 C 
ATOM     37  N   UNL     1       5.487   4.608  16.769  0.00  0.00    +0.000 NA
ATOM     38  C   UNL     1       6.965   4.676  16.665  0.00  0.00    +0.000 C 
ATOM     39  C   UNL     1       7.490   5.163  15.290  0.00  0.00    +0.000 C 
ENDBRANCH  32  37
ENDBRANCH   1  32
TORSDOF 7
ENDMDL
MODEL 5
REMARK VINA RESULT:      -9.1      0.699      1.412
REMARK  Name = 
REMARK  9 active torsions:
REMARK  status: ('A' for Active; 'I' for Inactive)
REMARK    1  A    between atoms: C_1  and  N_2
REMARK    2  A    between atoms: N_5  and  C_6
REMARK    3  A    between atoms: C_6  and  C_7
REMARK    4  A    between atoms: C_11  and  C_12
REMARK    5  A    between atoms: N_18  and  C_19
REMARK    6  A    between atoms: C_23  and  C_24
REMARK    7  A    between atoms: C_24  and  C_25
REMARK    8  A    between atoms: C_25  and  C_26
REMARK    9  A    between atoms: N_30  and  C_31
REMARK                            x       y       z     vdW  Elec       q    Type
REMARK                         _______ _______ _______ _____ _____    ______ ____
ROOT
ATOM      1  C   UNL     1      -0.851  10.732  18.751  0.00  0.00    +0.000 A 
ATOM      2  C   UNL     1       0.108   9.978  18.072  0.00  0.00    +0.000 A 
ATOM      3  C   UNL     1       0.872   9.098  18.809  0.00  0.00    +0.000 A 
ATOM      4  C   UNL     1       0.740   8.945  20.183  0.00  0.00    +0.000 A 
ATOM      5  C   UNL     1      -0.158   9.728  20.898  0.00  0.00    +0.000 A 
ATOM      6  C   UNL     1      -0.964  10.619  20.157  0.00  0.00    +0.000 A 
ATOM      7  C   UNL     1       1.637   7.837  20.635  0.00  0.00    +0.000 C 
ATOM      8  N   UNL     1       2.289   7.404  19.402  0.00  0.00    +0.000 N 
ATOM      9  C   UNL     1       1.874   8.158  18.308  0.00  0.00    +0.000 C 
ATOM     10  O   UNL     1       2.178   8.109  17.130  0.00  0.00    +0.000 OA
ENDROOT
BRANCH   8  11
ATOM     11  C   UNL     1       3.185   6.309  19.363  0.00  0.00    +0.000 A 
ATOM     12  C   UNL     1       2.851   5.067  19.908  0.00  0.00    +0.000 A 
ATOM     13  C   UNL     1       3.748   4.002  19.857  0.00  0.00    +0.000 A 
ATOM     14  C   UNL     1       5.012   4.183  19.302  0.00  0.00    +0.000 A 
ATOM     15  C   UNL     1       5.421   5.427  18.790  0.00  0.00    +0.000 A 
ATOM     16  C   UNL     1       4.459   6.457  18.794  0.00  0.00    +0.000 A 
BRANCH  15  17
ATOM     17  C   UNL     1       6.916   5.686  18.283  0.00  0.00    +0.000 C 
ATOM     18  C   UNL     1       7.291   7.094  17.729  0.00  0.00    +0.000 C 
ATOM     19  O   UNL     1       8.502   7.109  18.537  0.00  0.00    +0.000 OA
ATOM     20  C   UNL     1       7.925   6.096  19.396  0.00  0.00    +0.000 C 
BRANCH  17  21
ATOM     21  C   UNL     1       7.428   4.530  17.407  0.00  0.00    +0.000 C 
BRANCH  21  22
ATOM     22  C   UNL     1       7.005   4.646  15.977  0.00  0.00    +0.000 A 
ATOM     23  N   UNL     1       7.676   5.254  15.019  0.00  0.00    +0.000 NA
ATOM     24  N   UNL     1       6.975   5.117  13.845  0.00  0.00    +0.000 NA
ATOM     25  C   UNL     1       5.892   4.427  14.109  0.00  0.00    +0.000 A 
ATOM     26  N   UNL     1       5.856   4.130  15.437  0.00  0.00    +0.000 N 
ATOM     27  C   UNL     1       4.805   3.405  16.098  0.00  0.00    +0.000 C 
ENDBRANCH  21  22
ENDBRANCH  17  21
ENDBRANCH  15  17
ENDBRANCH   8  11
BRANCH   5  28
ATOM     28  C   UNL     1      -0.293   9.651  22.398  0.00  0.00    +0.000 C 
ATOM     29  F   UNL     1       0.902   9.568  23.046  0.00  0.00    +0.000 F 
ATOM     30  F   UNL     1      -0.921  10.740  22.919  0.00  0.00    +0.000 F 
ATOM     31  F   UNL     1      -1.011   8.569  22.803  0.00  0.00    +0.000 F 
ENDBRANCH   5  28
BRANCH   1  32
ATOM     32  C   UNL     1      -1.781  11.621  17.956  0.00  0.00    +0.000 C 
BRANCH  32  37
ATOM     33  C   UNL     1      -6.436  10.852  18.611  0.00  0.00    +0.000 C 
ATOM     34  N   UNL     1      -5.341  10.679  17.661  0.00  0.00    +0.000 NA
ATOM     35  C   UNL     1      -4.304   9.786  18.208  0.00  0.00    +0.000 C 
ATOM     36  C   UNL     1      -3.085   9.654  17.265  0.00  0.00    +0.000 C 
ATOM     37  N   UNL     1      -2.468  10.937  16.854  0.00  0.00    +0.000 NA
ATOM     38  C   UNL     1      -3.548  11.804  16.322  0.00  0.00    +0.000 C 
ATOM     39  C   UNL     1      -4.761  11.974  17.272  0.00  0.00    +0.000 C 
ENDBRANCH  32  37
ENDBRANCH   1  32
TORSDOF 7
ENDMDL
MODEL 6
REMARK VINA RESULT:      -9.1      3.286     10.196
REMARK  Name = 
REMARK  9 active torsions:
REMARK  status: ('A' for Active; 'I' for Inactive)
REMARK    1  A    between atoms: C_1  and  N_2
REMARK    2  A    between atoms: N_5  and  C_6
REMARK    3  A    between atoms: C_6  and  C_7
REMARK    4  A    between atoms: C_11  and  C_12
REMARK    5  A    between atoms: N_18  and  C_19
REMARK    6  A    between atoms: C_23  and  C_24
REMARK    7  A    between atoms: C_24  and  C_25
REMARK    8  A    between atoms: C_25  and  C_26
REMARK    9  A    between atoms: N_30  and  C_31
REMARK                            x       y       z     vdW  Elec       q    Type
REMARK                         _______ _______ _______ _____ _____    ______ ____
ROOT
ATOM      1  C   UNL     1       3.733   6.228  17.799  0.00  0.00    +0.000 A 
ATOM      2  C   UNL     1       3.139   7.486  17.925  0.00  0.00    +0.000 A 
ATOM      3  C   UNL     1       2.262   7.681  18.971  0.00  0.00    +0.000 A 
ATOM      4  C   UNL     1       1.937   6.685  19.884  0.00  0.00    +0.000 A 
ATOM      5  C   UNL     1       2.459   5.404  19.748  0.00  0.00    +0.000 A 
ATOM      6  C   UNL     1       3.375   5.193  18.695  0.00  0.00    +0.000 A 
ATOM      7  C   UNL     1       1.057   7.267  20.942  0.00  0.00    +0.000 C 
ATOM      8  N   UNL     1       0.904   8.660  20.529  0.00  0.00    +0.000 N 
ATOM      9  C   UNL     1       1.587   8.922  19.344  0.00  0.00    +0.000 C 
ATOM     10  O   UNL     1       1.705   9.941  18.687  0.00  0.00    +0.000 OA
ENDROOT
BRANCH   8  11
ATOM     11  C   UNL     1       0.187   9.605  21.300  0.00  0.00    +0.000 A 
ATOM     12  C   UNL     1      -0.080   9.396  22.655  0.00  0.00    +0.000 A 
ATOM     13  C   UNL     1      -0.786  10.341  23.396  0.00  0.00    +0.000 A 
ATOM     14  C   UNL     1      -1.276  11.487  22.776  0.00  0.00    +0.000 A 
ATOM     15  C   UNL     1      -1.085  11.721  21.403  0.00  0.00    +0.000 A 
ATOM     16  C   UNL     1      -0.303  10.778  20.706  0.00  0.00    +0.000 A 
BRANCH  15  17
ATOM     17  C   UNL     1      -1.764  12.958  20.649  0.00  0.00    +0.000 C 
ATOM     18  C   UNL     1      -1.602  14.388  21.248  0.00  0.00    +0.000 C 
ATOM     19  O   UNL     1      -1.252  14.917  19.938  0.00  0.00    +0.000 OA
ATOM     20  C   UNL     1      -0.909  13.579  19.504  0.00  0.00    +0.000 C 
BRANCH  17  21
ATOM     21  C   UNL     1      -3.204  12.638  20.214  0.00  0.00    +0.000 C 
BRANCH  21  22
ATOM     22  C   UNL     1      -4.219  12.958  21.265  0.00  0.00    +0.000 A 
ATOM     23  N   UNL     1      -4.473  12.238  22.340  0.00  0.00    +0.000 NA
ATOM     24  N   UNL     1      -5.446  12.877  23.070  0.00  0.00    +0.000 NA
ATOM     25  C   UNL     1      -5.766  13.974  22.428  0.00  0.00    +0.000 A 
ATOM     26  N   UNL     1      -5.040  14.056  21.279  0.00  0.00    +0.000 N 
ATOM     27  C   UNL     1      -5.139  15.110  20.307  0.00  0.00    +0.000 C 
ENDBRANCH  21  22
ENDBRANCH  17  21
ENDBRANCH  15  17
ENDBRANCH   8  11
BRANCH   5  28
ATOM     28  C   UNL     1       2.088   4.270  20.670  0.00  0.00    +0.000 C 
ATOM     29  F   UNL     1       2.644   3.079  20.315  0.00  0.00    +0.000 F 
ATOM     30  F   UNL     1       2.483   4.495  21.953  0.00  0.00    +0.000 F 
ATOM     31  F   UNL     1       0.746   4.053  20.718  0.00  0.00    +0.000 F 
ENDBRANCH   5  28
BRANCH   1  32
ATOM     32  C   UNL     1       4.783   6.017  16.732  0.00  0.00    +0.000 C 
BRANCH  32  37
ATOM     33  C   UNL     1       7.485   4.934  12.962  0.00  0.00    +0.000 C 
ATOM     34  N   UNL     1       7.026   4.440  14.256  0.00  0.00    +0.000 NA
ATOM     35  C   UNL     1       5.563   4.259  14.263  0.00  0.00    +0.000 C 
ATOM     36  C   UNL     1       5.031   3.823  15.649  0.00  0.00    +0.000 C 
ATOM     37  N   UNL     1       5.428   4.700  16.777  0.00  0.00    +0.000 NA
ATOM     38  C   UNL     1       6.901   4.861  16.723  0.00  0.00    +0.000 C 
ATOM     39  C   UNL     1       7.446   5.331  15.349  0.00  0.00    +0.000 C 
ENDBRANCH  32  37
ENDBRANCH   1  32
TORSDOF 7
ENDMDL
MODEL 7
REMARK VINA RESULT:      -9.0      3.209      9.347
REMARK  Name = 
REMARK  9 active torsions:
REMARK  status: ('A' for Active; 'I' for Inactive)
REMARK    1  A    between atoms: C_1  and  N_2
REMARK    2  A    between atoms: N_5  and  C_6
REMARK    3  A    between atoms: C_6  and  C_7
REMARK    4  A    between atoms: C_11  and  C_12
REMARK    5  A    between atoms: N_18  and  C_19
REMARK    6  A    between atoms: C_23  and  C_24
REMARK    7  A    between atoms: C_24  and  C_25
REMARK    8  A    between atoms: C_25  and  C_26
REMARK    9  A    between atoms: N_30  and  C_31
REMARK                            x       y       z     vdW  Elec       q    Type
REMARK                         _______ _______ _______ _____ _____    ______ ____
ROOT
ATOM      1  C   UNL     1       3.794   6.162  17.850  0.00  0.00    +0.000 A 
ATOM      2  C   UNL     1       3.184   7.411  17.980  0.00  0.00    +0.000 A 
ATOM      3  C   UNL     1       2.305   7.591  19.027  0.00  0.00    +0.000 A 
ATOM      4  C   UNL     1       1.992   6.587  19.936  0.00  0.00    +0.000 A 
ATOM      5  C   UNL     1       2.530   5.313  19.795  0.00  0.00    +0.000 A 
ATOM      6  C   UNL     1       3.449   5.118  18.741  0.00  0.00    +0.000 A 
ATOM      7  C   UNL     1       1.103   7.154  20.996  0.00  0.00    +0.000 C 
ATOM      8  N   UNL     1       0.934   8.546  20.588  0.00  0.00    +0.000 N 
ATOM      9  C   UNL     1       1.613   8.822  19.405  0.00  0.00    +0.000 C 
ATOM     10  O   UNL     1       1.719   9.845  18.753  0.00  0.00    +0.000 OA
ENDROOT
BRANCH   8  11
ATOM     11  C   UNL     1       0.205   9.480  21.363  0.00  0.00    +0.000 A 
ATOM     12  C   UNL     1       0.073   9.341  22.747  0.00  0.00    +0.000 A 
ATOM     13  C   UNL     1      -0.647  10.273  23.491  0.00  0.00    +0.000 A 
ATOM     14  C   UNL     1      -1.287  11.330  22.850  0.00  0.00    +0.000 A 
ATOM     15  C   UNL     1      -1.235  11.486  21.453  0.00  0.00    +0.000 A 
ATOM     16  C   UNL     1      -0.435  10.565  20.746  0.00  0.00    +0.000 A 
BRANCH  15  17
ATOM     17  C   UNL     1      -2.082  12.609  20.691  0.00  0.00    +0.000 C 
ATOM     18  C   UNL     1      -2.747  12.256  19.327  0.00  0.00    +0.000 C 
ATOM     19  O   UNL     1      -4.000  12.857  19.762  0.00  0.00    +0.000 OA
ATOM     20  C   UNL     1      -3.569  12.726  21.138  0.00  0.00    +0.000 C 
BRANCH  17  21
ATOM     21  C   UNL     1      -1.352  13.963  20.682  0.00  0.00    +0.000 C 
BRANCH  21  22
ATOM     22  C   UNL     1       0.135  13.829  20.768  0.00  0.00    +0.000 A 
ATOM     23  N   UNL     1       0.860  13.944  21.863  0.00  0.00    +0.000 NA
ATOM     24  N   UNL     1       2.177  13.725  21.535  0.00  0.00    +0.000 NA
ATOM     25  C   UNL     1       2.230  13.480  20.249  0.00  0.00    +0.000 A 
ATOM     26  N   UNL     1       0.977  13.558  19.721  0.00  0.00    +0.000 N 
ATOM     27  C   UNL     1       0.647  13.373  18.333  0.00  0.00    +0.000 C 
ENDBRANCH  21  22
ENDBRANCH  17  21
ENDBRANCH  15  17
ENDBRANCH   8  11
BRANCH   5  28
ATOM     28  C   UNL     1       2.172   4.171  20.712  0.00  0.00    +0.000 C 
ATOM     29  F   UNL     1       2.811   3.009  20.404  0.00  0.00    +0.000 F 
ATOM     30  F   UNL     1       2.484   4.432  22.011  0.00  0.00    +0.000 F 
ATOM     31  F   UNL     1       0.843   3.880  20.691  0.00  0.00    +0.000 F 
ENDBRANCH   5  28
BRANCH   1  32
ATOM     32  C   UNL     1       4.847   5.969  16.782  0.00  0.00    +0.000 C 
BRANCH  32  37
ATOM     33  C   UNL     1       7.402   4.882  12.912  0.00  0.00    +0.000 C 
ATOM     34  N   UNL     1       6.984   4.384  14.219  0.00  0.00    +0.000 NA
ATOM     35  C   UNL     1       5.521   4.218  14.277  0.00  0.00    +0.000 C 
ATOM     36  C   UNL     1       5.034   3.779  15.679  0.00  0.00    +0.000 C 
ATOM     37  N   UNL     1       5.480   4.644  16.796  0.00  0.00    +0.000 NA
ATOM     38  C   UNL     1       6.952   4.791  16.691  0.00  0.00    +0.000 C 
ATOM     39  C   UNL     1       7.452   5.265  15.302  0.00  0.00    +0.000 C 
ENDBRANCH  32  37
ENDBRANCH   1  32
TORSDOF 7
ENDMDL
MODEL 8
REMARK VINA RESULT:      -9.0      2.874      4.265
REMARK  Name = 
REMARK  9 active torsions:
REMARK  status: ('A' for Active; 'I' for Inactive)
REMARK    1  A    between atoms: C_1  and  N_2
REMARK    2  A    between atoms: N_5  and  C_6
REMARK    3  A    between atoms: C_6  and  C_7
REMARK    4  A    between atoms: C_11  and  C_12
REMARK    5  A    between atoms: N_18  and  C_19
REMARK    6  A    between atoms: C_23  and  C_24
REMARK    7  A    between atoms: C_24  and  C_25
REMARK    8  A    between atoms: C_25  and  C_26
REMARK    9  A    between atoms: N_30  and  C_31
REMARK                            x       y       z     vdW  Elec       q    Type
REMARK                         _______ _______ _______ _____ _____    ______ ____
ROOT
ATOM      1  C   UNL     1       0.297  11.720  19.493  0.00  0.00    +0.000 A 
ATOM      2  C   UNL     1       1.032  10.941  18.596  0.00  0.00    +0.000 A 
ATOM      3  C   UNL     1       1.397   9.673  18.997  0.00  0.00    +0.000 A 
ATOM      4  C   UNL     1       1.081   9.151  20.245  0.00  0.00    +0.000 A 
ATOM      5  C   UNL     1       0.408   9.924  21.184  0.00  0.00    +0.000 A 
ATOM      6  C   UNL     1       0.008  11.217  20.783  0.00  0.00    +0.000 A 
ATOM      7  C   UNL     1       1.527   7.726  20.300  0.00  0.00    +0.000 C 
ATOM      8  N   UNL     1       2.133   7.508  18.990  0.00  0.00    +0.000 N 
ATOM      9  C   UNL     1       2.096   8.660  18.208  0.00  0.00    +0.000 C 
ATOM     10  O   UNL     1       2.489   8.883  17.077  0.00  0.00    +0.000 OA
ENDROOT
BRANCH   8  11
ATOM     11  C   UNL     1       2.635   6.247  18.586  0.00  0.00    +0.000 A 
ATOM     12  C   UNL     1       2.224   5.063  19.201  0.00  0.00    +0.000 A 
ATOM     13  C   UNL     1       2.729   3.832  18.786  0.00  0.00    +0.000 A 
ATOM     14  C   UNL     1       3.691   3.778  17.782  0.00  0.00    +0.000 A 
ATOM     15  C   UNL     1       4.182   4.944  17.168  0.00  0.00    +0.000 A 
ATOM     16  C   UNL     1       3.592   6.161  17.563  0.00  0.00    +0.000 A 
BRANCH  15  17
ATOM     17  C   UNL     1       5.388   4.907  16.117  0.00  0.00    +0.000 C 
ATOM     18  C   UNL     1       6.076   3.544  15.806  0.00  0.00    +0.000 C 
ATOM     19  O   UNL     1       6.004   3.813  14.377  0.00  0.00    +0.000 OA
ATOM     20  C   UNL     1       4.956   4.780  14.626  0.00  0.00    +0.000 C 
BRANCH  17  21
ATOM     21  C   UNL     1       6.385   6.054  16.355  0.00  0.00    +0.000 C 
BRANCH  21  22
ATOM     22  C   UNL     1       7.102   5.945  17.664  0.00  0.00    +0.000 A 
ATOM     23  N   UNL     1       7.169   4.870  18.422  0.00  0.00    +0.000 NA
ATOM     24  N   UNL     1       7.940   5.162  19.522  0.00  0.00    +0.000 NA
ATOM     25  C   UNL     1       8.327   6.409  19.413  0.00  0.00    +0.000 A 
ATOM     26  N   UNL     1       7.807   6.949  18.276  0.00  0.00    +0.000 N 
ATOM     27  C   UNL     1       7.997   8.305  17.837  0.00  0.00    +0.000 C 
ENDBRANCH  21  22
ENDBRANCH  17  21
ENDBRANCH  15  17
ENDBRANCH   8  11
BRANCH   5  28
ATOM     28  C   UNL     1       0.100   9.431  22.575  0.00  0.00    +0.000 C 
ATOM     29  F   UNL     1      -0.742   8.361  22.596  0.00  0.00    +0.000 F 
ATOM     30  F   UNL     1       1.217   9.035  23.244  0.00  0.00    +0.000 F 
ATOM     31  F   UNL     1      -0.489  10.382  23.348  0.00  0.00    +0.000 F 
ENDBRANCH   5  28
BRANCH   1  32
ATOM     32  C   UNL     1      -0.215  13.069  19.041  0.00  0.00    +0.000 C 
BRANCH  32  37
ATOM     33  C   UNL     1      -0.847  16.687  22.074  0.00  0.00    +0.000 C 
ATOM     34  N   UNL     1       0.049  16.158  21.050  0.00  0.00    +0.000 NA
ATOM     35  C   UNL     1      -0.627  16.092  19.742  0.00  0.00    +0.000 C 
ATOM     36  C   UNL     1       0.265  15.450  18.652  0.00  0.00    +0.000 C 
ATOM     37  N   UNL     1       0.813  14.116  18.996  0.00  0.00    +0.000 NA
ATOM     38  C   UNL     1       1.471  14.229  20.320  0.00  0.00    +0.000 C 
ATOM     39  C   UNL     1       0.578  14.839  21.431  0.00  0.00    +0.000 C 
ENDBRANCH  32  37
ENDBRANCH   1  32
TORSDOF 7
ENDMDL
MODEL 9
REMARK VINA RESULT:      -9.0      3.484      9.443
REMARK  Name = 
REMARK  9 active torsions:
REMARK  status: ('A' for Active; 'I' for Inactive)
REMARK    1  A    between atoms: C_1  and  N_2
REMARK    2  A    between atoms: N_5  and  C_6
REMARK    3  A    between atoms: C_6  and  C_7
REMARK    4  A    between atoms: C_11  and  C_12
REMARK    5  A    between atoms: N_18  and  C_19
REMARK    6  A    between atoms: C_23  and  C_24
REMARK    7  A    between atoms: C_24  and  C_25
REMARK    8  A    between atoms: C_25  and  C_26
REMARK    9  A    between atoms: N_30  and  C_31
REMARK                            x       y       z     vdW  Elec       q    Type
REMARK                         _______ _______ _______ _____ _____    ______ ____
ROOT
ATOM      1  C   UNL     1       3.808   6.254  17.761  0.00  0.00    +0.000 A 
ATOM      2  C   UNL     1       3.212   7.512  17.867  0.00  0.00    +0.000 A 
ATOM      3  C   UNL     1       2.335   7.722  18.911  0.00  0.00    +0.000 A 
ATOM      4  C   UNL     1       2.012   6.740  19.840  0.00  0.00    +0.000 A 
ATOM      5  C   UNL     1       2.536   5.458  19.723  0.00  0.00    +0.000 A 
ATOM      6  C   UNL     1       3.452   5.232  18.673  0.00  0.00    +0.000 A 
ATOM      7  C   UNL     1       1.131   7.337  20.888  0.00  0.00    +0.000 C 
ATOM      8  N   UNL     1       0.976   8.723  20.454  0.00  0.00    +0.000 N 
ATOM      9  C   UNL     1       1.658   8.968  19.264  0.00  0.00    +0.000 C 
ATOM     10  O   UNL     1       1.774   9.976  18.592  0.00  0.00    +0.000 OA
ENDROOT
BRANCH   8  11
ATOM     11  C   UNL     1       0.258   9.679  21.211  0.00  0.00    +0.000 A 
ATOM     12  C   UNL     1      -0.204   9.399  22.498  0.00  0.00    +0.000 A 
ATOM     13  C   UNL     1      -0.907  10.357  23.227  0.00  0.00    +0.000 A 
ATOM     14  C   UNL     1      -1.200  11.591  22.653  0.00  0.00    +0.000 A 
ATOM     15  C   UNL     1      -0.808  11.904  21.340  0.00  0.00    +0.000 A 
ATOM     16  C   UNL     1      -0.036  10.938  20.665  0.00  0.00    +0.000 A 
BRANCH  15  17
ATOM     17  C   UNL     1      -1.261  13.259  20.619  0.00  0.00    +0.000 C 
ATOM     18  C   UNL     1      -2.769  13.652  20.631  0.00  0.00    +0.000 C 
ATOM     19  O   UNL     1      -2.430  15.012  21.025  0.00  0.00    +0.000 OA
ATOM     20  C   UNL     1      -1.145  14.540  21.497  0.00  0.00    +0.000 C 
BRANCH  17  21
ATOM     21  C   UNL     1      -0.600  13.417  19.239  0.00  0.00    +0.000 C 
BRANCH  21  22
ATOM     22  C   UNL     1       0.618  14.284  19.268  0.00  0.00    +0.000 A 
ATOM     23  N   UNL     1       1.824  13.911  19.649  0.00  0.00    +0.000 NA
ATOM     24  N   UNL     1       2.674  14.981  19.505  0.00  0.00    +0.000 NA
ATOM     25  C   UNL     1       1.972  15.984  19.038  0.00  0.00    +0.000 A 
ATOM     26  N   UNL     1       0.673  15.602  18.895  0.00  0.00    +0.000 N 
ATOM     27  C   UNL     1      -0.395  16.445  18.431  0.00  0.00    +0.000 C 
ENDBRANCH  21  22
ENDBRANCH  17  21
ENDBRANCH  15  17
ENDBRANCH   8  11
BRANCH   5  28
ATOM     28  C   UNL     1       2.167   4.338  20.663  0.00  0.00    +0.000 C 
ATOM     29  F   UNL     1       0.838   4.044  20.659  0.00  0.00    +0.000 F 
ATOM     30  F   UNL     1       2.804   3.175  20.358  0.00  0.00    +0.000 F 
ATOM     31  F   UNL     1       2.482   4.616  21.957  0.00  0.00    +0.000 F 
ENDBRANCH   5  28
BRANCH   1  32
ATOM     32  C   UNL     1       4.858   6.028  16.697  0.00  0.00    +0.000 C 
BRANCH  32  37
ATOM     33  C   UNL     1       7.362   4.801  12.835  0.00  0.00    +0.000 C 
ATOM     34  N   UNL     1       6.964   4.352  14.166  0.00  0.00    +0.000 NA
ATOM     35  C   UNL     1       5.502   4.185  14.251  0.00  0.00    +0.000 C 
ATOM     36  C   UNL     1       5.035   3.798  15.674  0.00  0.00    +0.000 C 
ATOM     37  N   UNL     1       5.494   4.706  16.752  0.00  0.00    +0.000 NA
ATOM     38  C   UNL     1       6.964   4.852  16.621  0.00  0.00    +0.000 C 
ATOM     39  C   UNL     1       7.444   5.274  15.208  0.00  0.00    +0.000 C 
ENDBRANCH  32  37
ENDBRANCH   1  32
TORSDOF 7
ENDMDL
