MODEL 1
REMARK VINA RESULT:      -8.3      0.000      0.000
REMARK  Name = 
REMARK  10 active torsions:
REMARK  status: ('A' for Active; 'I' for Inactive)
REMARK    1  A    between atoms: C_1  and  C_2
REMARK    2  A    between atoms: C_2  and  S_3
REMARK    3  A    between atoms: C_2  and  C_10
REMARK    4  A    between atoms: S_3  and  C_4
REMARK    5  A    between atoms: N_8  and  C_9
REMARK    6  A    between atoms: C_14  and  N_15
REMARK    7  A    between atoms: C_16  and  C_18
REMARK    8  A    between atoms: C_22  and  N_23
REMARK    9  A    between atoms: N_23  and  C_24
REMARK   10  A    between atoms: N_23  and  C_25
REMARK                            x       y       z     vdW  Elec       q    Type
REMARK                         _______ _______ _______ _____ _____    ______ ____
ROOT
ATOM      1  C   UNL     1       5.926   6.246  17.634  0.00  0.00    +0.000 A 
ATOM      2  C   UNL     1       6.611   5.353  18.470  0.00  0.00    +0.000 A 
ATOM      3  C   UNL     1       7.818   5.711  19.061  0.00  0.00    +0.000 A 
ATOM      4  C   UNL     1       8.378   6.959  18.805  0.00  0.00    +0.000 A 
ATOM      5  C   UNL     1       7.752   7.869  17.951  0.00  0.00    +0.000 A 
ATOM      6  C   UNL     1       6.513   7.516  17.392  0.00  0.00    +0.000 A 
ENDROOT
BRANCH   5   7
ATOM      7  N   UNL     1       8.317   9.138  17.646  0.00  0.00    +0.000 N 
ATOM      8  C   UNL     1       8.866  10.002  18.585  0.00  0.00    +0.000 C 
ATOM      9  O   UNL     1       9.040   9.748  19.776  0.00  0.00    +0.000 OA
ATOM     10  H   UNL     1       8.445   9.362  16.668  0.00  0.00    +0.000 HD
BRANCH   8  11
ATOM     11  C   UNL     1       9.344  11.331  18.114  0.00  0.00    +0.000 A 
ATOM     12  C   UNL     1      10.668  11.396  17.666  0.00  0.00    +0.000 A 
ATOM     13  C   UNL     1      11.231  12.619  17.338  0.00  0.00    +0.000 A 
ATOM     14  C   UNL     1      10.470  13.782  17.461  0.00  0.00    +0.000 A 
ATOM     15  C   UNL     1       9.134  13.770  17.911  0.00  0.00    +0.000 A 
ATOM     16  C   UNL     1       8.584  12.508  18.226  0.00  0.00    +0.000 A 
BRANCH  15  17
ATOM     17  N   UNL     1       8.418  14.951  18.025  0.00  0.00    +0.000 N 
ATOM     18  C   UNL     1       6.999  15.015  17.674  0.00  0.00    +0.000 C 
ATOM     19  C   UNL     1       9.055  16.240  18.258  0.00  0.00    +0.000 C 
ENDBRANCH  15  17
ENDBRANCH   8  11
ENDBRANCH   5   7
BRANCH   1  21
ATOM     20  C   UNL     1       3.356   6.279  17.821  0.00  0.00    +0.000 C 
ATOM     21  C   UNL     1       4.585   5.880  16.985  0.00  0.00    +0.000 C 
BRANCH  21  22
ATOM     22  S   UNL     1       4.546   4.068  16.659  0.00  0.00    +0.000 S 
BRANCH  22  23
ATOM     23  C   UNL     1       3.143   3.566  17.530  0.00  0.00    +0.000 A 
ATOM     24  N   UNL     1       1.895   3.595  17.123  0.00  0.00    +0.000 NA
ATOM     25  N   UNL     1       1.107   3.158  18.168  0.00  0.00    +0.000 NA
ATOM     26  C   UNL     1       1.903   2.860  19.170  0.00  0.00    +0.000 A 
ATOM     27  N   UNL     1       3.196   3.089  18.807  0.00  0.00    +0.000 N 
ATOM     28  C   UNL     1       4.359   2.882  19.628  0.00  0.00    +0.000 C 
ENDBRANCH  22  23
ENDBRANCH  21  22
ENDBRANCH   1  21
TORSDOF 6
ENDMDL
MODEL 2
REMARK VINA RESULT:      -8.2      5.682      7.676
REMARK  Name = 
REMARK  10 active torsions:
REMARK  status: ('A' for Active; 'I' for Inactive)
REMARK    1  A    between atoms: C_1  and  C_2
REMARK    2  A    between atoms: C_2  and  S_3
REMARK    3  A    between atoms: C_2  and  C_10
REMARK    4  A    between atoms: S_3  and  C_4
REMARK    5  A    between atoms: N_8  and  C_9
REMARK    6  A    between atoms: C_14  and  N_15
REMARK    7  A    between atoms: C_16  and  C_18
REMARK    8  A    between atoms: C_22  and  N_23
REMARK    9  A    between atoms: N_23  and  C_24
REMARK   10  A    between atoms: N_23  and  C_25
REMARK                            x       y       z     vdW  Elec       q    Type
REMARK                         _______ _______ _______ _____ _____    ______ ____
ROOT
ATOM      1  C   UNL     1       4.594   5.098  17.982  0.00  0.00    +0.000 A 
ATOM      2  C   UNL     1       4.504   3.776  18.442  0.00  0.00    +0.000 A 
ATOM      3  C   UNL     1       3.665   3.445  19.502  0.00  0.00    +0.000 A 
ATOM      4  C   UNL     1       2.922   4.434  20.139  0.00  0.00    +0.000 A 
ATOM      5  C   UNL     1       3.005   5.769  19.741  0.00  0.00    +0.000 A 
ATOM      6  C   UNL     1       3.822   6.088  18.644  0.00  0.00    +0.000 A 
ENDROOT
BRANCH   5   7
ATOM      7  N   UNL     1       2.281   6.804  20.395  0.00  0.00    +0.000 N 
ATOM      8  C   UNL     1       1.808   7.951  19.771  0.00  0.00    +0.000 C 
ATOM      9  O   UNL     1       1.848   8.176  18.562  0.00  0.00    +0.000 OA
ATOM     10  H   UNL     1       1.981   6.627  21.345  0.00  0.00    +0.000 HD
BRANCH   8  11
ATOM     11  C   UNL     1       1.139   8.978  20.614  0.00  0.00    +0.000 A 
ATOM     12  C   UNL     1       0.975   8.666  21.969  0.00  0.00    +0.000 A 
ATOM     13  C   UNL     1       0.244   9.507  22.792  0.00  0.00    +0.000 A 
ATOM     14  C   UNL     1      -0.328  10.665  22.261  0.00  0.00    +0.000 A 
ATOM     15  C   UNL     1      -0.194  11.021  20.904  0.00  0.00    +0.000 A 
ATOM     16  C   UNL     1       0.565  10.151  20.092  0.00  0.00    +0.000 A 
BRANCH  15  17
ATOM     17  N   UNL     1      -0.786  12.177  20.419  0.00  0.00    +0.000 N 
ATOM     18  C   UNL     1      -2.147  12.552  20.805  0.00  0.00    +0.000 C 
ATOM     19  C   UNL     1      -0.216  12.957  19.329  0.00  0.00    +0.000 C 
ENDBRANCH  15  17
ENDBRANCH   8  11
ENDBRANCH   5   7
BRANCH   1  21
ATOM     20  C   UNL     1       4.962   6.656  15.963  0.00  0.00    +0.000 C 
ATOM     21  C   UNL     1       5.498   5.484  16.805  0.00  0.00    +0.000 C 
BRANCH  21  22
ATOM     22  S   UNL     1       5.747   4.013  15.726  0.00  0.00    +0.000 S 
BRANCH  22  23
ATOM     23  C   UNL     1       6.812   4.622  14.511  0.00  0.00    +0.000 A 
ATOM     24  N   UNL     1       7.788   5.486  14.662  0.00  0.00    +0.000 NA
ATOM     25  N   UNL     1       8.328   5.728  13.416  0.00  0.00    +0.000 NA
ATOM     26  C   UNL     1       7.674   4.987  12.549  0.00  0.00    +0.000 A 
ATOM     27  N   UNL     1       6.719   4.264  13.197  0.00  0.00    +0.000 N 
ATOM     28  C   UNL     1       5.800   3.336  12.596  0.00  0.00    +0.000 C 
ENDBRANCH  22  23
ENDBRANCH  21  22
ENDBRANCH   1  21
TORSDOF 6
ENDMDL
MODEL 3
REMARK VINA RESULT:      -8.2      2.617      3.583
REMARK  Name = 
REMARK  10 active torsions:
REMARK  status: ('A' for Active; 'I' for Inactive)
REMARK    1  A    between atoms: C_1  and  C_2
REMARK    2  A    between atoms: C_2  and  S_3
REMARK    3  A    between atoms: C_2  and  C_10
REMARK    4  A    between atoms: S_3  and  C_4
REMARK    5  A    between atoms: N_8  and  C_9
REMARK    6  A    between atoms: C_14  and  N_15
REMARK    7  A    between atoms: C_16  and  C_18
REMARK    8  A    between atoms: C_22  and  N_23
REMARK    9  A    between atoms: N_23  and  C_24
REMARK   10  A    between atoms: N_23  and  C_25
REMARK                            x       y       z     vdW  Elec       q    Type
REMARK                         _______ _______ _______ _____ _____    ______ ____
ROOT
ATOM      1  C   UNL     1       6.349   6.232  17.387  0.00  0.00    +0.000 A 
ATOM      2  C   UNL     1       6.894   5.453  18.419  0.00  0.00    +0.000 A 
ATOM      3  C   UNL     1       7.907   5.951  19.231  0.00  0.00    +0.000 A 
ATOM      4  C   UNL     1       8.414   7.228  19.010  0.00  0.00    +0.000 A 
ATOM      5  C   UNL     1       7.930   8.028  17.973  0.00  0.00    +0.000 A 
ATOM      6  C   UNL     1       6.879   7.533  17.185  0.00  0.00    +0.000 A 
ENDROOT
BRANCH   5   7
ATOM      7  N   UNL     1       8.453   9.323  17.705  0.00  0.00    +0.000 N 
ATOM      8  C   UNL     1       9.004  10.164  18.663  0.00  0.00    +0.000 C 
ATOM      9  O   UNL     1       9.217   9.868  19.838  0.00  0.00    +0.000 OA
ATOM     10  H   UNL     1       8.548   9.589  16.734  0.00  0.00    +0.000 HD
BRANCH   8  11
ATOM     11  C   UNL     1       9.433  11.523  18.234  0.00  0.00    +0.000 A 
ATOM     12  C   UNL     1      10.640  11.604  17.529  0.00  0.00    +0.000 A 
ATOM     13  C   UNL     1      11.177  12.842  17.211  0.00  0.00    +0.000 A 
ATOM     14  C   UNL     1      10.508  14.003  17.601  0.00  0.00    +0.000 A 
ATOM     15  C   UNL     1       9.293  13.974  18.315  0.00  0.00    +0.000 A 
ATOM     16  C   UNL     1       8.765  12.700  18.614  0.00  0.00    +0.000 A 
BRANCH  15  17
ATOM     17  N   UNL     1       8.667  15.154  18.688  0.00  0.00    +0.000 N 
ATOM     18  C   UNL     1       8.768  16.359  17.865  0.00  0.00    +0.000 C 
ATOM     19  C   UNL     1       8.085  15.354  20.008  0.00  0.00    +0.000 C 
ENDBRANCH  15  17
ENDBRANCH   8  11
ENDBRANCH   5   7
BRANCH   1  21
ATOM     20  C   UNL     1       3.884   5.502  17.223  0.00  0.00    +0.000 C 
ATOM     21  C   UNL     1       5.220   5.710  16.490  0.00  0.00    +0.000 C 
BRANCH  21  22
ATOM     22  S   UNL     1       5.750   4.128  15.710  0.00  0.00    +0.000 S 
BRANCH  22  23
ATOM     23  C   UNL     1       6.796   4.669  14.449  0.00  0.00    +0.000 A 
ATOM     24  N   UNL     1       7.806   5.502  14.548  0.00  0.00    +0.000 NA
ATOM     25  N   UNL     1       8.315   5.694  13.281  0.00  0.00    +0.000 NA
ATOM     26  C   UNL     1       7.609   4.956  12.453  0.00  0.00    +0.000 A 
ATOM     27  N   UNL     1       6.650   4.283  13.148  0.00  0.00    +0.000 N 
ATOM     28  C   UNL     1       5.681   3.374  12.598  0.00  0.00    +0.000 C 
ENDBRANCH  22  23
ENDBRANCH  21  22
ENDBRANCH   1  21
TORSDOF 6
ENDMDL
MODEL 4
REMARK VINA RESULT:      -8.0      0.940      1.202
REMARK  Name = 
REMARK  10 active torsions:
REMARK  status: ('A' for Active; 'I' for Inactive)
REMARK    1  A    between atoms: C_1  and  C_2
REMARK    2  A    between atoms: C_2  and  S_3
REMARK    3  A    between atoms: C_2  and  C_10
REMARK    4  A    between atoms: S_3  and  C_4
REMARK    5  A    between atoms: N_8  and  C_9
REMARK    6  A    between atoms: C_14  and  N_15
REMARK    7  A    between atoms: C_16  and  C_18
REMARK    8  A    between atoms: C_22  and  N_23
REMARK    9  A    between atoms: N_23  and  C_24
REMARK   10  A    between atoms: N_23  and  C_25
REMARK                            x       y       z     vdW  Elec       q    Type
REMARK                         _______ _______ _______ _____ _____    ______ ____
ROOT
ATOM      1  C   UNL     1       6.333   6.089  17.504  0.00  0.00    +0.000 A 
ATOM      2  C   UNL     1       6.922   5.339  18.533  0.00  0.00    +0.000 A 
ATOM      3  C   UNL     1       7.958   5.864  19.297  0.00  0.00    +0.000 A 
ATOM      4  C   UNL     1       8.445   7.140  19.029  0.00  0.00    +0.000 A 
ATOM      5  C   UNL     1       7.917   7.912  17.992  0.00  0.00    +0.000 A 
ATOM      6  C   UNL     1       6.843   7.390  17.253  0.00  0.00    +0.000 A 
ENDROOT
BRANCH   5   7
ATOM      7  N   UNL     1       8.418   9.205  17.676  0.00  0.00    +0.000 N 
ATOM      8  C   UNL     1       9.000  10.070  18.593  0.00  0.00    +0.000 C 
ATOM      9  O   UNL     1       9.263   9.801  19.765  0.00  0.00    +0.000 OA
ATOM     10  H   UNL     1       8.472   9.451  16.696  0.00  0.00    +0.000 HD
BRANCH   8  11
ATOM     11  C   UNL     1       9.401  11.423  18.119  0.00  0.00    +0.000 A 
ATOM     12  C   UNL     1      10.729  11.572  17.704  0.00  0.00    +0.000 A 
ATOM     13  C   UNL     1      11.218  12.827  17.375  0.00  0.00    +0.000 A 
ATOM     14  C   UNL     1      10.377  13.938  17.465  0.00  0.00    +0.000 A 
ATOM     15  C   UNL     1       9.034  13.840  17.880  0.00  0.00    +0.000 A 
ATOM     16  C   UNL     1       8.561  12.548  18.197  0.00  0.00    +0.000 A 
BRANCH  15  17
ATOM     17  N   UNL     1       8.238  14.972  17.961  0.00  0.00    +0.000 N 
ATOM     18  C   UNL     1       6.788  14.894  17.780  0.00  0.00    +0.000 C 
ATOM     19  C   UNL     1       8.786  16.321  17.986  0.00  0.00    +0.000 C 
ENDBRANCH  15  17
ENDBRANCH   8  11
ENDBRANCH   5   7
BRANCH   1  21
ATOM     20  C   UNL     1       4.962   6.284  15.331  0.00  0.00    +0.000 C 
ATOM     21  C   UNL     1       5.178   5.538  16.660  0.00  0.00    +0.000 C 
BRANCH  21  22
ATOM     22  S   UNL     1       3.628   5.584  17.652  0.00  0.00    +0.000 S 
BRANCH  22  23
ATOM     23  C   UNL     1       3.386   3.919  18.038  0.00  0.00    +0.000 A 
ATOM     24  N   UNL     1       3.997   2.880  17.519  0.00  0.00    +0.000 NA
ATOM     25  N   UNL     1       3.443   1.748  18.080  0.00  0.00    +0.000 NA
ATOM     26  C   UNL     1       2.526   2.136  18.936  0.00  0.00    +0.000 A 
ATOM     27  N   UNL     1       2.465   3.497  18.953  0.00  0.00    +0.000 N 
ATOM     28  C   UNL     1       1.588   4.300  19.761  0.00  0.00    +0.000 C 
ENDBRANCH  22  23
ENDBRANCH  21  22
ENDBRANCH   1  21
TORSDOF 6
ENDMDL
MODEL 5
REMARK VINA RESULT:      -7.9      4.227      7.354
REMARK  Name = 
REMARK  10 active torsions:
REMARK  status: ('A' for Active; 'I' for Inactive)
REMARK    1  A    between atoms: C_1  and  C_2
REMARK    2  A    between atoms: C_2  and  S_3
REMARK    3  A    between atoms: C_2  and  C_10
REMARK    4  A    between atoms: S_3  and  C_4
REMARK    5  A    between atoms: N_8  and  C_9
REMARK    6  A    between atoms: C_14  and  N_15
REMARK    7  A    between atoms: C_16  and  C_18
REMARK    8  A    between atoms: C_22  and  N_23
REMARK    9  A    between atoms: N_23  and  C_24
REMARK   10  A    between atoms: N_23  and  C_25
REMARK                            x       y       z     vdW  Elec       q    Type
REMARK                         _______ _______ _______ _____ _____    ______ ____
ROOT
ATOM      1  C   UNL     1       4.277   4.579  16.794  0.00  0.00    +0.000 A 
ATOM      2  C   UNL     1       3.644   3.327  16.786  0.00  0.00    +0.000 A 
ATOM      3  C   UNL     1       2.489   3.106  17.529  0.00  0.00    +0.000 A 
ATOM      4  C   UNL     1       1.959   4.125  18.315  0.00  0.00    +0.000 A 
ATOM      5  C   UNL     1       2.573   5.377  18.384  0.00  0.00    +0.000 A 
ATOM      6  C   UNL     1       3.715   5.605  17.598  0.00  0.00    +0.000 A 
ENDROOT
BRANCH   5   7
ATOM      7  N   UNL     1       2.071   6.426  19.205  0.00  0.00    +0.000 N 
ATOM      8  C   UNL     1       1.959   7.752  18.807  0.00  0.00    +0.000 C 
ATOM      9  O   UNL     1       2.168   8.179  17.673  0.00  0.00    +0.000 OA
ATOM     10  H   UNL     1       1.648   6.159  20.084  0.00  0.00    +0.000 HD
BRANCH   8  11
ATOM     11  C   UNL     1       1.490   8.743  19.813  0.00  0.00    +0.000 A 
ATOM     12  C   UNL     1       1.418   8.302  21.140  0.00  0.00    +0.000 A 
ATOM     13  C   UNL     1       0.865   9.118  22.114  0.00  0.00    +0.000 A 
ATOM     14  C   UNL     1       0.381  10.379  21.762  0.00  0.00    +0.000 A 
ATOM     15  C   UNL     1       0.429  10.868  20.441  0.00  0.00    +0.000 A 
ATOM     16  C   UNL     1       1.008  10.019  19.473  0.00  0.00    +0.000 A 
BRANCH  15  17
ATOM     17  N   UNL     1      -0.071  12.124  20.137  0.00  0.00    +0.000 N 
ATOM     18  C   UNL     1      -0.601  12.428  18.807  0.00  0.00    +0.000 C 
ATOM     19  C   UNL     1       0.111  13.277  21.007  0.00  0.00    +0.000 C 
ENDBRANCH  15  17
ENDBRANCH   8  11
ENDBRANCH   5   7
BRANCH   1  21
ATOM     20  C   UNL     1       5.661   3.985  14.703  0.00  0.00    +0.000 C 
ATOM     21  C   UNL     1       5.541   4.851  15.970  0.00  0.00    +0.000 C 
BRANCH  21  22
ATOM     22  S   UNL     1       7.023   4.596  17.034  0.00  0.00    +0.000 S 
BRANCH  22  23
ATOM     23  C   UNL     1       7.454   6.213  17.460  0.00  0.00    +0.000 A 
ATOM     24  N   UNL     1       7.393   7.284  16.703  0.00  0.00    +0.000 NA
ATOM     25  N   UNL     1       7.894   8.340  17.435  0.00  0.00    +0.000 NA
ATOM     26  C   UNL     1       8.227   7.881  18.621  0.00  0.00    +0.000 A 
ATOM     27  N   UNL     1       7.953   6.547  18.685  0.00  0.00    +0.000 N 
ATOM     28  C   UNL     1       8.174   5.687  19.816  0.00  0.00    +0.000 C 
ENDBRANCH  22  23
ENDBRANCH  21  22
ENDBRANCH   1  21
TORSDOF 6
ENDMDL
MODEL 6
REMARK VINA RESULT:      -7.9      5.565      7.537
REMARK  Name = 
REMARK  10 active torsions:
REMARK  status: ('A' for Active; 'I' for Inactive)
REMARK    1  A    between atoms: C_1  and  C_2
REMARK    2  A    between atoms: C_2  and  S_3
REMARK    3  A    between atoms: C_2  and  C_10
REMARK    4  A    between atoms: S_3  and  C_4
REMARK    5  A    between atoms: N_8  and  C_9
REMARK    6  A    between atoms: C_14  and  N_15
REMARK    7  A    between atoms: C_16  and  C_18
REMARK    8  A    between atoms: C_22  and  N_23
REMARK    9  A    between atoms: N_23  and  C_24
REMARK   10  A    between atoms: N_23  and  C_25
REMARK                            x       y       z     vdW  Elec       q    Type
REMARK                         _______ _______ _______ _____ _____    ______ ____
ROOT
ATOM      1  C   UNL     1       5.210   4.755  19.068  0.00  0.00    +0.000 A 
ATOM      2  C   UNL     1       4.790   3.426  19.227  0.00  0.00    +0.000 A 
ATOM      3  C   UNL     1       3.554   3.129  19.791  0.00  0.00    +0.000 A 
ATOM      4  C   UNL     1       2.725   4.156  20.233  0.00  0.00    +0.000 A 
ATOM      5  C   UNL     1       3.113   5.493  20.129  0.00  0.00    +0.000 A 
ATOM      6  C   UNL     1       4.344   5.785  19.520  0.00  0.00    +0.000 A 
ENDROOT
BRANCH   5   7
ATOM      7  N   UNL     1       2.299   6.560  20.603  0.00  0.00    +0.000 N 
ATOM      8  C   UNL     1       1.941   7.671  19.850  0.00  0.00    +0.000 C 
ATOM      9  O   UNL     1       2.179   7.832  18.654  0.00  0.00    +0.000 OA
ATOM     10  H   UNL     1       1.847   6.432  21.498  0.00  0.00    +0.000 HD
BRANCH   8  11
ATOM     11  C   UNL     1       1.150   8.740  20.518  0.00  0.00    +0.000 A 
ATOM     12  C   UNL     1       1.069   8.678  21.915  0.00  0.00    +0.000 A 
ATOM     13  C   UNL     1       0.245   9.554  22.602  0.00  0.00    +0.000 A 
ATOM     14  C   UNL     1      -0.504  10.495  21.893  0.00  0.00    +0.000 A 
ATOM     15  C   UNL     1      -0.460  10.595  20.488  0.00  0.00    +0.000 A 
ATOM     16  C   UNL     1       0.398   9.697  19.816  0.00  0.00    +0.000 A 
BRANCH  15  17
ATOM     17  N   UNL     1      -1.227  11.540  19.825  0.00  0.00    +0.000 N 
ATOM     18  C   UNL     1      -1.416  11.482  18.375  0.00  0.00    +0.000 C 
ATOM     19  C   UNL     1      -1.688  12.767  20.459  0.00  0.00    +0.000 C 
ENDBRANCH  15  17
ENDBRANCH   8  11
ENDBRANCH   5   7
BRANCH   1  21
ATOM     20  C   UNL     1       7.607   5.624  19.434  0.00  0.00    +0.000 C 
ATOM     21  C   UNL     1       6.560   5.106  18.432  0.00  0.00    +0.000 C 
BRANCH  21  22
ATOM     22  S   UNL     1       6.299   6.361  17.110  0.00  0.00    +0.000 S 
BRANCH  22  23
ATOM     23  C   UNL     1       6.509   5.431  15.671  0.00  0.00    +0.000 A 
ATOM     24  N   UNL     1       7.523   5.462  14.839  0.00  0.00    +0.000 NA
ATOM     25  N   UNL     1       7.236   4.600  13.800  0.00  0.00    +0.000 NA
ATOM     26  C   UNL     1       6.064   4.059  14.044  0.00  0.00    +0.000 A 
ATOM     27  N   UNL     1       5.575   4.544  15.220  0.00  0.00    +0.000 N 
ATOM     28  C   UNL     1       4.320   4.192  15.829  0.00  0.00    +0.000 C 
ENDBRANCH  22  23
ENDBRANCH  21  22
ENDBRANCH   1  21
TORSDOF 6
ENDMDL
MODEL 7
REMARK VINA RESULT:      -7.9      0.780      1.088
REMARK  Name = 
REMARK  10 active torsions:
REMARK  status: ('A' for Active; 'I' for Inactive)
REMARK    1  A    between atoms: C_1  and  C_2
REMARK    2  A    between atoms: C_2  and  S_3
REMARK    3  A    between atoms: C_2  and  C_10
REMARK    4  A    between atoms: S_3  and  C_4
REMARK    5  A    between atoms: N_8  and  C_9
REMARK    6  A    between atoms: C_14  and  N_15
REMARK    7  A    between atoms: C_16  and  C_18
REMARK    8  A    between atoms: C_22  and  N_23
REMARK    9  A    between atoms: N_23  and  C_24
REMARK   10  A    between atoms: N_23  and  C_25
REMARK                            x       y       z     vdW  Elec       q    Type
REMARK                         _______ _______ _______ _____ _____    ______ ____
ROOT
ATOM      1  C   UNL     1       6.243   6.173  17.532  0.00  0.00    +0.000 A 
ATOM      2  C   UNL     1       6.819   5.387  18.542  0.00  0.00    +0.000 A 
ATOM      3  C   UNL     1       7.894   5.859  19.288  0.00  0.00    +0.000 A 
ATOM      4  C   UNL     1       8.433   7.114  19.019  0.00  0.00    +0.000 A 
ATOM      5  C   UNL     1       7.918   7.918  18.000  0.00  0.00    +0.000 A 
ATOM      6  C   UNL     1       6.806   7.452  17.281  0.00  0.00    +0.000 A 
ENDROOT
BRANCH   5   7
ATOM      7  N   UNL     1       8.470   9.190  17.684  0.00  0.00    +0.000 N 
ATOM      8  C   UNL     1       8.974  10.085  18.619  0.00  0.00    +0.000 C 
ATOM      9  O   UNL     1       9.115   9.861  19.820  0.00  0.00    +0.000 OA
ATOM     10  H   UNL     1       8.625   9.394  16.705  0.00  0.00    +0.000 HD
BRANCH   8  11
ATOM     11  C   UNL     1       9.443  11.411  18.133  0.00  0.00    +0.000 A 
ATOM     12  C   UNL     1      10.771  11.483  17.697  0.00  0.00    +0.000 A 
ATOM     13  C   UNL     1      11.324  12.707  17.355  0.00  0.00    +0.000 A 
ATOM     14  C   UNL     1      10.549  13.864  17.453  0.00  0.00    +0.000 A 
ATOM     15  C   UNL     1       9.210  13.844  17.889  0.00  0.00    +0.000 A 
ATOM     16  C   UNL     1       8.670  12.582  18.218  0.00  0.00    +0.000 A 
BRANCH  15  17
ATOM     17  N   UNL     1       8.480  15.020  17.977  0.00  0.00    +0.000 N 
ATOM     18  C   UNL     1       9.082  16.249  18.493  0.00  0.00    +0.000 C 
ATOM     19  C   UNL     1       7.035  15.065  17.802  0.00  0.00    +0.000 C 
ENDBRANCH  15  17
ENDBRANCH   8  11
ENDBRANCH   5   7
BRANCH   1  21
ATOM     20  C   UNL     1       4.789   6.498  15.430  0.00  0.00    +0.000 C 
ATOM     21  C   UNL     1       5.047   5.682  16.709  0.00  0.00    +0.000 C 
BRANCH  21  22
ATOM     22  S   UNL     1       3.538   5.699  17.765  0.00  0.00    +0.000 S 
BRANCH  22  23
ATOM     23  C   UNL     1       3.086   4.033  17.790  0.00  0.00    +0.000 A 
ATOM     24  N   UNL     1       2.281   3.409  16.962  0.00  0.00    +0.000 NA
ATOM     25  N   UNL     1       2.162   2.106  17.399  0.00  0.00    +0.000 NA
ATOM     26  C   UNL     1       2.914   1.975  18.469  0.00  0.00    +0.000 A 
ATOM     27  N   UNL     1       3.525   3.161  18.744  0.00  0.00    +0.000 N 
ATOM     28  C   UNL     1       4.428   3.420  19.833  0.00  0.00    +0.000 C 
ENDBRANCH  22  23
ENDBRANCH  21  22
ENDBRANCH   1  21
TORSDOF 6
ENDMDL
MODEL 8
REMARK VINA RESULT:      -7.8      5.633      8.624
REMARK  Name = 
REMARK  10 active torsions:
REMARK  status: ('A' for Active; 'I' for Inactive)
REMARK    1  A    between atoms: C_1  and  C_2
REMARK    2  A    between atoms: C_2  and  S_3
REMARK    3  A    between atoms: C_2  and  C_10
REMARK    4  A    between atoms: S_3  and  C_4
REMARK    5  A    between atoms: N_8  and  C_9
REMARK    6  A    between atoms: C_14  and  N_15
REMARK    7  A    between atoms: C_16  and  C_18
REMARK    8  A    between atoms: C_22  and  N_23
REMARK    9  A    between atoms: N_23  and  C_24
REMARK   10  A    between atoms: N_23  and  C_25
REMARK                            x       y       z     vdW  Elec       q    Type
REMARK                         _______ _______ _______ _____ _____    ______ ____
ROOT
ATOM      1  C   UNL     1       2.749   6.480  19.148  0.00  0.00    +0.000 A 
ATOM      2  C   UNL     1       2.474   5.456  20.067  0.00  0.00    +0.000 A 
ATOM      3  C   UNL     1       2.877   4.148  19.820  0.00  0.00    +0.000 A 
ATOM      4  C   UNL     1       3.538   3.833  18.637  0.00  0.00    +0.000 A 
ATOM      5  C   UNL     1       3.803   4.810  17.675  0.00  0.00    +0.000 A 
ATOM      6  C   UNL     1       3.431   6.135  17.951  0.00  0.00    +0.000 A 
ENDROOT
BRANCH   5   7
ATOM      7  N   UNL     1       4.448   4.509  16.444  0.00  0.00    +0.000 N 
ATOM      8  C   UNL     1       5.759   4.850  16.137  0.00  0.00    +0.000 C 
ATOM      9  O   UNL     1       6.569   5.352  16.915  0.00  0.00    +0.000 OA
ATOM     10  H   UNL     1       3.961   3.892  15.808  0.00  0.00    +0.000 HD
BRANCH   8  11
ATOM     11  C   UNL     1       6.261   4.534  14.772  0.00  0.00    +0.000 A 
ATOM     12  C   UNL     1       7.390   5.241  14.341  0.00  0.00    +0.000 A 
ATOM     13  C   UNL     1       7.839   5.104  13.037  0.00  0.00    +0.000 A 
ATOM     14  C   UNL     1       7.156   4.261  12.159  0.00  0.00    +0.000 A 
ATOM     15  C   UNL     1       6.014   3.532  12.543  0.00  0.00    +0.000 A 
ATOM     16  C   UNL     1       5.587   3.682  13.881  0.00  0.00    +0.000 A 
BRANCH  15  17
ATOM     17  N   UNL     1       5.363   2.711  11.634  0.00  0.00    +0.000 N 
ATOM     18  C   UNL     1       4.018   3.029  11.153  0.00  0.00    +0.000 C 
ATOM     19  C   UNL     1       5.847   1.384  11.284  0.00  0.00    +0.000 C 
ENDBRANCH  15  17
ENDBRANCH   8  11
ENDBRANCH   5   7
BRANCH   1  21
ATOM     20  C   UNL     1       1.421   8.112  20.634  0.00  0.00    +0.000 C 
ATOM     21  C   UNL     1       2.331   7.932  19.406  0.00  0.00    +0.000 C 
BRANCH  21  22
ATOM     22  S   UNL     1       1.485   8.593  17.909  0.00  0.00    +0.000 S 
BRANCH  22  23
ATOM     23  C   UNL     1       1.409  10.285  18.245  0.00  0.00    +0.000 A 
ATOM     24  N   UNL     1       2.385  11.159  18.179  0.00  0.00    +0.000 NA
ATOM     25  N   UNL     1       1.884  12.376  18.592  0.00  0.00    +0.000 NA
ATOM     26  C   UNL     1       0.613  12.206  18.880  0.00  0.00    +0.000 A 
ATOM     27  N   UNL     1       0.267  10.906  18.662  0.00  0.00    +0.000 N 
ATOM     28  C   UNL     1      -1.035  10.328  18.860  0.00  0.00    +0.000 C 
ENDBRANCH  22  23
ENDBRANCH  21  22
ENDBRANCH   1  21
TORSDOF 6
ENDMDL
MODEL 9
REMARK VINA RESULT:      -7.8      5.984      9.365
REMARK  Name = 
REMARK  10 active torsions:
REMARK  status: ('A' for Active; 'I' for Inactive)
REMARK    1  A    between atoms: C_1  and  C_2
REMARK    2  A    between atoms: C_2  and  S_3
REMARK    3  A    between atoms: C_2  and  C_10
REMARK    4  A    between atoms: S_3  and  C_4
REMARK    5  A    between atoms: N_8  and  C_9
REMARK    6  A    between atoms: C_14  and  N_15
REMARK    7  A    between atoms: C_16  and  C_18
REMARK    8  A    between atoms: C_22  and  N_23
REMARK    9  A    between atoms: N_23  and  C_24
REMARK   10  A    between atoms: N_23  and  C_25
REMARK                            x       y       z     vdW  Elec       q    Type
REMARK                         _______ _______ _______ _____ _____    ______ ____
ROOT
ATOM      1  C   UNL     1      -0.254  11.406  18.538  0.00  0.00    +0.000 A 
ATOM      2  C   UNL     1       0.672  12.441  18.737  0.00  0.00    +0.000 A 
ATOM      3  C   UNL     1       2.032  12.233  18.533  0.00  0.00    +0.000 A 
ATOM      4  C   UNL     1       2.496  10.977  18.153  0.00  0.00    +0.000 A 
ATOM      5  C   UNL     1       1.618   9.905  17.977  0.00  0.00    +0.000 A 
ATOM      6  C   UNL     1       0.243  10.136  18.145  0.00  0.00    +0.000 A 
ENDROOT
BRANCH   5   7
ATOM      7  N   UNL     1       2.069   8.604  17.621  0.00  0.00    +0.000 N 
ATOM      8  C   UNL     1       2.385   7.603  18.532  0.00  0.00    +0.000 C 
ATOM      9  O   UNL     1       2.214   7.663  19.749  0.00  0.00    +0.000 OA
ATOM     10  H   UNL     1       2.028   8.354  16.642  0.00  0.00    +0.000 HD
BRANCH   8  11
ATOM     11  C   UNL     1       2.921   6.321  18.000  0.00  0.00    +0.000 A 
ATOM     12  C   UNL     1       2.083   5.204  18.098  0.00  0.00    +0.000 A 
ATOM     13  C   UNL     1       2.555   3.949  17.750  0.00  0.00    +0.000 A 
ATOM     14  C   UNL     1       3.871   3.807  17.305  0.00  0.00    +0.000 A 
ATOM     15  C   UNL     1       4.754   4.899  17.192  0.00  0.00    +0.000 A 
ATOM     16  C   UNL     1       4.241   6.167  17.542  0.00  0.00    +0.000 A 
BRANCH  15  17
ATOM     17  N   UNL     1       6.055   4.710  16.752  0.00  0.00    +0.000 N 
ATOM     18  C   UNL     1       6.336   4.251  15.391  0.00  0.00    +0.000 C 
ATOM     19  C   UNL     1       7.200   4.715  17.651  0.00  0.00    +0.000 C 
ENDBRANCH  15  17
ENDBRANCH   8  11
ENDBRANCH   5   7
BRANCH   1  21
ATOM     20  C   UNL     1      -2.137  12.120  20.144  0.00  0.00    +0.000 C 
ATOM     21  C   UNL     1      -1.759  11.617  18.740  0.00  0.00    +0.000 C 
BRANCH  21  22
ATOM     22  S   UNL     1      -2.643  10.039  18.391  0.00  0.00    +0.000 S 
BRANCH  22  23
ATOM     23  C   UNL     1      -3.003  10.182  16.709  0.00  0.00    +0.000 A 
ATOM     24  N   UNL     1      -2.362   9.634  15.703  0.00  0.00    +0.000 NA
ATOM     25  N   UNL     1      -2.960  10.071  14.539  0.00  0.00    +0.000 NA
ATOM     26  C   UNL     1      -3.958  10.857  14.875  0.00  0.00    +0.000 A 
ATOM     27  N   UNL     1      -4.031  10.944  16.233  0.00  0.00    +0.000 N 
ATOM     28  C   UNL     1      -4.990  11.707  16.986  0.00  0.00    +0.000 C 
ENDBRANCH  22  23
ENDBRANCH  21  22
ENDBRANCH   1  21
TORSDOF 6
ENDMDL
