MODEL 1
REMARK VINA RESULT:      -8.5      0.000      0.000
REMARK  Name = 
REMARK  10 active torsions:
REMARK  status: ('A' for Active; 'I' for Inactive)
REMARK    1  A    between atoms: C_1  and  O_2
REMARK    2  A    between atoms: O_2  and  C_3
REMARK    3  A    between atoms: C_5  and  C_6
REMARK    4  A    between atoms: N_8  and  C_9
REMARK    5  A    between atoms: C_13  and  C_14
REMARK    6  A    between atoms: C_14  and  C_15
REMARK    7  A    between atoms: C_14  and  C_16
REMARK    8  A    between atoms: C_16  and  C_17
REMARK    9  A    between atoms: N_21  and  C_22
REMARK   10  A    between atoms: C_25  and  C_26
REMARK                            x       y       z     vdW  Elec       q    Type
REMARK                         _______ _______ _______ _____ _____    ______ ____
ROOT
ATOM      1  C   UNL     1       8.040   8.373  18.096  0.00  0.00    +0.000 C 
ATOM      2  O   UNL     1       8.577   7.566  18.848  0.00  0.00    +0.000 OA
ATOM      3  N   UNL     1       7.057   8.098  17.161  0.00  0.00    +0.000 N 
ATOM      4  H   UNL     1       6.770   8.880  16.578  0.00  0.00    +0.000 HD
ENDROOT
BRANCH   1   7
ATOM      5  C   UNL     1       8.081  12.086  17.601  0.00  0.00    +0.000 A 
ATOM      6  C   UNL     1       7.701  10.756  17.537  0.00  0.00    +0.000 A 
ATOM      7  C   UNL     1       8.477   9.804  18.186  0.00  0.00    +0.000 A 
ATOM      8  N   UNL     1       9.611  10.091  18.879  0.00  0.00    +0.000 NA
ATOM      9  C   UNL     1       9.983  11.408  18.923  0.00  0.00    +0.000 A 
ATOM     10  C   UNL     1       9.237  12.416  18.303  0.00  0.00    +0.000 A 
BRANCH   9  11
ATOM     11  C   UNL     1      11.248  11.821  19.670  0.00  0.00    +0.000 C 
ATOM     12  F   UNL     1      11.612  13.118  19.469  0.00  0.00    +0.000 F 
ATOM     13  F   UNL     1      11.128  11.673  21.022  0.00  0.00    +0.000 F 
ATOM     14  F   UNL     1      12.330  11.068  19.315  0.00  0.00    +0.000 F 
ENDBRANCH   9  11
BRANCH   5  16
ATOM     15  C   UNL     1       7.421  14.364  17.747  0.00  0.00    +0.000 C 
ATOM     16  O   UNL     1       7.414  13.132  17.027  0.00  0.00    +0.000 OA
ENDBRANCH   5  16
ENDBRANCH   1   7
BRANCH   3  17
ATOM     17  C   UNL     1       6.390   6.858  16.991  0.00  0.00    +0.000 A 
ATOM     18  C   UNL     1       7.033   5.701  16.550  0.00  0.00    +0.000 A 
ATOM     19  C   UNL     1       6.351   4.487  16.460  0.00  0.00    +0.000 A 
ATOM     20  C   UNL     1       5.016   4.402  16.843  0.00  0.00    +0.000 A 
ATOM     21  C   UNL     1       4.342   5.537  17.310  0.00  0.00    +0.000 A 
ATOM     22  C   UNL     1       5.033   6.772  17.337  0.00  0.00    +0.000 A 
BRANCH  21  23
ATOM     23  C   UNL     1       2.910   5.396  17.833  0.00  0.00    +0.000 C 
ATOM     24  C   UNL     1       2.755   6.144  19.161  0.00  0.00    +0.000 C 
BRANCH  23  25
ATOM     25  C   UNL     1       2.530   3.902  17.888  0.00  0.00    +0.000 C 
BRANCH  25  26
ATOM     26  C   UNL     1       2.186   3.365  19.235  0.00  0.00    +0.000 A 
ATOM     27  N   UNL     1       1.007   3.485  19.815  0.00  0.00    +0.000 NA
ATOM     28  N   UNL     1       1.119   3.074  21.119  0.00  0.00    +0.000 NA
ATOM     29  C   UNL     1       2.362   2.706  21.311  0.00  0.00    +0.000 A 
ATOM     30  N   UNL     1       3.057   2.820  20.147  0.00  0.00    +0.000 N 
ATOM     31  C   UNL     1       4.435   2.452  19.963  0.00  0.00    +0.000 C 
ENDBRANCH  25  26
ENDBRANCH  23  25
ENDBRANCH  21  23
ENDBRANCH   3  17
TORSDOF 7
ENDMDL
MODEL 2
REMARK VINA RESULT:      -8.5      5.200      7.536
REMARK  Name = 
REMARK  10 active torsions:
REMARK  status: ('A' for Active; 'I' for Inactive)
REMARK    1  A    between atoms: C_1  and  O_2
REMARK    2  A    between atoms: O_2  and  C_3
REMARK    3  A    between atoms: C_5  and  C_6
REMARK    4  A    between atoms: N_8  and  C_9
REMARK    5  A    between atoms: C_13  and  C_14
REMARK    6  A    between atoms: C_14  and  C_15
REMARK    7  A    between atoms: C_14  and  C_16
REMARK    8  A    between atoms: C_16  and  C_17
REMARK    9  A    between atoms: N_21  and  C_22
REMARK   10  A    between atoms: C_25  and  C_26
REMARK                            x       y       z     vdW  Elec       q    Type
REMARK                         _______ _______ _______ _____ _____    ______ ____
ROOT
ATOM      1  C   UNL     1       1.987   8.301  18.306  0.00  0.00    +0.000 C 
ATOM      2  O   UNL     1       2.396   8.638  17.199  0.00  0.00    +0.000 OA
ATOM      3  N   UNL     1       1.993   7.019  18.829  0.00  0.00    +0.000 N 
ATOM      4  H   UNL     1       1.556   6.912  19.741  0.00  0.00    +0.000 HD
ENDROOT
BRANCH   1   7
ATOM      5  C   UNL     1       0.901  11.679  19.506  0.00  0.00    +0.000 A 
ATOM      6  C   UNL     1       1.416  10.671  18.708  0.00  0.00    +0.000 A 
ATOM      7  C   UNL     1       1.423   9.369  19.193  0.00  0.00    +0.000 A 
ATOM      8  N   UNL     1       0.966   9.013  20.422  0.00  0.00    +0.000 NA
ATOM      9  C   UNL     1       0.472  10.022  21.207  0.00  0.00    +0.000 A 
ATOM     10  C   UNL     1       0.424  11.351  20.771  0.00  0.00    +0.000 A 
BRANCH   9  11
ATOM     11  C   UNL     1      -0.052   9.715  22.606  0.00  0.00    +0.000 C 
ATOM     12  F   UNL     1      -0.740  10.743  23.177  0.00  0.00    +0.000 F 
ATOM     13  F   UNL     1      -0.900   8.645  22.624  0.00  0.00    +0.000 F 
ATOM     14  F   UNL     1       0.949   9.402  23.480  0.00  0.00    +0.000 F 
ENDBRANCH   9  11
BRANCH   5  16
ATOM     15  C   UNL     1      -0.377  13.406  18.491  0.00  0.00    +0.000 C 
ATOM     16  O   UNL     1       0.816  12.999  19.161  0.00  0.00    +0.000 OA
ENDBRANCH   5  16
ENDBRANCH   1   7
BRANCH   3  17
ATOM     17  C   UNL     1       2.597   5.879  18.240  0.00  0.00    +0.000 A 
ATOM     18  C   UNL     1       2.024   4.608  18.279  0.00  0.00    +0.000 A 
ATOM     19  C   UNL     1       2.623   3.528  17.629  0.00  0.00    +0.000 A 
ATOM     20  C   UNL     1       3.792   3.709  16.897  0.00  0.00    +0.000 A 
ATOM     21  C   UNL     1       4.386   4.975  16.817  0.00  0.00    +0.000 A 
ATOM     22  C   UNL     1       3.798   6.045  17.533  0.00  0.00    +0.000 A 
BRANCH  21  23
ATOM     23  C   UNL     1       5.606   5.175  15.914  0.00  0.00    +0.000 C 
ATOM     24  C   UNL     1       5.575   4.178  14.752  0.00  0.00    +0.000 C 
BRANCH  23  25
ATOM     25  C   UNL     1       6.889   5.126  16.771  0.00  0.00    +0.000 C 
BRANCH  25  26
ATOM     26  C   UNL     1       7.315   6.416  17.382  0.00  0.00    +0.000 A 
ATOM     27  N   UNL     1       7.350   7.574  16.750  0.00  0.00    +0.000 NA
ATOM     28  N   UNL     1       7.996   8.486  17.546  0.00  0.00    +0.000 NA
ATOM     29  C   UNL     1       8.339   7.871  18.651  0.00  0.00    +0.000 A 
ATOM     30  N   UNL     1       7.889   6.587  18.618  0.00  0.00    +0.000 N 
ATOM     31  C   UNL     1       8.031   5.631  19.683  0.00  0.00    +0.000 C 
ENDBRANCH  25  26
ENDBRANCH  23  25
ENDBRANCH  21  23
ENDBRANCH   3  17
TORSDOF 7
ENDMDL
MODEL 3
REMARK VINA RESULT:      -8.2      6.335      8.970
REMARK  Name = 
REMARK  10 active torsions:
REMARK  status: ('A' for Active; 'I' for Inactive)
REMARK    1  A    between atoms: C_1  and  O_2
REMARK    2  A    between atoms: O_2  and  C_3
REMARK    3  A    between atoms: C_5  and  C_6
REMARK    4  A    between atoms: N_8  and  C_9
REMARK    5  A    between atoms: C_13  and  C_14
REMARK    6  A    between atoms: C_14  and  C_15
REMARK    7  A    between atoms: C_14  and  C_16
REMARK    8  A    between atoms: C_16  and  C_17
REMARK    9  A    between atoms: N_21  and  C_22
REMARK   10  A    between atoms: C_25  and  C_26
REMARK                            x       y       z     vdW  Elec       q    Type
REMARK                         _______ _______ _______ _____ _____    ______ ____
ROOT
ATOM      1  C   UNL     1       2.371   7.545  18.593  0.00  0.00    +0.000 C 
ATOM      2  O   UNL     1       2.138   7.522  19.798  0.00  0.00    +0.000 OA
ATOM      3  N   UNL     1       2.111   8.591  17.725  0.00  0.00    +0.000 N 
ATOM      4  H   UNL     1       2.312   8.412  16.744  0.00  0.00    +0.000 HD
ENDROOT
BRANCH   1   7
ATOM      5  C   UNL     1       2.895   3.973  17.593  0.00  0.00    +0.000 A 
ATOM      6  C   UNL     1       2.338   5.115  18.144  0.00  0.00    +0.000 A 
ATOM      7  C   UNL     1       2.998   6.327  17.984  0.00  0.00    +0.000 A 
ATOM      8  N   UNL     1       4.178   6.470  17.326  0.00  0.00    +0.000 NA
ATOM      9  C   UNL     1       4.725   5.330  16.797  0.00  0.00    +0.000 A 
ATOM     10  C   UNL     1       4.103   4.082  16.911  0.00  0.00    +0.000 A 
BRANCH   9  11
ATOM     11  C   UNL     1       6.054   5.395  16.051  0.00  0.00    +0.000 C 
ATOM     12  F   UNL     1       6.918   6.328  16.538  0.00  0.00    +0.000 F 
ATOM     13  F   UNL     1       6.730   4.209  16.084  0.00  0.00    +0.000 F 
ATOM     14  F   UNL     1       5.893   5.687  14.728  0.00  0.00    +0.000 F 
ENDBRANCH   9  11
BRANCH   5  16
ATOM     15  C   UNL     1       3.081   1.753  18.417  0.00  0.00    +0.000 C 
ATOM     16  O   UNL     1       2.357   2.718  17.655  0.00  0.00    +0.000 OA
ENDBRANCH   5  16
ENDBRANCH   1   7
BRANCH   3  17
ATOM     17  C   UNL     1       1.655   9.884  18.089  0.00  0.00    +0.000 A 
ATOM     18  C   UNL     1       2.491  10.999  18.142  0.00  0.00    +0.000 A 
ATOM     19  C   UNL     1       1.985  12.266  18.440  0.00  0.00    +0.000 A 
ATOM     20  C   UNL     1       0.622  12.444  18.659  0.00  0.00    +0.000 A 
ATOM     21  C   UNL     1      -0.251  11.351  18.594  0.00  0.00    +0.000 A 
ATOM     22  C   UNL     1       0.288  10.066  18.350  0.00  0.00    +0.000 A 
BRANCH  21  23
ATOM     23  C   UNL     1      -1.758  11.588  18.724  0.00  0.00    +0.000 C 
ATOM     24  C   UNL     1      -2.097  12.091  20.131  0.00  0.00    +0.000 C 
BRANCH  23  25
ATOM     25  C   UNL     1      -2.514  10.313  18.297  0.00  0.00    +0.000 C 
BRANCH  25  26
ATOM     26  C   UNL     1      -2.969  10.269  16.878  0.00  0.00    +0.000 A 
ATOM     27  N   UNL     1      -2.327   9.658  15.901  0.00  0.00    +0.000 NA
ATOM     28  N   UNL     1      -2.910  10.011  14.709  0.00  0.00    +0.000 NA
ATOM     29  C   UNL     1      -3.900  10.826  14.981  0.00  0.00    +0.000 A 
ATOM     30  N   UNL     1      -4.010  10.977  16.329  0.00  0.00    +0.000 N 
ATOM     31  C   UNL     1      -5.019  11.753  16.997  0.00  0.00    +0.000 C 
ENDBRANCH  25  26
ENDBRANCH  23  25
ENDBRANCH  21  23
ENDBRANCH   3  17
TORSDOF 7
ENDMDL
MODEL 4
REMARK VINA RESULT:      -8.2      5.932      8.751
REMARK  Name = 
REMARK  10 active torsions:
REMARK  status: ('A' for Active; 'I' for Inactive)
REMARK    1  A    between atoms: C_1  and  O_2
REMARK    2  A    between atoms: O_2  and  C_3
REMARK    3  A    between atoms: C_5  and  C_6
REMARK    4  A    between atoms: N_8  and  C_9
REMARK    5  A    between atoms: C_13  and  C_14
REMARK    6  A    between atoms: C_14  and  C_15
REMARK    7  A    between atoms: C_14  and  C_16
REMARK    8  A    between atoms: C_16  and  C_17
REMARK    9  A    between atoms: N_21  and  C_22
REMARK   10  A    between atoms: C_25  and  C_26
REMARK                            x       y       z     vdW  Elec       q    Type
REMARK                         _______ _______ _______ _____ _____    ______ ____
ROOT
ATOM      1  C   UNL     1       2.706   7.561  18.306  0.00  0.00    +0.000 C 
ATOM      2  O   UNL     1       2.573   8.411  17.431  0.00  0.00    +0.000 OA
ATOM      3  N   UNL     1       2.201   7.619  19.593  0.00  0.00    +0.000 N 
ATOM      4  H   UNL     1       2.463   6.850  20.207  0.00  0.00    +0.000 HD
ENDROOT
BRANCH   1   7
ATOM      5  C   UNL     1       3.496   3.974  17.566  0.00  0.00    +0.000 A 
ATOM      6  C   UNL     1       2.797   5.128  17.879  0.00  0.00    +0.000 A 
ATOM      7  C   UNL     1       3.490   6.330  17.964  0.00  0.00    +0.000 A 
ATOM      8  N   UNL     1       4.830   6.450  17.772  0.00  0.00    +0.000 NA
ATOM      9  C   UNL     1       5.512   5.298  17.477  0.00  0.00    +0.000 A 
ATOM     10  C   UNL     1       4.870   4.060  17.363  0.00  0.00    +0.000 A 
BRANCH   9  11
ATOM     11  C   UNL     1       7.020   5.338  17.256  0.00  0.00    +0.000 C 
ATOM     12  F   UNL     1       7.751   5.188  18.395  0.00  0.00    +0.000 F 
ATOM     13  F   UNL     1       7.450   4.359  16.407  0.00  0.00    +0.000 F 
ATOM     14  F   UNL     1       7.433   6.513  16.697  0.00  0.00    +0.000 F 
ENDBRANCH   9  11
BRANCH   5  16
ATOM     15  C   UNL     1       3.187   1.814  18.506  0.00  0.00    +0.000 C 
ATOM     16  O   UNL     1       2.951   2.727  17.435  0.00  0.00    +0.000 OA
ENDBRANCH   5  16
ENDBRANCH   1   7
BRANCH   3  17
ATOM     17  C   UNL     1       1.320   8.607  20.101  0.00  0.00    +0.000 A 
ATOM     18  C   UNL     1       1.105   8.808  21.464  0.00  0.00    +0.000 A 
ATOM     19  C   UNL     1       0.279   9.837  21.920  0.00  0.00    +0.000 A 
ATOM     20  C   UNL     1      -0.323  10.707  21.015  0.00  0.00    +0.000 A 
ATOM     21  C   UNL     1      -0.115  10.549  19.640  0.00  0.00    +0.000 A 
ATOM     22  C   UNL     1       0.677   9.464  19.194  0.00  0.00    +0.000 A 
BRANCH  21  23
ATOM     23  C   UNL     1      -0.693  11.585  18.671  0.00  0.00    +0.000 C 
ATOM     24  C   UNL     1      -0.264  12.996  19.085  0.00  0.00    +0.000 C 
BRANCH  23  25
ATOM     25  C   UNL     1      -2.218  11.383  18.557  0.00  0.00    +0.000 C 
BRANCH  25  26
ATOM     26  C   UNL     1      -2.705  10.798  17.276  0.00  0.00    +0.000 A 
ATOM     27  N   UNL     1      -1.998  10.008  16.491  0.00  0.00    +0.000 NA
ATOM     28  N   UNL     1      -2.675   9.848  15.308  0.00  0.00    +0.000 NA
ATOM     29  C   UNL     1      -3.786  10.539  15.394  0.00  0.00    +0.000 A 
ATOM     30  N   UNL     1      -3.875  11.109  16.626  0.00  0.00    +0.000 N 
ATOM     31  C   UNL     1      -4.984  11.893  17.099  0.00  0.00    +0.000 C 
ENDBRANCH  25  26
ENDBRANCH  23  25
ENDBRANCH  21  23
ENDBRANCH   3  17
TORSDOF 7
ENDMDL
MODEL 5
REMARK VINA RESULT:      -8.1      7.396      9.910
REMARK  Name = 
REMARK  10 active torsions:
REMARK  status: ('A' for Active; 'I' for Inactive)
REMARK    1  A    between atoms: C_1  and  O_2
REMARK    2  A    between atoms: O_2  and  C_3
REMARK    3  A    between atoms: C_5  and  C_6
REMARK    4  A    between atoms: N_8  and  C_9
REMARK    5  A    between atoms: C_13  and  C_14
REMARK    6  A    between atoms: C_14  and  C_15
REMARK    7  A    between atoms: C_14  and  C_16
REMARK    8  A    between atoms: C_16  and  C_17
REMARK    9  A    between atoms: N_21  and  C_22
REMARK   10  A    between atoms: C_25  and  C_26
REMARK                            x       y       z     vdW  Elec       q    Type
REMARK                         _______ _______ _______ _____ _____    ______ ____
ROOT
ATOM      1  C   UNL     1       2.737   7.353  18.583  0.00  0.00    +0.000 C 
ATOM      2  O   UNL     1       3.013   7.948  17.546  0.00  0.00    +0.000 OA
ATOM      3  N   UNL     1       1.951   7.826  19.620  0.00  0.00    +0.000 N 
ATOM      4  H   UNL     1       1.880   7.220  20.434  0.00  0.00    +0.000 HD
ENDROOT
BRANCH   1   7
ATOM      5  C   UNL     1       5.227   4.569  18.874  0.00  0.00    +0.000 A 
ATOM      6  C   UNL     1       4.680   5.831  18.712  0.00  0.00    +0.000 A 
ATOM      7  C   UNL     1       3.299   5.975  18.763  0.00  0.00    +0.000 A 
ATOM      8  N   UNL     1       2.433   4.944  18.950  0.00  0.00    +0.000 NA
ATOM      9  C   UNL     1       2.987   3.699  19.095  0.00  0.00    +0.000 A 
ATOM     10  C   UNL     1       4.370   3.490  19.068  0.00  0.00    +0.000 A 
BRANCH   9  11
ATOM     11  C   UNL     1       2.090   2.482  19.298  0.00  0.00    +0.000 C 
ATOM     12  F   UNL     1       0.847   2.613  18.756  0.00  0.00    +0.000 F 
ATOM     13  F   UNL     1       2.616   1.347  18.752  0.00  0.00    +0.000 F 
ATOM     14  F   UNL     1       1.894   2.196  20.619  0.00  0.00    +0.000 F 
ENDBRANCH   9  11
BRANCH   5  16
ATOM     15  C   UNL     1       7.302   4.723  17.727  0.00  0.00    +0.000 C 
ATOM     16  O   UNL     1       6.562   4.275  18.862  0.00  0.00    +0.000 OA
ENDBRANCH   5  16
ENDBRANCH   1   7
BRANCH   3  17
ATOM     17  C   UNL     1       1.204   9.032  19.617  0.00  0.00    +0.000 A 
ATOM     18  C   UNL     1       0.787   9.668  18.448  0.00  0.00    +0.000 A 
ATOM     19  C   UNL     1      -0.002  10.817  18.494  0.00  0.00    +0.000 A 
ATOM     20  C   UNL     1      -0.418  11.335  19.718  0.00  0.00    +0.000 A 
ATOM     21  C   UNL     1      -0.036  10.713  20.913  0.00  0.00    +0.000 A 
ATOM     22  C   UNL     1       0.814   9.583  20.848  0.00  0.00    +0.000 A 
BRANCH  21  23
ATOM     23  C   UNL     1      -0.598  11.231  22.240  0.00  0.00    +0.000 C 
ATOM     24  C   UNL     1      -0.758  10.077  23.234  0.00  0.00    +0.000 C 
BRANCH  23  25
ATOM     25  C   UNL     1      -1.889  12.032  21.970  0.00  0.00    +0.000 C 
BRANCH  25  26
ATOM     26  C   UNL     1      -2.596  12.554  23.174  0.00  0.00    +0.000 A 
ATOM     27  N   UNL     1      -3.703  12.042  23.678  0.00  0.00    +0.000 NA
ATOM     28  N   UNL     1      -4.184  12.901  24.635  0.00  0.00    +0.000 NA
ATOM     29  C   UNL     1      -3.360  13.918  24.700  0.00  0.00    +0.000 A 
ATOM     30  N   UNL     1      -2.322  13.722  23.842  0.00  0.00    +0.000 N 
ATOM     31  C   UNL     1      -1.197  14.604  23.686  0.00  0.00    +0.000 C 
ENDBRANCH  25  26
ENDBRANCH  23  25
ENDBRANCH  21  23
ENDBRANCH   3  17
TORSDOF 7
ENDMDL
MODEL 6
REMARK VINA RESULT:      -8.0      5.716      7.800
REMARK  Name = 
REMARK  10 active torsions:
REMARK  status: ('A' for Active; 'I' for Inactive)
REMARK    1  A    between atoms: C_1  and  O_2
REMARK    2  A    between atoms: O_2  and  C_3
REMARK    3  A    between atoms: C_5  and  C_6
REMARK    4  A    between atoms: N_8  and  C_9
REMARK    5  A    between atoms: C_13  and  C_14
REMARK    6  A    between atoms: C_14  and  C_15
REMARK    7  A    between atoms: C_14  and  C_16
REMARK    8  A    between atoms: C_16  and  C_17
REMARK    9  A    between atoms: N_21  and  C_22
REMARK   10  A    between atoms: C_25  and  C_26
REMARK                            x       y       z     vdW  Elec       q    Type
REMARK                         _______ _______ _______ _____ _____    ______ ____
ROOT
ATOM      1  C   UNL     1       2.203   7.693  18.509  0.00  0.00    +0.000 C 
ATOM      2  O   UNL     1       2.822   7.919  17.474  0.00  0.00    +0.000 OA
ATOM      3  N   UNL     1       1.993   6.452  19.087  0.00  0.00    +0.000 N 
ATOM      4  H   UNL     1       1.401   6.444  19.915  0.00  0.00    +0.000 HD
ENDROOT
BRANCH   1   7
ATOM      5  C   UNL     1       1.036  11.181  19.214  0.00  0.00    +0.000 A 
ATOM      6  C   UNL     1       1.577  10.082  18.569  0.00  0.00    +0.000 A 
ATOM      7  C   UNL     1       1.610   8.863  19.234  0.00  0.00    +0.000 A 
ATOM      8  N   UNL     1       1.152   8.674  20.499  0.00  0.00    +0.000 NA
ATOM      9  C   UNL     1       0.631   9.773  21.131  0.00  0.00    +0.000 A 
ATOM     10  C   UNL     1       0.557  11.025  20.511  0.00  0.00    +0.000 A 
BRANCH   9  11
ATOM     11  C   UNL     1       0.104   9.656  22.558  0.00  0.00    +0.000 C 
ATOM     12  F   UNL     1      -0.876   8.722  22.711  0.00  0.00    +0.000 F 
ATOM     13  F   UNL     1       1.080   9.320  23.450  0.00  0.00    +0.000 F 
ATOM     14  F   UNL     1      -0.421  10.829  23.015  0.00  0.00    +0.000 F 
ENDBRANCH   9  11
BRANCH   5  16
ATOM     15  C   UNL     1      -0.392  12.863  18.331  0.00  0.00    +0.000 C 
ATOM     16  O   UNL     1       0.923  12.437  18.685  0.00  0.00    +0.000 OA
ENDBRANCH   5  16
ENDBRANCH   1   7
BRANCH   3  17
ATOM     17  C   UNL     1       2.569   5.226  18.666  0.00  0.00    +0.000 A 
ATOM     18  C   UNL     1       1.916   3.999  18.782  0.00  0.00    +0.000 A 
ATOM     19  C   UNL     1       2.494   2.826  18.294  0.00  0.00    +0.000 A 
ATOM     20  C   UNL     1       3.727   2.867  17.648  0.00  0.00    +0.000 A 
ATOM     21  C   UNL     1       4.403   4.083  17.495  0.00  0.00    +0.000 A 
ATOM     22  C   UNL     1       3.829   5.252  18.049  0.00  0.00    +0.000 A 
BRANCH  21  23
ATOM     23  C   UNL     1       5.700   4.123  16.682  0.00  0.00    +0.000 C 
ATOM     24  C   UNL     1       6.794   4.857  17.464  0.00  0.00    +0.000 C 
BRANCH  23  25
ATOM     25  C   UNL     1       5.409   4.704  15.283  0.00  0.00    +0.000 C 
BRANCH  25  26
ATOM     26  C   UNL     1       6.576   4.804  14.362  0.00  0.00    +0.000 A 
ATOM     27  N   UNL     1       7.643   5.550  14.576  0.00  0.00    +0.000 NA
ATOM     28  N   UNL     1       8.399   5.569  13.432  0.00  0.00    +0.000 NA
ATOM     29  C   UNL     1       7.784   4.830  12.541  0.00  0.00    +0.000 A 
ATOM     30  N   UNL     1       6.665   4.287  13.092  0.00  0.00    +0.000 N 
ATOM     31  C   UNL     1       5.771   3.376  12.429  0.00  0.00    +0.000 C 
ENDBRANCH  25  26
ENDBRANCH  23  25
ENDBRANCH  21  23
ENDBRANCH   3  17
TORSDOF 7
ENDMDL
MODEL 7
REMARK VINA RESULT:      -8.0      6.909      9.531
REMARK  Name = 
REMARK  10 active torsions:
REMARK  status: ('A' for Active; 'I' for Inactive)
REMARK    1  A    between atoms: C_1  and  O_2
REMARK    2  A    between atoms: O_2  and  C_3
REMARK    3  A    between atoms: C_5  and  C_6
REMARK    4  A    between atoms: N_8  and  C_9
REMARK    5  A    between atoms: C_13  and  C_14
REMARK    6  A    between atoms: C_14  and  C_15
REMARK    7  A    between atoms: C_14  and  C_16
REMARK    8  A    between atoms: C_16  and  C_17
REMARK    9  A    between atoms: N_21  and  C_22
REMARK   10  A    between atoms: C_25  and  C_26
REMARK                            x       y       z     vdW  Elec       q    Type
REMARK                         _______ _______ _______ _____ _____    ______ ____
ROOT
ATOM      1  C   UNL     1       2.444   7.885  18.581  0.00  0.00    +0.000 C 
ATOM      2  O   UNL     1       2.640   8.848  17.846  0.00  0.00    +0.000 OA
ATOM      3  N   UNL     1       1.738   7.889  19.772  0.00  0.00    +0.000 N 
ATOM      4  H   UNL     1       1.729   7.010  20.284  0.00  0.00    +0.000 HD
ENDROOT
BRANCH   1   7
ATOM      5  C   UNL     1       4.795   5.370  17.105  0.00  0.00    +0.000 A 
ATOM      6  C   UNL     1       4.241   6.575  17.504  0.00  0.00    +0.000 A 
ATOM      7  C   UNL     1       3.018   6.565  18.164  0.00  0.00    +0.000 A 
ATOM      8  N   UNL     1       2.310   5.437  18.437  0.00  0.00    +0.000 NA
ATOM      9  C   UNL     1       2.863   4.253  18.025  0.00  0.00    +0.000 A 
ATOM     10  C   UNL     1       4.098   4.195  17.369  0.00  0.00    +0.000 A 
BRANCH   9  11
ATOM     11  C   UNL     1       2.133   2.938  18.280  0.00  0.00    +0.000 C 
ATOM     12  F   UNL     1       2.382   2.395  19.504  0.00  0.00    +0.000 F 
ATOM     13  F   UNL     1       0.776   3.070  18.201  0.00  0.00    +0.000 F 
ATOM     14  F   UNL     1       2.460   1.977  17.369  0.00  0.00    +0.000 F 
ENDBRANCH   9  11
BRANCH   5  16
ATOM     15  C   UNL     1       7.143   5.059  17.288  0.00  0.00    +0.000 C 
ATOM     16  O   UNL     1       5.991   5.220  16.461  0.00  0.00    +0.000 OA
ENDBRANCH   5  16
ENDBRANCH   1   7
BRANCH   3  17
ATOM     17  C   UNL     1       0.992   8.976  20.297  0.00  0.00    +0.000 A 
ATOM     18  C   UNL     1       0.952   9.284  21.657  0.00  0.00    +0.000 A 
ATOM     19  C   UNL     1       0.258  10.403  22.121  0.00  0.00    +0.000 A 
ATOM     20  C   UNL     1      -0.383  11.254  21.225  0.00  0.00    +0.000 A 
ATOM     21  C   UNL     1      -0.347  10.988  19.851  0.00  0.00    +0.000 A 
ATOM     22  C   UNL     1       0.310   9.817  19.404  0.00  0.00    +0.000 A 
BRANCH  21  23
ATOM     23  C   UNL     1      -0.959  11.997  18.876  0.00  0.00    +0.000 C 
ATOM     24  C   UNL     1      -0.653  13.427  19.331  0.00  0.00    +0.000 C 
BRANCH  23  25
ATOM     25  C   UNL     1      -2.460  11.687  18.694  0.00  0.00    +0.000 C 
BRANCH  25  26
ATOM     26  C   UNL     1      -2.843  11.051  17.402  0.00  0.00    +0.000 A 
ATOM     27  N   UNL     1      -2.036  10.326  16.651  0.00  0.00    +0.000 NA
ATOM     28  N   UNL     1      -2.652  10.095  15.446  0.00  0.00    +0.000 NA
ATOM     29  C   UNL     1      -3.825  10.678  15.486  0.00  0.00    +0.000 A 
ATOM     30  N   UNL     1      -4.012  11.245  16.708  0.00  0.00    +0.000 N 
ATOM     31  C   UNL     1      -5.207  11.923  17.134  0.00  0.00    +0.000 C 
ENDBRANCH  25  26
ENDBRANCH  23  25
ENDBRANCH  21  23
ENDBRANCH   3  17
TORSDOF 7
ENDMDL
MODEL 8
REMARK VINA RESULT:      -8.0      6.923      9.342
REMARK  Name = 
REMARK  10 active torsions:
REMARK  status: ('A' for Active; 'I' for Inactive)
REMARK    1  A    between atoms: C_1  and  O_2
REMARK    2  A    between atoms: O_2  and  C_3
REMARK    3  A    between atoms: C_5  and  C_6
REMARK    4  A    between atoms: N_8  and  C_9
REMARK    5  A    between atoms: C_13  and  C_14
REMARK    6  A    between atoms: C_14  and  C_15
REMARK    7  A    between atoms: C_14  and  C_16
REMARK    8  A    between atoms: C_16  and  C_17
REMARK    9  A    between atoms: N_21  and  C_22
REMARK   10  A    between atoms: C_25  and  C_26
REMARK                            x       y       z     vdW  Elec       q    Type
REMARK                         _______ _______ _______ _____ _____    ______ ____
ROOT
ATOM      1  C   UNL     1       2.320   7.703  18.793  0.00  0.00    +0.000 C 
ATOM      2  O   UNL     1       2.029   7.703  19.985  0.00  0.00    +0.000 OA
ATOM      3  N   UNL     1       2.092   8.727  17.890  0.00  0.00    +0.000 N 
ATOM      4  H   UNL     1       2.342   8.530  16.924  0.00  0.00    +0.000 HD
ENDROOT
BRANCH   1   7
ATOM      5  C   UNL     1       4.667   5.558  16.812  0.00  0.00    +0.000 A 
ATOM      6  C   UNL     1       4.030   6.669  17.339  0.00  0.00    +0.000 A 
ATOM      7  C   UNL     1       2.990   6.481  18.241  0.00  0.00    +0.000 A 
ATOM      8  N   UNL     1       2.539   5.262  18.639  0.00  0.00    +0.000 NA
ATOM      9  C   UNL     1       3.169   4.171  18.099  0.00  0.00    +0.000 A 
ATOM     10  C   UNL     1       4.231   4.294  17.196  0.00  0.00    +0.000 A 
BRANCH   9  11
ATOM     11  C   UNL     1       2.721   2.764  18.480  0.00  0.00    +0.000 C 
ATOM     12  F   UNL     1       2.010   2.704  19.640  0.00  0.00    +0.000 F 
ATOM     13  F   UNL     1       1.928   2.192  17.528  0.00  0.00    +0.000 F 
ATOM     14  F   UNL     1       3.774   1.909  18.641  0.00  0.00    +0.000 F 
ENDBRANCH   9  11
BRANCH   5  16
ATOM     15  C   UNL     1       6.815   4.732  16.221  0.00  0.00    +0.000 C 
ATOM     16  O   UNL     1       5.709   5.585  15.928  0.00  0.00    +0.000 OA
ENDBRANCH   5  16
ENDBRANCH   1   7
BRANCH   3  17
ATOM     17  C   UNL     1       1.604  10.022  18.202  0.00  0.00    +0.000 A 
ATOM     18  C   UNL     1       2.411  11.159  18.207  0.00  0.00    +0.000 A 
ATOM     19  C   UNL     1       1.874  12.423  18.456  0.00  0.00    +0.000 A 
ATOM     20  C   UNL     1       0.507  12.576  18.672  0.00  0.00    +0.000 A 
ATOM     21  C   UNL     1      -0.338  11.460  18.654  0.00  0.00    +0.000 A 
ATOM     22  C   UNL     1       0.233  10.180  18.460  0.00  0.00    +0.000 A 
BRANCH  21  23
ATOM     23  C   UNL     1      -1.851  11.663  18.780  0.00  0.00    +0.000 C 
ATOM     24  C   UNL     1      -2.204  12.161  20.184  0.00  0.00    +0.000 C 
BRANCH  23  25
ATOM     25  C   UNL     1      -2.577  10.371  18.353  0.00  0.00    +0.000 C 
BRANCH  25  26
ATOM     26  C   UNL     1      -3.004  10.303  16.927  0.00  0.00    +0.000 A 
ATOM     27  N   UNL     1      -2.344   9.677  15.971  0.00  0.00    +0.000 NA
ATOM     28  N   UNL     1      -2.905  10.010  14.764  0.00  0.00    +0.000 NA
ATOM     29  C   UNL     1      -3.899  10.830  15.003  0.00  0.00    +0.000 A 
ATOM     30  N   UNL     1      -4.035  11.003  16.346  0.00  0.00    +0.000 N 
ATOM     31  C   UNL     1      -5.056  11.790  16.982  0.00  0.00    +0.000 C 
ENDBRANCH  25  26
ENDBRANCH  23  25
ENDBRANCH  21  23
ENDBRANCH   3  17
TORSDOF 7
ENDMDL
MODEL 9
REMARK VINA RESULT:      -8.0      6.972      9.800
REMARK  Name = 
REMARK  10 active torsions:
REMARK  status: ('A' for Active; 'I' for Inactive)
REMARK    1  A    between atoms: C_1  and  O_2
REMARK    2  A    between atoms: O_2  and  C_3
REMARK    3  A    between atoms: C_5  and  C_6
REMARK    4  A    between atoms: N_8  and  C_9
REMARK    5  A    between atoms: C_13  and  C_14
REMARK    6  A    between atoms: C_14  and  C_15
REMARK    7  A    between atoms: C_14  and  C_16
REMARK    8  A    between atoms: C_16  and  C_17
REMARK    9  A    between atoms: N_21  and  C_22
REMARK   10  A    between atoms: C_25  and  C_26
REMARK                            x       y       z     vdW  Elec       q    Type
REMARK                         _______ _______ _______ _____ _____    ______ ____
ROOT
ATOM      1  C   UNL     1       1.829   7.934  19.741  0.00  0.00    +0.000 C 
ATOM      2  O   UNL     1       1.884   8.761  18.836  0.00  0.00    +0.000 OA
ATOM      3  N   UNL     1       1.178   8.085  20.954  0.00  0.00    +0.000 N 
ATOM      4  H   UNL     1       1.289   7.319  21.614  0.00  0.00    +0.000 HD
ENDROOT
BRANCH   1   7
ATOM      5  C   UNL     1       4.131   5.360  18.293  0.00  0.00    +0.000 A 
ATOM      6  C   UNL     1       3.470   6.556  18.511  0.00  0.00    +0.000 A 
ATOM      7  C   UNL     1       2.528   6.626  19.530  0.00  0.00    +0.000 A 
ATOM      8  N   UNL     1       2.195   5.579  20.331  0.00  0.00    +0.000 NA
ATOM      9  C   UNL     1       2.847   4.397  20.095  0.00  0.00    +0.000 A 
ATOM     10  C   UNL     1       3.816   4.266  19.094  0.00  0.00    +0.000 A 
BRANCH   9  11
ATOM     11  C   UNL     1       2.529   3.167  20.938  0.00  0.00    +0.000 C 
ATOM     12  F   UNL     1       2.204   3.450  22.230  0.00  0.00    +0.000 F 
ATOM     13  F   UNL     1       1.480   2.449  20.441  0.00  0.00    +0.000 F 
ATOM     14  F   UNL     1       3.575   2.293  20.997  0.00  0.00    +0.000 F 
ENDBRANCH   9  11
BRANCH   5  16
ATOM     15  C   UNL     1       4.802   4.142  16.366  0.00  0.00    +0.000 C 
ATOM     16  O   UNL     1       5.089   5.144  17.341  0.00  0.00    +0.000 OA
ENDBRANCH   5  16
ENDBRANCH   1   7
BRANCH   3  17
ATOM     17  C   UNL     1       0.339   9.168  21.323  0.00  0.00    +0.000 A 
ATOM     18  C   UNL     1       0.054   9.492  22.649  0.00  0.00    +0.000 A 
ATOM     19  C   UNL     1      -0.723  10.607  22.967  0.00  0.00    +0.000 A 
ATOM     20  C   UNL     1      -1.204  11.439  21.959  0.00  0.00    +0.000 A 
ATOM     21  C   UNL     1      -0.922  11.156  20.617  0.00  0.00    +0.000 A 
ATOM     22  C   UNL     1      -0.182   9.989  20.311  0.00  0.00    +0.000 A 
BRANCH  21  23
ATOM     23  C   UNL     1      -1.362  12.146  19.535  0.00  0.00    +0.000 C 
ATOM     24  C   UNL     1      -1.131  13.585  20.006  0.00  0.00    +0.000 C 
BRANCH  23  25
ATOM     25  C   UNL     1      -2.813  11.831  19.115  0.00  0.00    +0.000 C 
BRANCH  25  26
ATOM     26  C   UNL     1      -2.983  11.212  17.770  0.00  0.00    +0.000 A 
ATOM     27  N   UNL     1      -2.042  10.556  17.118  0.00  0.00    +0.000 NA
ATOM     28  N   UNL     1      -2.478  10.325  15.837  0.00  0.00    +0.000 NA
ATOM     29  C   UNL     1      -3.679  10.839  15.732  0.00  0.00    +0.000 A 
ATOM     30  N   UNL     1      -4.060  11.359  16.930  0.00  0.00    +0.000 N 
ATOM     31  C   UNL     1      -5.339  11.956  17.207  0.00  0.00    +0.000 C 
ENDBRANCH  25  26
ENDBRANCH  23  25
ENDBRANCH  21  23
ENDBRANCH   3  17
TORSDOF 7
ENDMDL
