MODEL 1
REMARK VINA RESULT:      -9.9      0.000      0.000
REMARK  Name = 
REMARK  9 active torsions:
REMARK  status: ('A' for Active; 'I' for Inactive)
REMARK    1  A    between atoms: C_1  and  C_2
REMARK    2  A    between atoms: C_2  and  C_3
REMARK    3  A    between atoms: C_2  and  C_10
REMARK    4  A    between atoms: C_3  and  C_4
REMARK    5  A    between atoms: N_8  and  C_9
REMARK    6  A    between atoms: C_14  and  N_15
REMARK    7  A    between atoms: C_20  and  C_21
REMARK    8  A    between atoms: C_21  and  N_22
REMARK    9  A    between atoms: C_29  and  C_30
REMARK                            x       y       z     vdW  Elec       q    Type
REMARK                         _______ _______ _______ _____ _____    ______ ____
ROOT
ATOM      1  N   UNL     1       1.364   8.199  20.179  0.00  0.00    +0.000 N 
ATOM      2  C   UNL     1       1.397   6.839  20.663  0.00  0.00    +0.000 C 
ATOM      3  C   UNL     1       2.210   6.101  19.686  0.00  0.00    +0.000 A 
ATOM      4  C   UNL     1       2.666   6.968  18.697  0.00  0.00    +0.000 A 
ATOM      5  C   UNL     1       3.466   6.484  17.669  0.00  0.00    +0.000 A 
ATOM      6  C   UNL     1       3.769   5.100  17.651  0.00  0.00    +0.000 A 
ATOM      7  C   UNL     1       3.263   4.249  18.666  0.00  0.00    +0.000 A 
ATOM      8  C   UNL     1       2.487   4.740  19.711  0.00  0.00    +0.000 A 
ATOM      9  C   UNL     1       2.121   8.330  19.010  0.00  0.00    +0.000 C 
ATOM     10  O   UNL     1       2.327   9.311  18.319  0.00  0.00    +0.000 OA
ENDROOT
BRANCH   1  15
ATOM     11  C   UNL     1      -0.879  11.156  20.671  0.00  0.00    +0.000 A 
ATOM     12  C   UNL     1      -1.034  11.152  22.057  0.00  0.00    +0.000 A 
ATOM     13  C   UNL     1      -0.392  10.185  22.844  0.00  0.00    +0.000 A 
ATOM     14  C   UNL     1       0.418   9.182  22.265  0.00  0.00    +0.000 A 
ATOM     15  C   UNL     1       0.554   9.132  20.886  0.00  0.00    +0.000 A 
ATOM     16  C   UNL     1      -0.128  10.111  20.128  0.00  0.00    +0.000 A 
BRANCH  11  18
ATOM     17  C   UNL     1      -1.238  13.717  20.324  0.00  0.00    +0.000 C 
ATOM     18  C   UNL     1      -1.406  12.279  19.774  0.00  0.00    +0.000 C 
BRANCH  18  19
ATOM     19  C   UNL     1      -2.885  12.043  19.382  0.00  0.00    +0.000 C 
BRANCH  19  20
ATOM     20  C   UNL     1      -3.060  11.561  17.975  0.00  0.00    +0.000 A 
ATOM     21  N   UNL     1      -2.108  11.398  17.077  0.00  0.00    +0.000 NA
ATOM     22  N   UNL     1      -2.690  11.011  15.894  0.00  0.00    +0.000 NA
ATOM     23  C   UNL     1      -3.981  10.916  16.102  0.00  0.00    +0.000 A 
ATOM     24  N   UNL     1      -4.257  11.227  17.397  0.00  0.00    +0.000 N 
ATOM     25  C   UNL     1      -5.551  11.171  18.019  0.00  0.00    +0.000 C 
ENDBRANCH  19  20
ENDBRANCH  18  19
ENDBRANCH  11  18
ENDBRANCH   1  15
BRANCH   8  26
ATOM     26  C   UNL     1       1.979   3.829  20.801  0.00  0.00    +0.000 C 
ATOM     27  F   UNL     1       2.379   4.191  22.053  0.00  0.00    +0.000 F 
ATOM     28  F   UNL     1       0.622   3.775  20.849  0.00  0.00    +0.000 F 
ATOM     29  F   UNL     1       2.410   2.548  20.643  0.00  0.00    +0.000 F 
ENDBRANCH   8  26
BRANCH   6  30
ATOM     30  C   UNL     1       4.679   4.476  16.606  0.00  0.00    +0.000 C 
BRANCH  30  31
ATOM     31  N   UNL     1       6.098   4.534  16.976  0.00  0.00    +0.000 NA
ATOM     32  C   UNL     1       6.837   5.639  16.360  0.00  0.00    +0.000 C 
ATOM     33  C   UNL     1       7.359   6.526  17.479  0.00  0.00    +0.000 C 
ATOM     34  C   UNL     1       7.377   5.637  18.697  0.00  0.00    +0.000 C 
ATOM     35  F   UNL     1       8.592   5.035  18.797  0.00  0.00    +0.000 F 
ATOM     36  C   UNL     1       6.304   4.592  18.433  0.00  0.00    +0.000 C 
ENDBRANCH  30  31
ENDBRANCH   6  30
TORSDOF 7
ENDMDL
MODEL 2
REMARK VINA RESULT:      -9.5      1.396      1.948
REMARK  Name = 
REMARK  9 active torsions:
REMARK  status: ('A' for Active; 'I' for Inactive)
REMARK    1  A    between atoms: C_1  and  C_2
REMARK    2  A    between atoms: C_2  and  C_3
REMARK    3  A    between atoms: C_2  and  C_10
REMARK    4  A    between atoms: C_3  and  C_4
REMARK    5  A    between atoms: N_8  and  C_9
REMARK    6  A    between atoms: C_14  and  N_15
REMARK    7  A    between atoms: C_20  and  C_21
REMARK    8  A    between atoms: C_21  and  N_22
REMARK    9  A    between atoms: C_29  and  C_30
REMARK                            x       y       z     vdW  Elec       q    Type
REMARK                         _______ _______ _______ _____ _____    ______ ____
ROOT
ATOM      1  N   UNL     1       1.425   8.168  20.089  0.00  0.00    +0.000 N 
ATOM      2  C   UNL     1       1.449   6.817  20.600  0.00  0.00    +0.000 C 
ATOM      3  C   UNL     1       2.252   6.053  19.634  0.00  0.00    +0.000 A 
ATOM      4  C   UNL     1       2.711   6.895  18.627  0.00  0.00    +0.000 A 
ATOM      5  C   UNL     1       3.502   6.384  17.605  0.00  0.00    +0.000 A 
ATOM      6  C   UNL     1       3.793   4.998  17.614  0.00  0.00    +0.000 A 
ATOM      7  C   UNL     1       3.284   4.171  18.648  0.00  0.00    +0.000 A 
ATOM      8  C   UNL     1       2.517   4.690  19.686  0.00  0.00    +0.000 A 
ATOM      9  C   UNL     1       2.179   8.268  18.914  0.00  0.00    +0.000 C 
ATOM     10  O   UNL     1       2.390   9.233  18.203  0.00  0.00    +0.000 OA
ENDROOT
BRANCH   1  15
ATOM     11  C   UNL     1      -0.903  11.068  20.517  0.00  0.00    +0.000 A 
ATOM     12  C   UNL     1      -0.961  11.166  21.907  0.00  0.00    +0.000 A 
ATOM     13  C   UNL     1      -0.226  10.287  22.717  0.00  0.00    +0.000 A 
ATOM     14  C   UNL     1       0.584   9.274  22.158  0.00  0.00    +0.000 A 
ATOM     15  C   UNL     1       0.627   9.122  20.780  0.00  0.00    +0.000 A 
ATOM     16  C   UNL     1      -0.147  10.012  20.001  0.00  0.00    +0.000 A 
BRANCH  11  18
ATOM     17  C   UNL     1      -0.553  12.923  18.717  0.00  0.00    +0.000 C 
ATOM     18  C   UNL     1      -1.538  12.096  19.579  0.00  0.00    +0.000 C 
BRANCH  18  19
ATOM     19  C   UNL     1      -2.486  13.051  20.344  0.00  0.00    +0.000 C 
BRANCH  19  20
ATOM     20  C   UNL     1      -3.925  12.641  20.283  0.00  0.00    +0.000 A 
ATOM     21  N   UNL     1      -4.575  12.215  19.218  0.00  0.00    +0.000 NA
ATOM     22  N   UNL     1      -5.889  12.012  19.564  0.00  0.00    +0.000 NA
ATOM     23  C   UNL     1      -6.007  12.288  20.840  0.00  0.00    +0.000 A 
ATOM     24  N   UNL     1      -4.799  12.662  21.339  0.00  0.00    +0.000 N 
ATOM     25  C   UNL     1      -4.514  12.975  22.712  0.00  0.00    +0.000 C 
ENDBRANCH  19  20
ENDBRANCH  18  19
ENDBRANCH  11  18
ENDBRANCH   1  15
BRANCH   8  26
ATOM     26  C   UNL     1       2.006   3.806  20.797  0.00  0.00    +0.000 C 
ATOM     27  F   UNL     1       0.646   3.724  20.855  0.00  0.00    +0.000 F 
ATOM     28  F   UNL     1       2.448   2.526  20.693  0.00  0.00    +0.000 F 
ATOM     29  F   UNL     1       2.391   4.248  22.024  0.00  0.00    +0.000 F 
ENDBRANCH   8  26
BRANCH   6  30
ATOM     30  C   UNL     1       4.693   4.344  16.577  0.00  0.00    +0.000 C 
BRANCH  30  31
ATOM     31  N   UNL     1       6.118   4.436  16.919  0.00  0.00    +0.000 NA
ATOM     32  C   UNL     1       6.820   5.551  16.279  0.00  0.00    +0.000 C 
ATOM     33  C   UNL     1       7.344   6.460  17.380  0.00  0.00    +0.000 C 
ATOM     34  C   UNL     1       7.406   5.582  18.605  0.00  0.00    +0.000 C 
ATOM     35  F   UNL     1       8.635   5.008  18.685  0.00  0.00    +0.000 F 
ATOM     36  C   UNL     1       6.351   4.511  18.371  0.00  0.00    +0.000 C 
ENDBRANCH  30  31
ENDBRANCH   6  30
TORSDOF 7
ENDMDL
MODEL 3
REMARK VINA RESULT:      -9.4      1.938      2.689
REMARK  Name = 
REMARK  9 active torsions:
REMARK  status: ('A' for Active; 'I' for Inactive)
REMARK    1  A    between atoms: C_1  and  C_2
REMARK    2  A    between atoms: C_2  and  C_3
REMARK    3  A    between atoms: C_2  and  C_10
REMARK    4  A    between atoms: C_3  and  C_4
REMARK    5  A    between atoms: N_8  and  C_9
REMARK    6  A    between atoms: C_14  and  N_15
REMARK    7  A    between atoms: C_20  and  C_21
REMARK    8  A    between atoms: C_21  and  N_22
REMARK    9  A    between atoms: C_29  and  C_30
REMARK                            x       y       z     vdW  Elec       q    Type
REMARK                         _______ _______ _______ _____ _____    ______ ____
ROOT
ATOM      1  N   UNL     1       1.362   8.131  20.307  0.00  0.00    +0.000 N 
ATOM      2  C   UNL     1       1.408   6.762  20.765  0.00  0.00    +0.000 C 
ATOM      3  C   UNL     1       2.189   6.041  19.750  0.00  0.00    +0.000 A 
ATOM      4  C   UNL     1       2.616   6.924  18.764  0.00  0.00    +0.000 A 
ATOM      5  C   UNL     1       3.383   6.458  17.703  0.00  0.00    +0.000 A 
ATOM      6  C   UNL     1       3.682   5.074  17.650  0.00  0.00    +0.000 A 
ATOM      7  C   UNL     1       3.206   4.205  18.665  0.00  0.00    +0.000 A 
ATOM      8  C   UNL     1       2.463   4.678  19.742  0.00  0.00    +0.000 A 
ATOM      9  C   UNL     1       2.083   8.281  19.118  0.00  0.00    +0.000 C 
ATOM     10  O   UNL     1       2.271   9.274  18.438  0.00  0.00    +0.000 OA
ENDROOT
BRANCH   1  15
ATOM     11  C   UNL     1      -0.731  11.168  20.949  0.00  0.00    +0.000 A 
ATOM     12  C   UNL     1      -0.943  11.065  22.323  0.00  0.00    +0.000 A 
ATOM     13  C   UNL     1      -0.390  10.003  23.054  0.00  0.00    +0.000 A 
ATOM     14  C   UNL     1       0.386   9.003  22.428  0.00  0.00    +0.000 A 
ATOM     15  C   UNL     1       0.577   9.052  21.055  0.00  0.00    +0.000 A 
ATOM     16  C   UNL     1      -0.017  10.125  20.352  0.00  0.00    +0.000 A 
BRANCH  11  18
ATOM     17  C   UNL     1      -2.682  12.577  19.943  0.00  0.00    +0.000 C 
ATOM     18  C   UNL     1      -1.157  12.385  20.125  0.00  0.00    +0.000 C 
BRANCH  18  19
ATOM     19  C   UNL     1      -0.462  12.404  18.742  0.00  0.00    +0.000 C 
BRANCH  19  20
ATOM     20  C   UNL     1       0.807  13.198  18.721  0.00  0.00    +0.000 A 
ATOM     21  N   UNL     1       2.033  12.716  18.650  0.00  0.00    +0.000 NA
ATOM     22  N   UNL     1       2.916  13.765  18.730  0.00  0.00    +0.000 NA
ATOM     23  C   UNL     1       2.212  14.868  18.817  0.00  0.00    +0.000 A 
ATOM     24  N   UNL     1       0.887  14.564  18.791  0.00  0.00    +0.000 N 
ATOM     25  C   UNL     1      -0.194  15.511  18.798  0.00  0.00    +0.000 C 
ENDBRANCH  19  20
ENDBRANCH  18  19
ENDBRANCH  11  18
ENDBRANCH   1  15
BRANCH   8  26
ATOM     26  C   UNL     1       1.987   3.749  20.831  0.00  0.00    +0.000 C 
ATOM     27  F   UNL     1       2.433   2.468  20.696  0.00  0.00    +0.000 F 
ATOM     28  F   UNL     1       2.378   4.148  22.069  0.00  0.00    +0.000 F 
ATOM     29  F   UNL     1       0.630   3.654  20.868  0.00  0.00    +0.000 F 
ENDBRANCH   8  26
BRANCH   6  30
ATOM     30  C   UNL     1       4.558   4.468  16.566  0.00  0.00    +0.000 C 
BRANCH  30  31
ATOM     31  N   UNL     1       5.988   4.513  16.896  0.00  0.00    +0.000 NA
ATOM     32  C   UNL     1       6.710   5.634  16.289  0.00  0.00    +0.000 C 
ATOM     33  C   UNL     1       7.267   6.489  17.416  0.00  0.00    +0.000 C 
ATOM     34  C   UNL     1       7.321   5.566  18.608  0.00  0.00    +0.000 C 
ATOM     35  F   UNL     1       8.536   4.960  18.653  0.00  0.00    +0.000 F 
ATOM     36  C   UNL     1       6.237   4.530  18.347  0.00  0.00    +0.000 C 
ENDBRANCH  30  31
ENDBRANCH   6  30
TORSDOF 7
ENDMDL
MODEL 4
REMARK VINA RESULT:      -9.4      1.832      2.833
REMARK  Name = 
REMARK  9 active torsions:
REMARK  status: ('A' for Active; 'I' for Inactive)
REMARK    1  A    between atoms: C_1  and  C_2
REMARK    2  A    between atoms: C_2  and  C_3
REMARK    3  A    between atoms: C_2  and  C_10
REMARK    4  A    between atoms: C_3  and  C_4
REMARK    5  A    between atoms: N_8  and  C_9
REMARK    6  A    between atoms: C_14  and  N_15
REMARK    7  A    between atoms: C_20  and  C_21
REMARK    8  A    between atoms: C_21  and  N_22
REMARK    9  A    between atoms: C_29  and  C_30
REMARK                            x       y       z     vdW  Elec       q    Type
REMARK                         _______ _______ _______ _____ _____    ______ ____
ROOT
ATOM      1  N   UNL     1       1.367   8.141  20.264  0.00  0.00    +0.000 N 
ATOM      2  C   UNL     1       1.386   6.768  20.712  0.00  0.00    +0.000 C 
ATOM      3  C   UNL     1       2.170   6.043  19.702  0.00  0.00    +0.000 A 
ATOM      4  C   UNL     1       2.624   6.928  18.729  0.00  0.00    +0.000 A 
ATOM      5  C   UNL     1       3.398   6.458  17.674  0.00  0.00    +0.000 A 
ATOM      6  C   UNL     1       3.677   5.070  17.615  0.00  0.00    +0.000 A 
ATOM      7  C   UNL     1       3.175   4.201  18.617  0.00  0.00    +0.000 A 
ATOM      8  C   UNL     1       2.424   4.677  19.687  0.00  0.00    +0.000 A 
ATOM      9  C   UNL     1       2.107   8.289  19.086  0.00  0.00    +0.000 C 
ATOM     10  O   UNL     1       2.317   9.284  18.417  0.00  0.00    +0.000 OA
ENDROOT
BRANCH   1  15
ATOM     11  C   UNL     1      -0.787  11.141  20.877  0.00  0.00    +0.000 A 
ATOM     12  C   UNL     1      -0.942  11.086  22.261  0.00  0.00    +0.000 A 
ATOM     13  C   UNL     1      -0.328  10.069  23.009  0.00  0.00    +0.000 A 
ATOM     14  C   UNL     1       0.451   9.067  22.389  0.00  0.00    +0.000 A 
ATOM     15  C   UNL     1       0.586   9.068  21.009  0.00  0.00    +0.000 A 
ATOM     16  C   UNL     1      -0.067  10.096  20.291  0.00  0.00    +0.000 A 
BRANCH  11  18
ATOM     17  C   UNL     1      -2.756  12.235  19.560  0.00  0.00    +0.000 C 
ATOM     18  C   UNL     1      -1.281  12.313  20.026  0.00  0.00    +0.000 C 
BRANCH  18  19
ATOM     19  C   UNL     1      -0.363  12.552  18.804  0.00  0.00    +0.000 C 
BRANCH  19  20
ATOM     20  C   UNL     1       0.349  13.869  18.839  0.00  0.00    +0.000 A 
ATOM     21  N   UNL     1      -0.181  15.039  19.139  0.00  0.00    +0.000 NA
ATOM     22  N   UNL     1       0.785  16.004  18.986  0.00  0.00    +0.000 NA
ATOM     23  C   UNL     1       1.892  15.401  18.625  0.00  0.00    +0.000 A 
ATOM     24  N   UNL     1       1.674  14.061  18.545  0.00  0.00    +0.000 N 
ATOM     25  C   UNL     1       2.663  13.063  18.245  0.00  0.00    +0.000 C 
ENDBRANCH  19  20
ENDBRANCH  18  19
ENDBRANCH  11  18
ENDBRANCH   1  15
BRANCH   8  26
ATOM     26  C   UNL     1       1.920   3.747  20.763  0.00  0.00    +0.000 C 
ATOM     27  F   UNL     1       0.561   3.673  20.835  0.00  0.00    +0.000 F 
ATOM     28  F   UNL     1       2.350   2.469  20.595  0.00  0.00    +0.000 F 
ATOM     29  F   UNL     1       2.325   4.129  22.004  0.00  0.00    +0.000 F 
ENDBRANCH   8  26
BRANCH   6  30
ATOM     30  C   UNL     1       4.559   4.459  16.539  0.00  0.00    +0.000 C 
BRANCH  30  31
ATOM     31  N   UNL     1       5.986   4.491  16.882  0.00  0.00    +0.000 NA
ATOM     32  C   UNL     1       6.736   5.570  16.236  0.00  0.00    +0.000 C 
ATOM     33  C   UNL     1       7.298   6.463  17.331  0.00  0.00    +0.000 C 
ATOM     34  C   UNL     1       7.320   5.592  18.562  0.00  0.00    +0.000 C 
ATOM     35  F   UNL     1       8.523   4.965  18.648  0.00  0.00    +0.000 F 
ATOM     36  C   UNL     1       6.220   4.566  18.334  0.00  0.00    +0.000 C 
ENDBRANCH  30  31
ENDBRANCH   6  30
TORSDOF 7
ENDMDL
MODEL 5
REMARK VINA RESULT:      -9.4      1.448      1.948
REMARK  Name = 
REMARK  9 active torsions:
REMARK  status: ('A' for Active; 'I' for Inactive)
REMARK    1  A    between atoms: C_1  and  C_2
REMARK    2  A    between atoms: C_2  and  C_3
REMARK    3  A    between atoms: C_2  and  C_10
REMARK    4  A    between atoms: C_3  and  C_4
REMARK    5  A    between atoms: N_8  and  C_9
REMARK    6  A    between atoms: C_14  and  N_15
REMARK    7  A    between atoms: C_20  and  C_21
REMARK    8  A    between atoms: C_21  and  N_22
REMARK    9  A    between atoms: C_29  and  C_30
REMARK                            x       y       z     vdW  Elec       q    Type
REMARK                         _______ _______ _______ _____ _____    ______ ____
ROOT
ATOM      1  N   UNL     1       1.400   8.189  20.096  0.00  0.00    +0.000 N 
ATOM      2  C   UNL     1       1.403   6.833  20.592  0.00  0.00    +0.000 C 
ATOM      3  C   UNL     1       2.221   6.074  19.636  0.00  0.00    +0.000 A 
ATOM      4  C   UNL     1       2.708   6.924  18.648  0.00  0.00    +0.000 A 
ATOM      5  C   UNL     1       3.518   6.418  17.638  0.00  0.00    +0.000 A 
ATOM      6  C   UNL     1       3.798   5.029  17.637  0.00  0.00    +0.000 A 
ATOM      7  C   UNL     1       3.261   4.195  18.651  0.00  0.00    +0.000 A 
ATOM      8  C   UNL     1       2.475   4.708  19.678  0.00  0.00    +0.000 A 
ATOM      9  C   UNL     1       2.179   8.297  18.939  0.00  0.00    +0.000 C 
ATOM     10  O   UNL     1       2.413   9.268  18.243  0.00  0.00    +0.000 OA
ENDROOT
BRANCH   1  15
ATOM     11  C   UNL     1      -1.137  10.911  20.511  0.00  0.00    +0.000 A 
ATOM     12  C   UNL     1      -1.052  11.154  21.882  0.00  0.00    +0.000 A 
ATOM     13  C   UNL     1      -0.151  10.433  22.681  0.00  0.00    +0.000 A 
ATOM     14  C   UNL     1       0.687   9.438  22.131  0.00  0.00    +0.000 A 
ATOM     15  C   UNL     1       0.593   9.142  20.780  0.00  0.00    +0.000 A 
ATOM     16  C   UNL     1      -0.343   9.873  20.015  0.00  0.00    +0.000 A 
BRANCH  11  18
ATOM     17  C   UNL     1      -1.218  12.322  18.318  0.00  0.00    +0.000 C 
ATOM     18  C   UNL     1      -1.966  11.775  19.559  0.00  0.00    +0.000 C 
BRANCH  18  19
ATOM     19  C   UNL     1      -2.654  12.943  20.307  0.00  0.00    +0.000 C 
BRANCH  19  20
ATOM     20  C   UNL     1      -4.041  12.622  20.769  0.00  0.00    +0.000 A 
ATOM     21  N   UNL     1      -4.453  12.539  22.019  0.00  0.00    +0.000 NA
ATOM     22  N   UNL     1      -5.772  12.154  22.017  0.00  0.00    +0.000 NA
ATOM     23  C   UNL     1      -6.147  12.041  20.766  0.00  0.00    +0.000 A 
ATOM     24  N   UNL     1      -5.105  12.349  19.948  0.00  0.00    +0.000 N 
ATOM     25  C   UNL     1      -5.147  12.404  18.513  0.00  0.00    +0.000 C 
ENDBRANCH  19  20
ENDBRANCH  18  19
ENDBRANCH  11  18
ENDBRANCH   1  15
BRANCH   8  26
ATOM     26  C   UNL     1       1.934   3.816  20.767  0.00  0.00    +0.000 C 
ATOM     27  F   UNL     1       2.344   4.164  22.020  0.00  0.00    +0.000 F 
ATOM     28  F   UNL     1       0.576   3.808  20.813  0.00  0.00    +0.000 F 
ATOM     29  F   UNL     1       2.320   2.521  20.610  0.00  0.00    +0.000 F 
ENDBRANCH   8  26
BRANCH   6  30
ATOM     30  C   UNL     1       4.716   4.381  16.614  0.00  0.00    +0.000 C 
BRANCH  30  31
ATOM     31  N   UNL     1       6.136   4.484  16.972  0.00  0.00    +0.000 NA
ATOM     32  C   UNL     1       6.837   5.602  16.336  0.00  0.00    +0.000 C 
ATOM     33  C   UNL     1       7.341   6.519  17.439  0.00  0.00    +0.000 C 
ATOM     34  C   UNL     1       7.395   5.648  18.669  0.00  0.00    +0.000 C 
ATOM     35  F   UNL     1       8.627   5.083  18.766  0.00  0.00    +0.000 F 
ATOM     36  C   UNL     1       6.350   4.568  18.427  0.00  0.00    +0.000 C 
ENDBRANCH  30  31
ENDBRANCH   6  30
TORSDOF 7
ENDMDL
MODEL 6
REMARK VINA RESULT:      -9.4      2.103      3.058
REMARK  Name = 
REMARK  9 active torsions:
REMARK  status: ('A' for Active; 'I' for Inactive)
REMARK    1  A    between atoms: C_1  and  C_2
REMARK    2  A    between atoms: C_2  and  C_3
REMARK    3  A    between atoms: C_2  and  C_10
REMARK    4  A    between atoms: C_3  and  C_4
REMARK    5  A    between atoms: N_8  and  C_9
REMARK    6  A    between atoms: C_14  and  N_15
REMARK    7  A    between atoms: C_20  and  C_21
REMARK    8  A    between atoms: C_21  and  N_22
REMARK    9  A    between atoms: C_29  and  C_30
REMARK                            x       y       z     vdW  Elec       q    Type
REMARK                         _______ _______ _______ _____ _____    ______ ____
ROOT
ATOM      1  N   UNL     1       1.395   8.033  20.303  0.00  0.00    +0.000 N 
ATOM      2  C   UNL     1       1.436   6.669  20.774  0.00  0.00    +0.000 C 
ATOM      3  C   UNL     1       2.208   5.933  19.763  0.00  0.00    +0.000 A 
ATOM      4  C   UNL     1       2.634   6.804  18.765  0.00  0.00    +0.000 A 
ATOM      5  C   UNL     1       3.393   6.323  17.705  0.00  0.00    +0.000 A 
ATOM      6  C   UNL     1       3.684   4.937  17.665  0.00  0.00    +0.000 A 
ATOM      7  C   UNL     1       3.210   4.081  18.691  0.00  0.00    +0.000 A 
ATOM      8  C   UNL     1       2.475   4.569  19.768  0.00  0.00    +0.000 A 
ATOM      9  C   UNL     1       2.110   8.167  19.108  0.00  0.00    +0.000 C 
ATOM     10  O   UNL     1       2.299   9.152  18.417  0.00  0.00    +0.000 OA
ENDROOT
BRANCH   1  15
ATOM     11  C   UNL     1      -0.720  11.061  20.914  0.00  0.00    +0.000 A 
ATOM     12  C   UNL     1      -0.892  10.997  22.296  0.00  0.00    +0.000 A 
ATOM     13  C   UNL     1      -0.305   9.964  23.042  0.00  0.00    +0.000 A 
ATOM     14  C   UNL     1       0.467   8.955  22.424  0.00  0.00    +0.000 A 
ATOM     15  C   UNL     1       0.619   8.966  21.045  0.00  0.00    +0.000 A 
ATOM     16  C   UNL     1      -0.009  10.010  20.328  0.00  0.00    +0.000 A 
BRANCH  11  18
ATOM     17  C   UNL     1      -2.162  11.914  18.915  0.00  0.00    +0.000 C 
ATOM     18  C   UNL     1      -1.184  12.249  20.068  0.00  0.00    +0.000 C 
BRANCH  18  19
ATOM     19  C   UNL     1       0.017  13.053  19.514  0.00  0.00    +0.000 C 
BRANCH  19  20
ATOM     20  C   UNL     1       0.698  13.897  20.545  0.00  0.00    +0.000 A 
ATOM     21  N   UNL     1       1.734  13.550  21.284  0.00  0.00    +0.000 NA
ATOM     22  N   UNL     1       2.009  14.576  22.155  0.00  0.00    +0.000 NA
ATOM     23  C   UNL     1       1.156  15.541  21.909  0.00  0.00    +0.000 A 
ATOM     24  N   UNL     1       0.332  15.172  20.892  0.00  0.00    +0.000 N 
ATOM     25  C   UNL     1      -0.688  15.989  20.295  0.00  0.00    +0.000 C 
ENDBRANCH  19  20
ENDBRANCH  18  19
ENDBRANCH  11  18
ENDBRANCH   1  15
BRANCH   8  26
ATOM     26  C   UNL     1       2.001   3.654  20.869  0.00  0.00    +0.000 C 
ATOM     27  F   UNL     1       2.448   4.005  22.108  0.00  0.00    +0.000 F 
ATOM     28  F   UNL     1       0.647   3.608  20.966  0.00  0.00    +0.000 F 
ATOM     29  F   UNL     1       2.417   2.372  20.687  0.00  0.00    +0.000 F 
ENDBRANCH   8  26
BRANCH   6  30
ATOM     30  C   UNL     1       4.551   4.314  16.583  0.00  0.00    +0.000 C 
BRANCH  30  31
ATOM     31  N   UNL     1       5.986   4.392  16.885  0.00  0.00    +0.000 NA
ATOM     32  C   UNL     1       6.683   5.495  16.218  0.00  0.00    +0.000 C 
ATOM     33  C   UNL     1       7.247   6.405  17.297  0.00  0.00    +0.000 C 
ATOM     34  C   UNL     1       7.333   5.535  18.527  0.00  0.00    +0.000 C 
ATOM     35  F   UNL     1       8.557   4.947  18.577  0.00  0.00    +0.000 F 
ATOM     36  C   UNL     1       6.260   4.475  18.329  0.00  0.00    +0.000 C 
ENDBRANCH  30  31
ENDBRANCH   6  30
TORSDOF 7
ENDMDL
MODEL 7
REMARK VINA RESULT:      -9.3      3.457      9.147
REMARK  Name = 
REMARK  9 active torsions:
REMARK  status: ('A' for Active; 'I' for Inactive)
REMARK    1  A    between atoms: C_1  and  C_2
REMARK    2  A    between atoms: C_2  and  C_3
REMARK    3  A    between atoms: C_2  and  C_10
REMARK    4  A    between atoms: C_3  and  C_4
REMARK    5  A    between atoms: N_8  and  C_9
REMARK    6  A    between atoms: C_14  and  N_15
REMARK    7  A    between atoms: C_20  and  C_21
REMARK    8  A    between atoms: C_21  and  N_22
REMARK    9  A    between atoms: C_29  and  C_30
REMARK                            x       y       z     vdW  Elec       q    Type
REMARK                         _______ _______ _______ _____ _____    ______ ____
ROOT
ATOM      1  N   UNL     1       2.002   7.783  19.353  0.00  0.00    +0.000 N 
ATOM      2  C   UNL     1       1.343   8.124  20.592  0.00  0.00    +0.000 C 
ATOM      3  C   UNL     1       0.800   9.474  20.381  0.00  0.00    +0.000 A 
ATOM      4  C   UNL     1       1.085   9.903  19.088  0.00  0.00    +0.000 A 
ATOM      5  C   UNL     1       0.656  11.156  18.666  0.00  0.00    +0.000 A 
ATOM      6  C   UNL     1      -0.041  11.972  19.591  0.00  0.00    +0.000 A 
ATOM      7  C   UNL     1      -0.288  11.504  20.906  0.00  0.00    +0.000 A 
ATOM      8  C   UNL     1       0.116  10.238  21.319  0.00  0.00    +0.000 A 
ATOM      9  C   UNL     1       1.864   8.812  18.416  0.00  0.00    +0.000 C 
ATOM     10  O   UNL     1       2.280   8.890  17.275  0.00  0.00    +0.000 OA
ENDROOT
BRANCH   1  15
ATOM     11  C   UNL     1       4.317   5.181  17.980  0.00  0.00    +0.000 A 
ATOM     12  C   UNL     1       4.168   4.161  18.919  0.00  0.00    +0.000 A 
ATOM     13  C   UNL     1       3.295   4.314  20.007  0.00  0.00    +0.000 A 
ATOM     14  C   UNL     1       2.551   5.501  20.193  0.00  0.00    +0.000 A 
ATOM     15  C   UNL     1       2.713   6.551  19.301  0.00  0.00    +0.000 A 
ATOM     16  C   UNL     1       3.619   6.365  18.233  0.00  0.00    +0.000 A 
BRANCH  11  18
ATOM     17  C   UNL     1       4.717   3.808  15.798  0.00  0.00    +0.000 C 
ATOM     18  C   UNL     1       5.115   5.014  16.684  0.00  0.00    +0.000 C 
BRANCH  18  19
ATOM     19  C   UNL     1       6.638   4.977  16.957  0.00  0.00    +0.000 C 
BRANCH  19  20
ATOM     20  C   UNL     1       7.195   6.291  17.409  0.00  0.00    +0.000 A 
ATOM     21  N   UNL     1       7.171   7.427  16.738  0.00  0.00    +0.000 NA
ATOM     22  N   UNL     1       7.849   8.375  17.465  0.00  0.00    +0.000 NA
ATOM     23  C   UNL     1       8.246   7.808  18.578  0.00  0.00    +0.000 A 
ATOM     24  N   UNL     1       7.839   6.511  18.599  0.00  0.00    +0.000 N 
ATOM     25  C   UNL     1       8.027   5.586  19.683  0.00  0.00    +0.000 C 
ENDBRANCH  19  20
ENDBRANCH  18  19
ENDBRANCH  11  18
ENDBRANCH   1  15
BRANCH   8  26
ATOM     26  C   UNL     1      -0.179   9.739  22.712  0.00  0.00    +0.000 C 
ATOM     27  F   UNL     1      -0.934   8.604  22.743  0.00  0.00    +0.000 F 
ATOM     28  F   UNL     1       0.947   9.452  23.415  0.00  0.00    +0.000 F 
ATOM     29  F   UNL     1      -0.870  10.650  23.448  0.00  0.00    +0.000 F 
ENDBRANCH   8  26
BRANCH   6  30
ATOM     30  C   UNL     1      -0.602  13.334  19.218  0.00  0.00    +0.000 C 
BRANCH  30  31
ATOM     31  N   UNL     1       0.233  14.445  19.690  0.00  0.00    +0.000 NA
ATOM     32  C   UNL     1       1.674  14.208  19.571  0.00  0.00    +0.000 C 
ATOM     33  C   UNL     1       2.241  15.265  18.637  0.00  0.00    +0.000 C 
ATOM     34  C   UNL     1       1.235  16.389  18.674  0.00  0.00    +0.000 C 
ATOM     35  F   UNL     1       1.580  17.268  19.652  0.00  0.00    +0.000 F 
ATOM     36  C   UNL     1      -0.085  15.720  19.024  0.00  0.00    +0.000 C 
ENDBRANCH  30  31
ENDBRANCH   6  30
TORSDOF 7
ENDMDL
MODEL 8
REMARK VINA RESULT:      -9.3      3.381      9.086
REMARK  Name = 
REMARK  9 active torsions:
REMARK  status: ('A' for Active; 'I' for Inactive)
REMARK    1  A    between atoms: C_1  and  C_2
REMARK    2  A    between atoms: C_2  and  C_3
REMARK    3  A    between atoms: C_2  and  C_10
REMARK    4  A    between atoms: C_3  and  C_4
REMARK    5  A    between atoms: N_8  and  C_9
REMARK    6  A    between atoms: C_14  and  N_15
REMARK    7  A    between atoms: C_20  and  C_21
REMARK    8  A    between atoms: C_21  and  N_22
REMARK    9  A    between atoms: C_29  and  C_30
REMARK                            x       y       z     vdW  Elec       q    Type
REMARK                         _______ _______ _______ _____ _____    ______ ____
ROOT
ATOM      1  N   UNL     1       1.974   7.563  19.631  0.00  0.00    +0.000 N 
ATOM      2  C   UNL     1       1.278   7.992  20.821  0.00  0.00    +0.000 C 
ATOM      3  C   UNL     1       0.766   9.333  20.506  0.00  0.00    +0.000 A 
ATOM      4  C   UNL     1       1.101   9.675  19.200  0.00  0.00    +0.000 A 
ATOM      5  C   UNL     1       0.708  10.905  18.684  0.00  0.00    +0.000 A 
ATOM      6  C   UNL     1      -0.006  11.788  19.531  0.00  0.00    +0.000 A 
ATOM      7  C   UNL     1      -0.307  11.408  20.863  0.00  0.00    +0.000 A 
ATOM      8  C   UNL     1       0.062  10.165  21.369  0.00  0.00    +0.000 A 
ATOM      9  C   UNL     1       1.886   8.533  18.626  0.00  0.00    +0.000 C 
ATOM     10  O   UNL     1       2.342   8.531  17.498  0.00  0.00    +0.000 OA
ENDROOT
BRANCH   1  15
ATOM     11  C   UNL     1       4.814   5.164  19.188  0.00  0.00    +0.000 A 
ATOM     12  C   UNL     1       4.226   3.969  19.600  0.00  0.00    +0.000 A 
ATOM     13  C   UNL     1       2.887   3.937  20.016  0.00  0.00    +0.000 A 
ATOM     14  C   UNL     1       2.096   5.108  20.042  0.00  0.00    +0.000 A 
ATOM     15  C   UNL     1       2.665   6.320  19.681  0.00  0.00    +0.000 A 
ATOM     16  C   UNL     1       4.024   6.312  19.292  0.00  0.00    +0.000 A 
BRANCH  11  18
ATOM     17  C   UNL     1       7.367   5.575  19.531  0.00  0.00    +0.000 C 
ATOM     18  C   UNL     1       6.208   5.238  18.561  0.00  0.00    +0.000 C 
BRANCH  18  19
ATOM     19  C   UNL     1       6.238   6.212  17.359  0.00  0.00    +0.000 C 
BRANCH  19  20
ATOM     20  C   UNL     1       6.576   5.548  16.060  0.00  0.00    +0.000 A 
ATOM     21  N   UNL     1       7.639   5.780  15.314  0.00  0.00    +0.000 NA
ATOM     22  N   UNL     1       7.540   5.021  14.172  0.00  0.00    +0.000 NA
ATOM     23  C   UNL     1       6.436   4.319  14.259  0.00  0.00    +0.000 A 
ATOM     24  N   UNL     1       5.812   4.597  15.436  0.00  0.00    +0.000 N 
ATOM     25  C   UNL     1       4.610   3.975  15.919  0.00  0.00    +0.000 C 
ENDBRANCH  19  20
ENDBRANCH  18  19
ENDBRANCH  11  18
ENDBRANCH   1  15
BRANCH   8  26
ATOM     26  C   UNL     1      -0.289   9.760  22.779  0.00  0.00    +0.000 C 
ATOM     27  F   UNL     1       0.795   9.529  23.572  0.00  0.00    +0.000 F 
ATOM     28  F   UNL     1      -1.025  10.700  23.427  0.00  0.00    +0.000 F 
ATOM     29  F   UNL     1      -1.015   8.610  22.818  0.00  0.00    +0.000 F 
ENDBRANCH   8  26
BRANCH   6  30
ATOM     30  C   UNL     1      -0.532  13.132  19.053  0.00  0.00    +0.000 C 
BRANCH  30  31
ATOM     31  N   UNL     1       0.116  14.268  19.719  0.00  0.00    +0.000 NA
ATOM     32  C   UNL     1       1.515  14.475  19.333  0.00  0.00    +0.000 C 
ATOM     33  C   UNL     1       1.620  15.850  18.695  0.00  0.00    +0.000 C 
ATOM     34  C   UNL     1       0.421  16.606  19.212  0.00  0.00    +0.000 C 
ATOM     35  F   UNL     1       0.761  17.262  20.353  0.00  0.00    +0.000 F 
ATOM     36  C   UNL     1      -0.612  15.533  19.523  0.00  0.00    +0.000 C 
ENDBRANCH  30  31
ENDBRANCH   6  30
TORSDOF 7
ENDMDL
MODEL 9
REMARK VINA RESULT:      -9.2      1.685      2.805
REMARK  Name = 
REMARK  9 active torsions:
REMARK  status: ('A' for Active; 'I' for Inactive)
REMARK    1  A    between atoms: C_1  and  C_2
REMARK    2  A    between atoms: C_2  and  C_3
REMARK    3  A    between atoms: C_2  and  C_10
REMARK    4  A    between atoms: C_3  and  C_4
REMARK    5  A    between atoms: N_8  and  C_9
REMARK    6  A    between atoms: C_14  and  N_15
REMARK    7  A    between atoms: C_20  and  C_21
REMARK    8  A    between atoms: C_21  and  N_22
REMARK    9  A    between atoms: C_29  and  C_30
REMARK                            x       y       z     vdW  Elec       q    Type
REMARK                         _______ _______ _______ _____ _____    ______ ____
ROOT
ATOM      1  N   UNL     1       1.385   8.270  20.064  0.00  0.00    +0.000 N 
ATOM      2  C   UNL     1       1.409   6.918  20.570  0.00  0.00    +0.000 C 
ATOM      3  C   UNL     1       2.231   6.162  19.614  0.00  0.00    +0.000 A 
ATOM      4  C   UNL     1       2.700   7.011  18.616  0.00  0.00    +0.000 A 
ATOM      5  C   UNL     1       3.510   6.509  17.605  0.00  0.00    +0.000 A 
ATOM      6  C   UNL     1       3.809   5.124  17.612  0.00  0.00    +0.000 A 
ATOM      7  C   UNL     1       3.289   4.290  18.635  0.00  0.00    +0.000 A 
ATOM      8  C   UNL     1       2.503   4.800  19.664  0.00  0.00    +0.000 A 
ATOM      9  C   UNL     1       2.155   8.379  18.901  0.00  0.00    +0.000 C 
ATOM     10  O   UNL     1       2.372   9.348  18.197  0.00  0.00    +0.000 OA
ENDROOT
BRANCH   1  15
ATOM     11  C   UNL     1      -1.015  11.115  20.465  0.00  0.00    +0.000 A 
ATOM     12  C   UNL     1      -1.057  11.240  21.854  0.00  0.00    +0.000 A 
ATOM     13  C   UNL     1      -0.288  10.399  22.671  0.00  0.00    +0.000 A 
ATOM     14  C   UNL     1       0.542   9.396  22.121  0.00  0.00    +0.000 A 
ATOM     15  C   UNL     1       0.570   9.216  20.746  0.00  0.00    +0.000 A 
ATOM     16  C   UNL     1      -0.238  10.069  19.961  0.00  0.00    +0.000 A 
BRANCH  11  18
ATOM     17  C   UNL     1      -1.800  11.658  18.038  0.00  0.00    +0.000 C 
ATOM     18  C   UNL     1      -1.690  12.107  19.516  0.00  0.00    +0.000 C 
BRANCH  18  19
ATOM     19  C   UNL     1      -1.024  13.502  19.586  0.00  0.00    +0.000 C 
BRANCH  19  20
ATOM     20  C   UNL     1       0.468  13.459  19.465  0.00  0.00    +0.000 A 
ATOM     21  N   UNL     1       1.159  13.080  18.407  0.00  0.00    +0.000 NA
ATOM     22  N   UNL     1       2.495  13.116  18.727  0.00  0.00    +0.000 NA
ATOM     23  C   UNL     1       2.594  13.545  19.961  0.00  0.00    +0.000 A 
ATOM     24  N   UNL     1       1.352  13.796  20.457  0.00  0.00    +0.000 N 
ATOM     25  C   UNL     1       1.057  14.342  21.753  0.00  0.00    +0.000 C 
ENDBRANCH  19  20
ENDBRANCH  18  19
ENDBRANCH  11  18
ENDBRANCH   1  15
BRANCH   8  26
ATOM     26  C   UNL     1       1.980   3.909  20.763  0.00  0.00    +0.000 C 
ATOM     27  F   UNL     1       0.620   3.867  20.839  0.00  0.00    +0.000 F 
ATOM     28  F   UNL     1       2.382   2.618  20.627  0.00  0.00    +0.000 F 
ATOM     29  F   UNL     1       2.396   4.313  21.994  0.00  0.00    +0.000 F 
ENDBRANCH   8  26
BRANCH   6  30
ATOM     30  C   UNL     1       4.728   4.480  16.587  0.00  0.00    +0.000 C 
BRANCH  30  31
ATOM     31  N   UNL     1       6.144   4.542  16.971  0.00  0.00    +0.000 NA
ATOM     32  C   UNL     1       6.878   5.665  16.383  0.00  0.00    +0.000 C 
ATOM     33  C   UNL     1       7.383   6.535  17.523  0.00  0.00    +0.000 C 
ATOM     34  C   UNL     1       7.399   5.623  18.724  0.00  0.00    +0.000 C 
ATOM     35  F   UNL     1       8.618   5.029  18.822  0.00  0.00    +0.000 F 
ATOM     36  C   UNL     1       6.337   4.574  18.431  0.00  0.00    +0.000 C 
ENDBRANCH  30  31
ENDBRANCH   6  30
TORSDOF 7
ENDMDL
