MODEL 1
REMARK VINA RESULT:      -8.9      0.000      0.000
REMARK  Name = 
REMARK  10 active torsions:
REMARK  status: ('A' for Active; 'I' for Inactive)
REMARK    1  A    between atoms: C_1  and  C_2
REMARK    2  A    between atoms: C_2  and  C_3
REMARK    3  A    between atoms: C_2  and  C_23
REMARK    4  A    between atoms: C_7  and  N_8
REMARK    5  A    between atoms: C_9  and  C_11
REMARK    6  A    between atoms: C_14  and  C_15
REMARK    7  A    between atoms: C_15  and  O_16
REMARK    8  A    between atoms: C_17  and  C_18
REMARK    9  A    between atoms: C_23  and  C_26
REMARK   10  A    between atoms: N_30  and  C_31
REMARK                            x       y       z     vdW  Elec       q    Type
REMARK                         _______ _______ _______ _____ _____    ______ ____
ROOT
ATOM      1  C   UNL     1       4.255   4.841  17.460  0.00  0.00    +0.000 A 
ATOM      2  C   UNL     1       4.368   3.588  18.075  0.00  0.00    +0.000 A 
ATOM      3  C   UNL     1       3.796   3.352  19.321  0.00  0.00    +0.000 A 
ATOM      4  C   UNL     1       3.087   4.361  19.967  0.00  0.00    +0.000 A 
ATOM      5  C   UNL     1       2.938   5.621  19.383  0.00  0.00    +0.000 A 
ATOM      6  C   UNL     1       3.525   5.853  18.129  0.00  0.00    +0.000 A 
ENDROOT
BRANCH   5   7
ATOM      7  N   UNL     1       2.225   6.670  20.003  0.00  0.00    +0.000 N 
ATOM      8  C   UNL     1       1.922   7.904  19.450  0.00  0.00    +0.000 C 
ATOM      9  O   UNL     1       2.218   8.303  18.324  0.00  0.00    +0.000 OA
ATOM     10  H   UNL     1       1.893   6.537  20.954  0.00  0.00    +0.000 HD
BRANCH   8  11
ATOM     11  C   UNL     1       1.162   8.827  20.344  0.00  0.00    +0.000 A 
ATOM     12  C   UNL     1       1.039   8.518  21.687  0.00  0.00    +0.000 A 
ATOM     13  C   UNL     1       0.293   9.375  22.480  0.00  0.00    +0.000 A 
ATOM     14  C   UNL     1      -0.326  10.504  21.915  0.00  0.00    +0.000 A 
ATOM     15  C   UNL     1      -0.116  10.771  20.546  0.00  0.00    +0.000 A 
ATOM     16  N   UNL     1       0.614   9.925  19.765  0.00  0.00    +0.000 NA
BRANCH  15  17
ATOM     17  C   UNL     1      -0.735  11.946  19.812  0.00  0.00    +0.000 C 
ATOM     18  C   UNL     1      -1.057  11.946  18.338  0.00  0.00    +0.000 C 
ATOM     19  C   UNL     1      -2.167  11.804  19.331  0.00  0.00    +0.000 C 
ENDBRANCH  15  17
BRANCH  14  20
ATOM     20  C   UNL     1      -1.140  11.415  22.794  0.00  0.00    +0.000 C 
BRANCH  20  21
ATOM     21  O   UNL     1      -0.432  12.617  23.100  0.00  0.00    +0.000 OA
ATOM     22  H   UNL     1      -1.061  13.352  22.997  0.00  0.00    +0.000 HD
ENDBRANCH  20  21
ENDBRANCH  14  20
ENDBRANCH   8  11
ENDBRANCH   5   7
BRANCH   1  24
ATOM     23  C   UNL     1       5.116   6.648  15.888  0.00  0.00    +0.000 C 
ATOM     24  C   UNL     1       4.888   5.138  16.095  0.00  0.00    +0.000 C 
BRANCH  24  25
ATOM     25  C   UNL     1       6.186   4.323  15.864  0.00  0.00    +0.000 C 
ATOM     26  F   UNL     1       6.979   4.414  16.973  0.00  0.00    +0.000 F 
ATOM     27  F   UNL     1       5.882   2.999  15.740  0.00  0.00    +0.000 F 
BRANCH  25  28
ATOM     28  C   UNL     1       6.939   4.761  14.645  0.00  0.00    +0.000 A 
ATOM     29  N   UNL     1       7.984   5.572  14.606  0.00  0.00    +0.000 NA
ATOM     30  N   UNL     1       8.389   5.696  13.301  0.00  0.00    +0.000 NA
ATOM     31  C   UNL     1       7.574   4.982  12.563  0.00  0.00    +0.000 A 
ATOM     32  N   UNL     1       6.646   4.383  13.359  0.00  0.00    +0.000 N 
ATOM     33  C   UNL     1       5.577   3.532  12.906  0.00  0.00    +0.000 C 
ENDBRANCH  25  28
ENDBRANCH  24  25
ENDBRANCH   1  24
TORSDOF 8
ENDMDL
MODEL 2
REMARK VINA RESULT:      -8.8      1.536      1.958
REMARK  Name = 
REMARK  10 active torsions:
REMARK  status: ('A' for Active; 'I' for Inactive)
REMARK    1  A    between atoms: C_1  and  C_2
REMARK    2  A    between atoms: C_2  and  C_3
REMARK    3  A    between atoms: C_2  and  C_23
REMARK    4  A    between atoms: C_7  and  N_8
REMARK    5  A    between atoms: C_9  and  C_11
REMARK    6  A    between atoms: C_14  and  C_15
REMARK    7  A    between atoms: C_15  and  O_16
REMARK    8  A    between atoms: C_17  and  C_18
REMARK    9  A    between atoms: C_23  and  C_26
REMARK   10  A    between atoms: N_30  and  C_31
REMARK                            x       y       z     vdW  Elec       q    Type
REMARK                         _______ _______ _______ _____ _____    ______ ____
ROOT
ATOM      1  C   UNL     1       4.860   5.085  18.010  0.00  0.00    +0.000 A 
ATOM      2  C   UNL     1       4.535   3.934  18.738  0.00  0.00    +0.000 A 
ATOM      3  C   UNL     1       3.448   3.923  19.606  0.00  0.00    +0.000 A 
ATOM      4  C   UNL     1       2.658   5.060  19.751  0.00  0.00    +0.000 A 
ATOM      5  C   UNL     1       2.938   6.225  19.034  0.00  0.00    +0.000 A 
ATOM      6  C   UNL     1       4.041   6.230  18.165  0.00  0.00    +0.000 A 
ENDROOT
BRANCH   5   7
ATOM      7  N   UNL     1       2.160   7.398  19.150  0.00  0.00    +0.000 N 
ATOM      8  C   UNL     1       2.024   8.397  18.199  0.00  0.00    +0.000 C 
ATOM      9  O   UNL     1       2.554   8.439  17.088  0.00  0.00    +0.000 OA
ATOM     10  H   UNL     1       1.642   7.555  20.009  0.00  0.00    +0.000 HD
BRANCH   8  11
ATOM     11  C   UNL     1       1.142   9.533  18.599  0.00  0.00    +0.000 A 
ATOM     12  C   UNL     1       1.499  10.319  19.680  0.00  0.00    +0.000 A 
ATOM     13  C   UNL     1       0.638  11.339  20.048  0.00  0.00    +0.000 A 
ATOM     14  C   UNL     1      -0.565  11.538  19.348  0.00  0.00    +0.000 A 
ATOM     15  C   UNL     1      -0.836  10.720  18.231  0.00  0.00    +0.000 A 
ATOM     16  N   UNL     1       0.011   9.713  17.871  0.00  0.00    +0.000 NA
BRANCH  15  17
ATOM     17  C   UNL     1      -2.099  10.822  17.398  0.00  0.00    +0.000 C 
ATOM     18  C   UNL     1      -2.471   9.850  16.304  0.00  0.00    +0.000 C 
ATOM     19  C   UNL     1      -3.179   9.778  17.620  0.00  0.00    +0.000 C 
ENDBRANCH  15  17
BRANCH  14  20
ATOM     20  C   UNL     1      -1.492  12.645  19.773  0.00  0.00    +0.000 C 
BRANCH  20  21
ATOM     21  O   UNL     1      -2.483  12.175  20.687  0.00  0.00    +0.000 OA
ATOM     22  H   UNL     1      -3.238  11.868  20.155  0.00  0.00    +0.000 HD
ENDBRANCH  20  21
ENDBRANCH  14  20
ENDBRANCH   8  11
ENDBRANCH   5   7
BRANCH   1  24
ATOM     23  C   UNL     1       7.357   4.671  17.749  0.00  0.00    +0.000 C 
ATOM     24  C   UNL     1       6.061   5.134  17.057  0.00  0.00    +0.000 C 
BRANCH  24  25
ATOM     25  C   UNL     1       5.797   4.351  15.747  0.00  0.00    +0.000 C 
ATOM     26  F   UNL     1       5.904   3.011  15.991  0.00  0.00    +0.000 F 
ATOM     27  F   UNL     1       4.508   4.547  15.345  0.00  0.00    +0.000 F 
BRANCH  25  28
ATOM     28  C   UNL     1       6.715   4.754  14.633  0.00  0.00    +0.000 A 
ATOM     29  N   UNL     1       7.748   5.577  14.714  0.00  0.00    +0.000 NA
ATOM     30  N   UNL     1       8.337   5.659  13.479  0.00  0.00    +0.000 NA
ATOM     31  C   UNL     1       7.644   4.907  12.658  0.00  0.00    +0.000 A 
ATOM     32  N   UNL     1       6.616   4.324  13.334  0.00  0.00    +0.000 N 
ATOM     33  C   UNL     1       5.632   3.442  12.764  0.00  0.00    +0.000 C 
ENDBRANCH  25  28
ENDBRANCH  24  25
ENDBRANCH   1  24
TORSDOF 8
ENDMDL
MODEL 3
REMARK VINA RESULT:      -8.6      1.082      1.310
REMARK  Name = 
REMARK  10 active torsions:
REMARK  status: ('A' for Active; 'I' for Inactive)
REMARK    1  A    between atoms: C_1  and  C_2
REMARK    2  A    between atoms: C_2  and  C_3
REMARK    3  A    between atoms: C_2  and  C_23
REMARK    4  A    between atoms: C_7  and  N_8
REMARK    5  A    between atoms: C_9  and  C_11
REMARK    6  A    between atoms: C_14  and  C_15
REMARK    7  A    between atoms: C_15  and  O_16
REMARK    8  A    between atoms: C_17  and  C_18
REMARK    9  A    between atoms: C_23  and  C_26
REMARK   10  A    between atoms: N_30  and  C_31
REMARK                            x       y       z     vdW  Elec       q    Type
REMARK                         _______ _______ _______ _____ _____    ______ ____
ROOT
ATOM      1  C   UNL     1       4.518   4.771  17.654  0.00  0.00    +0.000 A 
ATOM      2  C   UNL     1       3.941   3.509  17.842  0.00  0.00    +0.000 A 
ATOM      3  C   UNL     1       2.801   3.356  18.624  0.00  0.00    +0.000 A 
ATOM      4  C   UNL     1       2.209   4.465  19.222  0.00  0.00    +0.000 A 
ATOM      5  C   UNL     1       2.744   5.744  19.049  0.00  0.00    +0.000 A 
ATOM      6  C   UNL     1       3.898   5.889  18.264  0.00  0.00    +0.000 A 
ENDROOT
BRANCH   5   7
ATOM      7  N   UNL     1       2.172   6.895  19.634  0.00  0.00    +0.000 N 
ATOM      8  C   UNL     1       1.855   8.080  18.989  0.00  0.00    +0.000 C 
ATOM      9  O   UNL     1       2.013   8.338  17.796  0.00  0.00    +0.000 OA
ATOM     10  H   UNL     1       1.967   6.884  20.629  0.00  0.00    +0.000 HD
BRANCH   8  11
ATOM     11  C   UNL     1       1.269   9.138  19.864  0.00  0.00    +0.000 A 
ATOM     12  C   UNL     1       0.675   8.774  21.060  0.00  0.00    +0.000 A 
ATOM     13  C   UNL     1       0.106   9.776  21.828  0.00  0.00    +0.000 A 
ATOM     14  C   UNL     1       0.124  11.109  21.380  0.00  0.00    +0.000 A 
ATOM     15  C   UNL     1       0.787  11.402  20.170  0.00  0.00    +0.000 A 
ATOM     16  N   UNL     1       1.343  10.415  19.412  0.00  0.00    +0.000 NA
BRANCH  15  17
ATOM     17  C   UNL     1       0.869  12.793  19.570  0.00  0.00    +0.000 C 
ATOM     18  C   UNL     1       1.568  13.113  18.271  0.00  0.00    +0.000 C 
ATOM     19  C   UNL     1       0.073  13.066  18.306  0.00  0.00    +0.000 C 
ENDBRANCH  15  17
BRANCH  14  20
ATOM     20  C   UNL     1      -0.511  12.180  22.227  0.00  0.00    +0.000 C 
BRANCH  20  21
ATOM     21  O   UNL     1      -1.134  11.628  23.387  0.00  0.00    +0.000 OA
ATOM     22  H   UNL     1      -1.143  12.327  24.065  0.00  0.00    +0.000 HD
ENDBRANCH  20  21
ENDBRANCH  14  20
ENDBRANCH   8  11
ENDBRANCH   5   7
BRANCH   1  24
ATOM     23  C   UNL     1       7.060   4.663  17.617  0.00  0.00    +0.000 C 
ATOM     24  C   UNL     1       5.783   4.971  16.811  0.00  0.00    +0.000 C 
BRANCH  24  25
ATOM     25  C   UNL     1       5.733   4.169  15.486  0.00  0.00    +0.000 C 
ATOM     26  F   UNL     1       5.955   2.847  15.748  0.00  0.00    +0.000 F 
ATOM     27  F   UNL     1       4.476   4.231  14.958  0.00  0.00    +0.000 F 
BRANCH  25  28
ATOM     28  C   UNL     1       6.709   4.670  14.465  0.00  0.00    +0.000 A 
ATOM     29  N   UNL     1       7.681   5.546  14.660  0.00  0.00    +0.000 NA
ATOM     30  N   UNL     1       8.359   5.714  13.479  0.00  0.00    +0.000 NA
ATOM     31  C   UNL     1       7.778   4.959  12.578  0.00  0.00    +0.000 A 
ATOM     32  N   UNL     1       6.736   4.291  13.147  0.00  0.00    +0.000 N 
ATOM     33  C   UNL     1       5.854   3.380  12.468  0.00  0.00    +0.000 C 
ENDBRANCH  25  28
ENDBRANCH  24  25
ENDBRANCH   1  24
TORSDOF 8
ENDMDL
MODEL 4
REMARK VINA RESULT:      -8.6      3.814      9.893
REMARK  Name = 
REMARK  10 active torsions:
REMARK  status: ('A' for Active; 'I' for Inactive)
REMARK    1  A    between atoms: C_1  and  C_2
REMARK    2  A    between atoms: C_2  and  C_3
REMARK    3  A    between atoms: C_2  and  C_23
REMARK    4  A    between atoms: C_7  and  N_8
REMARK    5  A    between atoms: C_9  and  C_11
REMARK    6  A    between atoms: C_14  and  C_15
REMARK    7  A    between atoms: C_15  and  O_16
REMARK    8  A    between atoms: C_17  and  C_18
REMARK    9  A    between atoms: C_23  and  C_26
REMARK   10  A    between atoms: N_30  and  C_31
REMARK                            x       y       z     vdW  Elec       q    Type
REMARK                         _______ _______ _______ _____ _____    ______ ____
ROOT
ATOM      1  C   UNL     1       0.217  10.563  20.060  0.00  0.00    +0.000 A 
ATOM      2  C   UNL     1      -0.108  10.209  21.375  0.00  0.00    +0.000 A 
ATOM      3  C   UNL     1       0.341   9.012  21.923  0.00  0.00    +0.000 A 
ATOM      4  C   UNL     1       1.137   8.154  21.170  0.00  0.00    +0.000 A 
ATOM      5  C   UNL     1       1.498   8.475  19.859  0.00  0.00    +0.000 A 
ATOM      6  C   UNL     1       1.034   9.681  19.311  0.00  0.00    +0.000 A 
ENDROOT
BRANCH   5   7
ATOM      7  N   UNL     1       2.306   7.634  19.062  0.00  0.00    +0.000 N 
ATOM      8  C   UNL     1       2.632   6.313  19.322  0.00  0.00    +0.000 C 
ATOM      9  O   UNL     1       2.275   5.639  20.288  0.00  0.00    +0.000 OA
ATOM     10  H   UNL     1       2.707   8.012  18.209  0.00  0.00    +0.000 HD
BRANCH   8  11
ATOM     11  C   UNL     1       3.517   5.670  18.307  0.00  0.00    +0.000 A 
ATOM     12  C   UNL     1       3.098   4.509  17.681  0.00  0.00    +0.000 A 
ATOM     13  C   UNL     1       3.961   3.917  16.774  0.00  0.00    +0.000 A 
ATOM     14  C   UNL     1       5.225   4.481  16.528  0.00  0.00    +0.000 A 
ATOM     15  C   UNL     1       5.560   5.689  17.175  0.00  0.00    +0.000 A 
ATOM     16  N   UNL     1       4.712   6.270  18.070  0.00  0.00    +0.000 NA
BRANCH  15  17
ATOM     17  C   UNL     1       6.893   6.395  17.006  0.00  0.00    +0.000 C 
ATOM     18  C   UNL     1       7.216   7.743  17.603  0.00  0.00    +0.000 C 
ATOM     19  C   UNL     1       7.791   6.509  18.225  0.00  0.00    +0.000 C 
ENDBRANCH  15  17
BRANCH  14  20
ATOM     20  C   UNL     1       6.152   3.815  15.547  0.00  0.00    +0.000 C 
BRANCH  20  21
ATOM     21  O   UNL     1       5.966   4.322  14.225  0.00  0.00    +0.000 OA
ATOM     22  H   UNL     1       6.192   5.268  14.248  0.00  0.00    +0.000 HD
ENDBRANCH  20  21
ENDBRANCH  14  20
ENDBRANCH   8  11
ENDBRANCH   5   7
BRANCH   1  24
ATOM     23  C   UNL     1       0.848  12.585  18.650  0.00  0.00    +0.000 C 
ATOM     24  C   UNL     1      -0.276  11.868  19.422  0.00  0.00    +0.000 C 
BRANCH  24  25
ATOM     25  C   UNL     1      -1.530  11.647  18.539  0.00  0.00    +0.000 C 
ATOM     26  F   UNL     1      -1.390  12.346  17.374  0.00  0.00    +0.000 F 
ATOM     27  F   UNL     1      -1.609  10.336  18.171  0.00  0.00    +0.000 F 
BRANCH  25  28
ATOM     28  C   UNL     1      -2.803  12.031  19.230  0.00  0.00    +0.000 A 
ATOM     29  N   UNL     1      -2.923  12.550  20.442  0.00  0.00    +0.000 NA
ATOM     30  N   UNL     1      -4.254  12.778  20.687  0.00  0.00    +0.000 NA
ATOM     31  C   UNL     1      -4.925  12.374  19.636  0.00  0.00    +0.000 A 
ATOM     32  N   UNL     1      -4.061  11.894  18.700  0.00  0.00    +0.000 N 
ATOM     33  C   UNL     1      -4.429  11.349  17.420  0.00  0.00    +0.000 C 
ENDBRANCH  25  28
ENDBRANCH  24  25
ENDBRANCH   1  24
TORSDOF 8
ENDMDL
MODEL 5
REMARK VINA RESULT:      -8.6      1.267      2.241
REMARK  Name = 
REMARK  10 active torsions:
REMARK  status: ('A' for Active; 'I' for Inactive)
REMARK    1  A    between atoms: C_1  and  C_2
REMARK    2  A    between atoms: C_2  and  C_3
REMARK    3  A    between atoms: C_2  and  C_23
REMARK    4  A    between atoms: C_7  and  N_8
REMARK    5  A    between atoms: C_9  and  C_11
REMARK    6  A    between atoms: C_14  and  C_15
REMARK    7  A    between atoms: C_15  and  O_16
REMARK    8  A    between atoms: C_17  and  C_18
REMARK    9  A    between atoms: C_23  and  C_26
REMARK   10  A    between atoms: N_30  and  C_31
REMARK                            x       y       z     vdW  Elec       q    Type
REMARK                         _______ _______ _______ _____ _____    ______ ____
ROOT
ATOM      1  C   UNL     1       5.126   4.839  18.003  0.00  0.00    +0.000 A 
ATOM      2  C   UNL     1       4.903   3.658  18.721  0.00  0.00    +0.000 A 
ATOM      3  C   UNL     1       3.865   3.570  19.643  0.00  0.00    +0.000 A 
ATOM      4  C   UNL     1       3.022   4.658  19.852  0.00  0.00    +0.000 A 
ATOM      5  C   UNL     1       3.200   5.851  19.146  0.00  0.00    +0.000 A 
ATOM      6  C   UNL     1       4.254   5.933  18.222  0.00  0.00    +0.000 A 
ENDROOT
BRANCH   5   7
ATOM      7  N   UNL     1       2.365   6.976  19.325  0.00  0.00    +0.000 N 
ATOM      8  C   UNL     1       2.298   8.094  18.510  0.00  0.00    +0.000 C 
ATOM      9  O   UNL     1       2.951   8.304  17.487  0.00  0.00    +0.000 OA
ATOM     10  H   UNL     1       1.744   6.997  20.129  0.00  0.00    +0.000 HD
BRANCH   8  11
ATOM     11  C   UNL     1       1.329   9.139  18.951  0.00  0.00    +0.000 A 
ATOM     12  C   UNL     1       1.101  10.236  18.139  0.00  0.00    +0.000 A 
ATOM     13  C   UNL     1       0.226  11.207  18.597  0.00  0.00    +0.000 A 
ATOM     14  C   UNL     1      -0.384  11.073  19.857  0.00  0.00    +0.000 A 
ATOM     15  C   UNL     1      -0.132   9.904  20.605  0.00  0.00    +0.000 A 
ATOM     16  N   UNL     1       0.732   8.951  20.155  0.00  0.00    +0.000 NA
BRANCH  15  17
ATOM     17  C   UNL     1      -0.716   9.641  21.980  0.00  0.00    +0.000 C 
ATOM     18  C   UNL     1       0.114   9.387  23.215  0.00  0.00    +0.000 C 
ATOM     19  C   UNL     1      -0.547  10.718  23.037  0.00  0.00    +0.000 C 
ENDBRANCH  15  17
BRANCH  14  20
ATOM     20  C   UNL     1      -1.323  12.146  20.339  0.00  0.00    +0.000 C 
BRANCH  20  21
ATOM     21  O   UNL     1      -1.681  13.040  19.285  0.00  0.00    +0.000 OA
ATOM     22  H   UNL     1      -1.522  12.571  18.447  0.00  0.00    +0.000 HD
ENDBRANCH  20  21
ENDBRANCH  14  20
ENDBRANCH   8  11
ENDBRANCH   5   7
BRANCH   1  24
ATOM     23  C   UNL     1       7.608   4.476  17.574  0.00  0.00    +0.000 C 
ATOM     24  C   UNL     1       6.271   4.973  16.991  0.00  0.00    +0.000 C 
BRANCH  24  25
ATOM     25  C   UNL     1       5.941   4.285  15.642  0.00  0.00    +0.000 C 
ATOM     26  F   UNL     1       6.035   2.930  15.791  0.00  0.00    +0.000 F 
ATOM     27  F   UNL     1       4.640   4.525  15.309  0.00  0.00    +0.000 F 
BRANCH  25  28
ATOM     28  C   UNL     1       6.819   4.750  14.521  0.00  0.00    +0.000 A 
ATOM     29  N   UNL     1       7.803   5.632  14.597  0.00  0.00    +0.000 NA
ATOM     30  N   UNL     1       8.370   5.759  13.355  0.00  0.00    +0.000 NA
ATOM     31  C   UNL     1       7.712   4.974  12.536  0.00  0.00    +0.000 A 
ATOM     32  N   UNL     1       6.728   4.326  13.219  0.00  0.00    +0.000 N 
ATOM     33  C   UNL     1       5.790   3.393  12.654  0.00  0.00    +0.000 C 
ENDBRANCH  25  28
ENDBRANCH  24  25
ENDBRANCH   1  24
TORSDOF 8
ENDMDL
MODEL 6
REMARK VINA RESULT:      -8.6      1.809      2.523
REMARK  Name = 
REMARK  10 active torsions:
REMARK  status: ('A' for Active; 'I' for Inactive)
REMARK    1  A    between atoms: C_1  and  C_2
REMARK    2  A    between atoms: C_2  and  C_3
REMARK    3  A    between atoms: C_2  and  C_23
REMARK    4  A    between atoms: C_7  and  N_8
REMARK    5  A    between atoms: C_9  and  C_11
REMARK    6  A    between atoms: C_14  and  C_15
REMARK    7  A    between atoms: C_15  and  O_16
REMARK    8  A    between atoms: C_17  and  C_18
REMARK    9  A    between atoms: C_23  and  C_26
REMARK   10  A    between atoms: N_30  and  C_31
REMARK                            x       y       z     vdW  Elec       q    Type
REMARK                         _______ _______ _______ _____ _____    ______ ____
ROOT
ATOM      1  C   UNL     1       4.432   4.955  17.284  0.00  0.00    +0.000 A 
ATOM      2  C   UNL     1       4.353   3.647  17.774  0.00  0.00    +0.000 A 
ATOM      3  C   UNL     1       3.644   3.362  18.937  0.00  0.00    +0.000 A 
ATOM      4  C   UNL     1       2.989   4.381  19.622  0.00  0.00    +0.000 A 
ATOM      5  C   UNL     1       3.029   5.700  19.160  0.00  0.00    +0.000 A 
ATOM      6  C   UNL     1       3.753   5.978  17.990  0.00  0.00    +0.000 A 
ENDROOT
BRANCH   5   7
ATOM      7  N   UNL     1       2.376   6.761  19.824  0.00  0.00    +0.000 N 
ATOM      8  C   UNL     1       1.874   7.915  19.243  0.00  0.00    +0.000 C 
ATOM      9  O   UNL     1       1.908   8.218  18.050  0.00  0.00    +0.000 OA
ATOM     10  H   UNL     1       2.252   6.703  20.830  0.00  0.00    +0.000 HD
BRANCH   8  11
ATOM     11  C   UNL     1       1.240   8.875  20.193  0.00  0.00    +0.000 A 
ATOM     12  C   UNL     1       1.244   8.589  21.547  0.00  0.00    +0.000 A 
ATOM     13  C   UNL     1       0.611   9.482  22.396  0.00  0.00    +0.000 A 
ATOM     14  C   UNL     1      -0.025  10.623  21.877  0.00  0.00    +0.000 A 
ATOM     15  C   UNL     1       0.053  10.865  20.490  0.00  0.00    +0.000 A 
ATOM     16  N   UNL     1       0.672   9.984  19.654  0.00  0.00    +0.000 NA
BRANCH  15  17
ATOM     17  C   UNL     1      -0.598  12.050  19.802  0.00  0.00    +0.000 C 
ATOM     18  C   UNL     1      -1.037  12.052  18.358  0.00  0.00    +0.000 C 
ATOM     19  C   UNL     1      -2.067  11.935  19.437  0.00  0.00    +0.000 C 
ENDBRANCH  15  17
BRANCH  14  20
ATOM     20  C   UNL     1      -0.716  11.574  22.818  0.00  0.00    +0.000 C 
BRANCH  20  21
ATOM     21  O   UNL     1      -1.980  11.064  23.242  0.00  0.00    +0.000 OA
ATOM     22  H   UNL     1      -2.165  11.451  24.116  0.00  0.00    +0.000 HD
ENDBRANCH  20  21
ENDBRANCH  14  20
ENDBRANCH   8  11
ENDBRANCH   5   7
BRANCH   1  24
ATOM     23  C   UNL     1       4.997   6.768  15.589  0.00  0.00    +0.000 C 
ATOM     24  C   UNL     1       5.218   5.303  16.014  0.00  0.00    +0.000 C 
BRANCH  24  25
ATOM     25  C   UNL     1       6.724   4.966  16.150  0.00  0.00    +0.000 C 
ATOM     26  F   UNL     1       6.920   3.646  15.858  0.00  0.00    +0.000 F 
ATOM     27  F   UNL     1       7.437   5.656  15.213  0.00  0.00    +0.000 F 
BRANCH  25  28
ATOM     28  C   UNL     1       7.273   5.289  17.506  0.00  0.00    +0.000 A 
ATOM     29  N   UNL     1       7.517   4.435  18.487  0.00  0.00    +0.000 NA
ATOM     30  N   UNL     1       8.036   5.131  19.549  0.00  0.00    +0.000 NA
ATOM     31  C   UNL     1       8.078   6.397  19.212  0.00  0.00    +0.000 A 
ATOM     32  N   UNL     1       7.606   6.546  17.943  0.00  0.00    +0.000 N 
ATOM     33  C   UNL     1       7.486   7.792  17.235  0.00  0.00    +0.000 C 
ENDBRANCH  25  28
ENDBRANCH  24  25
ENDBRANCH   1  24
TORSDOF 8
ENDMDL
MODEL 7
REMARK VINA RESULT:      -8.5      1.680      2.122
REMARK  Name = 
REMARK  10 active torsions:
REMARK  status: ('A' for Active; 'I' for Inactive)
REMARK    1  A    between atoms: C_1  and  C_2
REMARK    2  A    between atoms: C_2  and  C_3
REMARK    3  A    between atoms: C_2  and  C_23
REMARK    4  A    between atoms: C_7  and  N_8
REMARK    5  A    between atoms: C_9  and  C_11
REMARK    6  A    between atoms: C_14  and  C_15
REMARK    7  A    between atoms: C_15  and  O_16
REMARK    8  A    between atoms: C_17  and  C_18
REMARK    9  A    between atoms: C_23  and  C_26
REMARK   10  A    between atoms: N_30  and  C_31
REMARK                            x       y       z     vdW  Elec       q    Type
REMARK                         _______ _______ _______ _____ _____    ______ ____
ROOT
ATOM      1  C   UNL     1       4.838   5.230  17.806  0.00  0.00    +0.000 A 
ATOM      2  C   UNL     1       4.367   4.123  18.522  0.00  0.00    +0.000 A 
ATOM      3  C   UNL     1       3.231   4.221  19.320  0.00  0.00    +0.000 A 
ATOM      4  C   UNL     1       2.539   5.425  19.405  0.00  0.00    +0.000 A 
ATOM      5  C   UNL     1       2.966   6.551  18.696  0.00  0.00    +0.000 A 
ATOM      6  C   UNL     1       4.116   6.445  17.899  0.00  0.00    +0.000 A 
ENDROOT
BRANCH   5   7
ATOM      7  N   UNL     1       2.290   7.790  18.752  0.00  0.00    +0.000 N 
ATOM      8  C   UNL     1       1.581   8.297  19.829  0.00  0.00    +0.000 C 
ATOM      9  O   UNL     1       1.416   7.761  20.925  0.00  0.00    +0.000 OA
ATOM     10  H   UNL     1       2.304   8.388  17.931  0.00  0.00    +0.000 HD
BRANCH   8  11
ATOM     11  C   UNL     1       0.957   9.633  19.600  0.00  0.00    +0.000 A 
ATOM     12  C   UNL     1       1.396  10.720  20.335  0.00  0.00    +0.000 A 
ATOM     13  C   UNL     1       0.768  11.937  20.127  0.00  0.00    +0.000 A 
ATOM     14  C   UNL     1      -0.293  12.037  19.210  0.00  0.00    +0.000 A 
ATOM     15  C   UNL     1      -0.653  10.892  18.469  0.00  0.00    +0.000 A 
ATOM     16  N   UNL     1      -0.037   9.694  18.678  0.00  0.00    +0.000 NA
BRANCH  15  17
ATOM     17  C   UNL     1      -1.785  10.862  17.459  0.00  0.00    +0.000 C 
ATOM     18  C   UNL     1      -2.715   9.689  17.267  0.00  0.00    +0.000 C 
ATOM     19  C   UNL     1      -3.207  10.903  17.990  0.00  0.00    +0.000 C 
ENDBRANCH  15  17
BRANCH  14  20
ATOM     20  C   UNL     1      -0.969  13.367  19.007  0.00  0.00    +0.000 C 
BRANCH  20  21
ATOM     21  O   UNL     1      -0.058  14.345  18.505  0.00  0.00    +0.000 OA
ATOM     22  H   UNL     1      -0.538  14.863  17.835  0.00  0.00    +0.000 HD
ENDBRANCH  20  21
ENDBRANCH  14  20
ENDBRANCH   8  11
ENDBRANCH   5   7
BRANCH   1  24
ATOM     23  C   UNL     1       7.303   4.603  17.711  0.00  0.00    +0.000 C 
ATOM     24  C   UNL     1       6.095   5.158  16.931  0.00  0.00    +0.000 C 
BRANCH  24  25
ATOM     25  C   UNL     1       5.848   4.372  15.619  0.00  0.00    +0.000 C 
ATOM     26  F   UNL     1       5.979   3.034  15.862  0.00  0.00    +0.000 F 
ATOM     27  F   UNL     1       4.556   4.545  15.215  0.00  0.00    +0.000 F 
BRANCH  25  28
ATOM     28  C   UNL     1       6.760   4.794  14.507  0.00  0.00    +0.000 A 
ATOM     29  N   UNL     1       7.762   5.653  14.585  0.00  0.00    +0.000 NA
ATOM     30  N   UNL     1       8.358   5.740  13.353  0.00  0.00    +0.000 NA
ATOM     31  C   UNL     1       7.698   4.955  12.537  0.00  0.00    +0.000 A 
ATOM     32  N   UNL     1       6.685   4.345  13.212  0.00  0.00    +0.000 N 
ATOM     33  C   UNL     1       5.736   3.423  12.646  0.00  0.00    +0.000 C 
ENDBRANCH  25  28
ENDBRANCH  24  25
ENDBRANCH   1  24
TORSDOF 8
ENDMDL
MODEL 8
REMARK VINA RESULT:      -8.4      4.021     10.156
REMARK  Name = 
REMARK  10 active torsions:
REMARK  status: ('A' for Active; 'I' for Inactive)
REMARK    1  A    between atoms: C_1  and  C_2
REMARK    2  A    between atoms: C_2  and  C_3
REMARK    3  A    between atoms: C_2  and  C_23
REMARK    4  A    between atoms: C_7  and  N_8
REMARK    5  A    between atoms: C_9  and  C_11
REMARK    6  A    between atoms: C_14  and  C_15
REMARK    7  A    between atoms: C_15  and  O_16
REMARK    8  A    between atoms: C_17  and  C_18
REMARK    9  A    between atoms: C_23  and  C_26
REMARK   10  A    between atoms: N_30  and  C_31
REMARK                            x       y       z     vdW  Elec       q    Type
REMARK                         _______ _______ _______ _____ _____    ______ ____
ROOT
ATOM      1  C   UNL     1      -0.344  10.927  20.369  0.00  0.00    +0.000 A 
ATOM      2  C   UNL     1      -0.498  10.688  21.739  0.00  0.00    +0.000 A 
ATOM      3  C   UNL     1       0.133   9.608  22.349  0.00  0.00    +0.000 A 
ATOM      4  C   UNL     1       0.940   8.756  21.600  0.00  0.00    +0.000 A 
ATOM      5  C   UNL     1       1.132   8.967  20.232  0.00  0.00    +0.000 A 
ATOM      6  C   UNL     1       0.487  10.055  19.624  0.00  0.00    +0.000 A 
ENDROOT
BRANCH   5   7
ATOM      7  N   UNL     1       1.945   8.129  19.437  0.00  0.00    +0.000 N 
ATOM      8  C   UNL     1       2.212   6.787  19.656  0.00  0.00    +0.000 C 
ATOM      9  O   UNL     1       1.789   6.089  20.577  0.00  0.00    +0.000 OA
ATOM     10  H   UNL     1       2.398   8.526  18.619  0.00  0.00    +0.000 HD
BRANCH   8  11
ATOM     11  C   UNL     1       3.120   6.153  18.655  0.00  0.00    +0.000 A 
ATOM     12  C   UNL     1       3.882   6.959  17.828  0.00  0.00    +0.000 A 
ATOM     13  C   UNL     1       4.683   6.338  16.883  0.00  0.00    +0.000 A 
ATOM     14  C   UNL     1       4.690   4.937  16.771  0.00  0.00    +0.000 A 
ATOM     15  C   UNL     1       3.916   4.186  17.680  0.00  0.00    +0.000 A 
ATOM     16  N   UNL     1       3.125   4.797  18.607  0.00  0.00    +0.000 NA
BRANCH  15  17
ATOM     17  C   UNL     1       3.825   2.672  17.660  0.00  0.00    +0.000 C 
ATOM     18  C   UNL     1       3.437   1.833  18.853  0.00  0.00    +0.000 C 
ATOM     19  C   UNL     1       2.446   2.045  17.752  0.00  0.00    +0.000 C 
ENDBRANCH  15  17
BRANCH  14  20
ATOM     20  C   UNL     1       5.559   4.285  15.730  0.00  0.00    +0.000 C 
BRANCH  20  21
ATOM     21  O   UNL     1       6.836   3.930  16.262  0.00  0.00    +0.000 OA
ATOM     22  H   UNL     1       6.952   2.976  16.114  0.00  0.00    +0.000 HD
ENDBRANCH  20  21
ENDBRANCH  14  20
ENDBRANCH   8  11
ENDBRANCH   5   7
BRANCH   1  24
ATOM     23  C   UNL     1      -0.030  12.995  18.918  0.00  0.00    +0.000 C 
ATOM     24  C   UNL     1      -1.038  12.100  19.664  0.00  0.00    +0.000 C 
BRANCH  24  25
ATOM     25  C   UNL     1      -2.184  11.627  18.735  0.00  0.00    +0.000 C 
ATOM     26  F   UNL     1      -1.936  12.050  17.460  0.00  0.00    +0.000 F 
ATOM     27  F   UNL     1      -2.191  10.263  18.672  0.00  0.00    +0.000 F 
BRANCH  25  28
ATOM     28  C   UNL     1      -3.533  12.095  19.189  0.00  0.00    +0.000 A 
ATOM     29  N   UNL     1      -3.819  12.706  20.327  0.00  0.00    +0.000 NA
ATOM     30  N   UNL     1      -5.162  12.987  20.343  0.00  0.00    +0.000 NA
ATOM     31  C   UNL     1      -5.678  12.524  19.231  0.00  0.00    +0.000 A 
ATOM     32  N   UNL     1      -4.698  11.952  18.478  0.00  0.00    +0.000 N 
ATOM     33  C   UNL     1      -4.884  11.323  17.197  0.00  0.00    +0.000 C 
ENDBRANCH  25  28
ENDBRANCH  24  25
ENDBRANCH   1  24
TORSDOF 8
ENDMDL
MODEL 9
REMARK VINA RESULT:      -8.4      2.278      2.949
REMARK  Name = 
REMARK  10 active torsions:
REMARK  status: ('A' for Active; 'I' for Inactive)
REMARK    1  A    between atoms: C_1  and  C_2
REMARK    2  A    between atoms: C_2  and  C_3
REMARK    3  A    between atoms: C_2  and  C_23
REMARK    4  A    between atoms: C_7  and  N_8
REMARK    5  A    between atoms: C_9  and  C_11
REMARK    6  A    between atoms: C_14  and  C_15
REMARK    7  A    between atoms: C_15  and  O_16
REMARK    8  A    between atoms: C_17  and  C_18
REMARK    9  A    between atoms: C_23  and  C_26
REMARK   10  A    between atoms: N_30  and  C_31
REMARK                            x       y       z     vdW  Elec       q    Type
REMARK                         _______ _______ _______ _____ _____    ______ ____
ROOT
ATOM      1  C   UNL     1       3.372   3.898  19.055  0.00  0.00    +0.000 A 
ATOM      2  C   UNL     1       3.308   2.795  19.914  0.00  0.00    +0.000 A 
ATOM      3  C   UNL     1       2.682   2.893  21.153  0.00  0.00    +0.000 A 
ATOM      4  C   UNL     1       2.098   4.094  21.548  0.00  0.00    +0.000 A 
ATOM      5  C   UNL     1       2.128   5.215  20.715  0.00  0.00    +0.000 A 
ATOM      6  C   UNL     1       2.766   5.108  19.469  0.00  0.00    +0.000 A 
ENDROOT
BRANCH   5   7
ATOM      7  N   UNL     1       1.545   6.449  21.076  0.00  0.00    +0.000 N 
ATOM      8  C   UNL     1       1.639   7.643  20.379  0.00  0.00    +0.000 C 
ATOM      9  O   UNL     1       2.244   7.839  19.325  0.00  0.00    +0.000 OA
ATOM     10  H   UNL     1       1.000   6.498  21.931  0.00  0.00    +0.000 HD
BRANCH   8  11
ATOM     11  C   UNL     1       0.927   8.797  21.004  0.00  0.00    +0.000 A 
ATOM     12  C   UNL     1       0.744   8.816  22.375  0.00  0.00    +0.000 A 
ATOM     13  C   UNL     1       0.045   9.881  22.917  0.00  0.00    +0.000 A 
ATOM     14  C   UNL     1      -0.473  10.887  22.083  0.00  0.00    +0.000 A 
ATOM     15  C   UNL     1      -0.206  10.816  20.699  0.00  0.00    +0.000 A 
ATOM     16  N   UNL     1       0.479   9.765  20.165  0.00  0.00    +0.000 NA
BRANCH  15  17
ATOM     17  C   UNL     1      -0.715  11.828  19.690  0.00  0.00    +0.000 C 
ATOM     18  C   UNL     1      -0.986  11.510  18.239  0.00  0.00    +0.000 C 
ATOM     19  C   UNL     1      -2.137  11.668  19.183  0.00  0.00    +0.000 C 
ENDBRANCH  15  17
BRANCH  14  20
ATOM     20  C   UNL     1      -1.240  12.029  22.693  0.00  0.00    +0.000 C 
BRANCH  20  21
ATOM     21  O   UNL     1      -2.431  11.575  23.336  0.00  0.00    +0.000 OA
ATOM     22  H   UNL     1      -2.378  11.857  24.266  0.00  0.00    +0.000 HD
ENDBRANCH  20  21
ENDBRANCH  14  20
ENDBRANCH   8  11
ENDBRANCH   5   7
BRANCH   1  24
ATOM     23  C   UNL     1       3.085   3.435  16.568  0.00  0.00    +0.000 C 
ATOM     24  C   UNL     1       4.068   3.826  17.689  0.00  0.00    +0.000 C 
BRANCH  24  25
ATOM     25  C   UNL     1       4.832   5.131  17.355  0.00  0.00    +0.000 C 
ATOM     26  F   UNL     1       5.227   5.102  16.047  0.00  0.00    +0.000 F 
ATOM     27  F   UNL     1       3.986   6.198  17.456  0.00  0.00    +0.000 F 
BRANCH  25  28
ATOM     28  C   UNL     1       6.009   5.363  18.252  0.00  0.00    +0.000 A 
ATOM     29  N   UNL     1       6.337   4.666  19.328  0.00  0.00    +0.000 NA
ATOM     30  N   UNL     1       7.495   5.187  19.847  0.00  0.00    +0.000 NA
ATOM     31  C   UNL     1       7.843   6.205  19.099  0.00  0.00    +0.000 A 
ATOM     32  N   UNL     1       6.940   6.358  18.090  0.00  0.00    +0.000 N 
ATOM     33  C   UNL     1       6.981   7.378  17.076  0.00  0.00    +0.000 C 
ENDBRANCH  25  28
ENDBRANCH  24  25
ENDBRANCH   1  24
TORSDOF 8
ENDMDL
