MODEL 1
REMARK VINA RESULT:      -9.3      0.000      0.000
REMARK  Name = 
REMARK  8 active torsions:
REMARK  status: ('A' for Active; 'I' for Inactive)
REMARK    1  A    between atoms: C_1  and  C_2
REMARK    2  A    between atoms: C_2  and  C_3
REMARK    3  A    between atoms: C_2  and  C_10
REMARK    4  A    between atoms: C_3  and  C_4
REMARK    5  A    between atoms: N_8  and  C_9
REMARK    6  A    between atoms: C_14  and  N_15
REMARK    7  A    between atoms: C_20  and  C_21
REMARK    8  A    between atoms: C_20  and  C_22
REMARK                            x       y       z     vdW  Elec       q    Type
REMARK                         _______ _______ _______ _____ _____    ______ ____
ROOT
ATOM      1  C   UNL     1      -0.548  10.640  20.327  0.00  0.00    +0.000 A 
ATOM      2  C   UNL     1      -0.769  10.905  21.688  0.00  0.00    +0.000 A 
ATOM      3  C   UNL     1      -0.147  10.140  22.672  0.00  0.00    +0.000 A 
ATOM      4  C   UNL     1       0.660   9.061  22.316  0.00  0.00    +0.000 A 
ATOM      5  C   UNL     1       0.824   8.714  20.976  0.00  0.00    +0.000 A 
ATOM      6  C   UNL     1       0.233   9.516  19.987  0.00  0.00    +0.000 A 
ENDROOT
BRANCH   5   7
ATOM      7  N   UNL     1       1.607   7.609  20.572  0.00  0.00    +0.000 N 
ATOM      8  C   UNL     1       2.328   7.495  19.407  0.00  0.00    +0.000 C 
ATOM      9  O   UNL     1       2.456   8.395  18.572  0.00  0.00    +0.000 OA
ATOM     10  N   UNL     1       2.979   6.294  19.212  0.00  0.00    +0.000 N 
ATOM     11  C   UNL     1       3.814   6.061  18.039  0.00  0.00    +0.000 C 
ATOM     12  C   UNL     1       4.429   4.646  18.188  0.00  0.00    +0.000 C 
ATOM     13  C   UNL     1       4.199   3.813  16.925  0.00  0.00    +0.000 C 
ATOM     14  C   UNL     1       5.926   4.735  18.506  0.00  0.00    +0.000 C 
ATOM     15  C   UNL     1       3.659   4.126  19.376  0.00  0.00    +0.000 A 
ATOM     16  C   UNL     1       3.658   2.858  19.933  0.00  0.00    +0.000 A 
ATOM     17  C   UNL     1       2.855   2.637  21.048  0.00  0.00    +0.000 A 
ATOM     18  C   UNL     1       2.108   3.695  21.559  0.00  0.00    +0.000 A 
ATOM     19  N   UNL     1       2.106   4.952  21.040  0.00  0.00    +0.000 NA
ATOM     20  C   UNL     1       2.869   5.118  19.953  0.00  0.00    +0.000 A 
ATOM     21  H   UNL     1       1.734   6.849  21.234  0.00  0.00    +0.000 HD
ENDBRANCH   5   7
BRANCH   1  23
ATOM     22  C   UNL     1      -0.729  13.060  19.624  0.00  0.00    +0.000 C 
ATOM     23  C   UNL     1      -1.021  11.596  19.232  0.00  0.00    +0.000 C 
BRANCH  23  24
ATOM     24  C   UNL     1      -2.510  11.507  18.868  0.00  0.00    +0.000 C 
BRANCH  24  25
ATOM     25  C   UNL     1      -2.833  10.893  17.550  0.00  0.00    +0.000 A 
ATOM     26  N   UNL     1      -2.022  10.168  16.805  0.00  0.00    +0.000 NA
ATOM     27  N   UNL     1      -2.563  10.082  15.542  0.00  0.00    +0.000 NA
ATOM     28  C   UNL     1      -3.695  10.745  15.549  0.00  0.00    +0.000 A 
ATOM     29  N   UNL     1      -3.950  11.185  16.810  0.00  0.00    +0.000 N 
ATOM     30  C   UNL     1      -5.140  11.860  17.251  0.00  0.00    +0.000 C 
ENDBRANCH  24  25
ENDBRANCH  23  24
ENDBRANCH   1  23
TORSDOF 4
ENDMDL
MODEL 2
REMARK VINA RESULT:      -9.1      2.688      8.591
REMARK  Name = 
REMARK  8 active torsions:
REMARK  status: ('A' for Active; 'I' for Inactive)
REMARK    1  A    between atoms: C_1  and  C_2
REMARK    2  A    between atoms: C_2  and  C_3
REMARK    3  A    between atoms: C_2  and  C_10
REMARK    4  A    between atoms: C_3  and  C_4
REMARK    5  A    between atoms: N_8  and  C_9
REMARK    6  A    between atoms: C_14  and  N_15
REMARK    7  A    between atoms: C_20  and  C_21
REMARK    8  A    between atoms: C_20  and  C_22
REMARK                            x       y       z     vdW  Elec       q    Type
REMARK                         _______ _______ _______ _____ _____    ______ ____
ROOT
ATOM      1  C   UNL     1       4.332   4.811  16.986  0.00  0.00    +0.000 A 
ATOM      2  C   UNL     1       3.678   3.586  17.197  0.00  0.00    +0.000 A 
ATOM      3  C   UNL     1       2.439   3.541  17.832  0.00  0.00    +0.000 A 
ATOM      4  C   UNL     1       1.859   4.710  18.319  0.00  0.00    +0.000 A 
ATOM      5  C   UNL     1       2.525   5.929  18.210  0.00  0.00    +0.000 A 
ATOM      6  C   UNL     1       3.751   5.977  17.528  0.00  0.00    +0.000 A 
ENDROOT
BRANCH   5   7
ATOM      7  N   UNL     1       1.987   7.134  18.719  0.00  0.00    +0.000 N 
ATOM      8  C   UNL     1       2.125   8.388  18.176  0.00  0.00    +0.000 C 
ATOM      9  O   UNL     1       2.683   8.629  17.102  0.00  0.00    +0.000 OA
ATOM     10  N   UNL     1       1.546   9.422  18.884  0.00  0.00    +0.000 N 
ATOM     11  C   UNL     1       1.580  10.795  18.394  0.00  0.00    +0.000 C 
ATOM     12  C   UNL     1       0.784  11.662  19.403  0.00  0.00    +0.000 C 
ATOM     13  C   UNL     1       1.599  12.879  19.844  0.00  0.00    +0.000 C 
ATOM     14  C   UNL     1      -0.555  12.104  18.800  0.00  0.00    +0.000 C 
ATOM     15  C   UNL     1       0.567  10.671  20.519  0.00  0.00    +0.000 A 
ATOM     16  C   UNL     1       0.022  10.872  21.775  0.00  0.00    +0.000 A 
ATOM     17  C   UNL     1      -0.076   9.775  22.627  0.00  0.00    +0.000 A 
ATOM     18  C   UNL     1       0.360   8.533  22.174  0.00  0.00    +0.000 A 
ATOM     19  N   UNL     1       0.883   8.308  20.939  0.00  0.00    +0.000 NA
ATOM     20  C   UNL     1       0.986   9.392  20.161  0.00  0.00    +0.000 A 
ATOM     21  H   UNL     1       1.360   7.074  19.517  0.00  0.00    +0.000 HD
ENDBRANCH   5   7
BRANCH   1  23
ATOM     22  C   UNL     1       5.662   3.712  15.139  0.00  0.00    +0.000 C 
ATOM     23  C   UNL     1       5.567   4.923  16.092  0.00  0.00    +0.000 C 
BRANCH  23  24
ATOM     24  C   UNL     1       6.912   5.035  16.826  0.00  0.00    +0.000 C 
BRANCH  24  25
ATOM     25  C   UNL     1       7.243   6.369  17.399  0.00  0.00    +0.000 A 
ATOM     26  N   UNL     1       7.215   7.523  16.762  0.00  0.00    +0.000 NA
ATOM     27  N   UNL     1       7.903   8.446  17.517  0.00  0.00    +0.000 NA
ATOM     28  C   UNL     1       8.323   7.838  18.602  0.00  0.00    +0.000 A 
ATOM     29  N   UNL     1       7.849   6.564  18.614  0.00  0.00    +0.000 N 
ATOM     30  C   UNL     1       8.001   5.610  19.678  0.00  0.00    +0.000 C 
ENDBRANCH  24  25
ENDBRANCH  23  24
ENDBRANCH   1  23
TORSDOF 4
ENDMDL
MODEL 3
REMARK VINA RESULT:      -9.0      3.141      8.697
REMARK  Name = 
REMARK  8 active torsions:
REMARK  status: ('A' for Active; 'I' for Inactive)
REMARK    1  A    between atoms: C_1  and  C_2
REMARK    2  A    between atoms: C_2  and  C_3
REMARK    3  A    between atoms: C_2  and  C_10
REMARK    4  A    between atoms: C_3  and  C_4
REMARK    5  A    between atoms: N_8  and  C_9
REMARK    6  A    between atoms: C_14  and  N_15
REMARK    7  A    between atoms: C_20  and  C_21
REMARK    8  A    between atoms: C_20  and  C_22
REMARK                            x       y       z     vdW  Elec       q    Type
REMARK                         _______ _______ _______ _____ _____    ______ ____
ROOT
ATOM      1  C   UNL     1       4.314   5.519  17.415  0.00  0.00    +0.000 A 
ATOM      2  C   UNL     1       3.915   4.240  17.836  0.00  0.00    +0.000 A 
ATOM      3  C   UNL     1       2.780   4.073  18.628  0.00  0.00    +0.000 A 
ATOM      4  C   UNL     1       2.059   5.183  19.061  0.00  0.00    +0.000 A 
ATOM      5  C   UNL     1       2.482   6.471  18.739  0.00  0.00    +0.000 A 
ATOM      6  C   UNL     1       3.598   6.633  17.903  0.00  0.00    +0.000 A 
ENDROOT
BRANCH   5   7
ATOM      7  N   UNL     1       1.799   7.626  19.184  0.00  0.00    +0.000 N 
ATOM      8  C   UNL     1       1.769   8.852  18.565  0.00  0.00    +0.000 C 
ATOM      9  O   UNL     1       2.282   9.096  17.469  0.00  0.00    +0.000 OA
ATOM     10  N   UNL     1       1.068   9.845  19.219  0.00  0.00    +0.000 N 
ATOM     11  C   UNL     1       0.921  11.178  18.648  0.00  0.00    +0.000 C 
ATOM     12  C   UNL     1       0.029  11.997  19.616  0.00  0.00    +0.000 C 
ATOM     13  C   UNL     1       0.685  13.333  19.970  0.00  0.00    +0.000 C 
ATOM     14  C   UNL     1      -1.361  12.226  19.011  0.00  0.00    +0.000 C 
ATOM     15  C   UNL     1      -0.049  11.056  20.793  0.00  0.00    +0.000 A 
ATOM     16  C   UNL     1      -0.604  11.262  22.044  0.00  0.00    +0.000 A 
ATOM     17  C   UNL     1      -0.552  10.216  22.961  0.00  0.00    +0.000 A 
ATOM     18  C   UNL     1       0.036   9.015  22.576  0.00  0.00    +0.000 A 
ATOM     19  N   UNL     1       0.573   8.783  21.348  0.00  0.00    +0.000 NA
ATOM     20  C   UNL     1       0.528   9.822  20.505  0.00  0.00    +0.000 A 
ATOM     21  H   UNL     1       1.192   7.536  19.994  0.00  0.00    +0.000 HD
ENDBRANCH   5   7
BRANCH   1  23
ATOM     22  C   UNL     1       5.099   6.957  15.491  0.00  0.00    +0.000 C 
ATOM     23  C   UNL     1       5.403   5.718  16.362  0.00  0.00    +0.000 C 
BRANCH  23  24
ATOM     24  C   UNL     1       5.635   4.535  15.411  0.00  0.00    +0.000 C 
BRANCH  24  25
ATOM     25  C   UNL     1       6.706   4.706  14.391  0.00  0.00    +0.000 A 
ATOM     26  N   UNL     1       7.750   5.508  14.480  0.00  0.00    +0.000 NA
ATOM     27  N   UNL     1       8.300   5.635  13.225  0.00  0.00    +0.000 NA
ATOM     28  C   UNL     1       7.589   4.899  12.403  0.00  0.00    +0.000 A 
ATOM     29  N   UNL     1       6.643   4.225  13.109  0.00  0.00    +0.000 N 
ATOM     30  C   UNL     1       5.735   3.240  12.589  0.00  0.00    +0.000 C 
ENDBRANCH  24  25
ENDBRANCH  23  24
ENDBRANCH   1  23
TORSDOF 4
ENDMDL
MODEL 4
REMARK VINA RESULT:      -8.9      2.399      8.385
REMARK  Name = 
REMARK  8 active torsions:
REMARK  status: ('A' for Active; 'I' for Inactive)
REMARK    1  A    between atoms: C_1  and  C_2
REMARK    2  A    between atoms: C_2  and  C_3
REMARK    3  A    between atoms: C_2  and  C_10
REMARK    4  A    between atoms: C_3  and  C_4
REMARK    5  A    between atoms: N_8  and  C_9
REMARK    6  A    between atoms: C_14  and  N_15
REMARK    7  A    between atoms: C_20  and  C_21
REMARK    8  A    between atoms: C_20  and  C_22
REMARK                            x       y       z     vdW  Elec       q    Type
REMARK                         _______ _______ _______ _____ _____    ______ ____
ROOT
ATOM      1  C   UNL     1       4.754   4.944  19.197  0.00  0.00    +0.000 A 
ATOM      2  C   UNL     1       4.189   3.702  19.530  0.00  0.00    +0.000 A 
ATOM      3  C   UNL     1       2.857   3.609  19.926  0.00  0.00    +0.000 A 
ATOM      4  C   UNL     1       2.083   4.760  20.055  0.00  0.00    +0.000 A 
ATOM      5  C   UNL     1       2.640   6.016  19.824  0.00  0.00    +0.000 A 
ATOM      6  C   UNL     1       3.968   6.101  19.379  0.00  0.00    +0.000 A 
ENDROOT
BRANCH   5   7
ATOM      7  N   UNL     1       1.899   7.211  19.974  0.00  0.00    +0.000 N 
ATOM      8  C   UNL     1       1.835   8.254  19.082  0.00  0.00    +0.000 C 
ATOM      9  O   UNL     1       2.365   8.256  17.967  0.00  0.00    +0.000 OA
ATOM     10  N   UNL     1       1.079   9.341  19.473  0.00  0.00    +0.000 N 
ATOM     11  C   UNL     1       0.892  10.494  18.601  0.00  0.00    +0.000 C 
ATOM     12  C   UNL     1      -0.056  11.476  19.335  0.00  0.00    +0.000 C 
ATOM     13  C   UNL     1       0.537  12.886  19.373  0.00  0.00    +0.000 C 
ATOM     14  C   UNL     1      -1.438  11.494  18.673  0.00  0.00    +0.000 C 
ATOM     15  C   UNL     1      -0.125  10.837  20.699  0.00  0.00    +0.000 A 
ATOM     16  C   UNL     1      -0.719  11.307  21.858  0.00  0.00    +0.000 A 
ATOM     17  C   UNL     1      -0.647  10.509  22.997  0.00  0.00    +0.000 A 
ATOM     18  C   UNL     1      -0.001   9.279  22.916  0.00  0.00    +0.000 A 
ATOM     19  N   UNL     1       0.575   8.789  21.785  0.00  0.00    +0.000 NA
ATOM     20  C   UNL     1       0.509   9.597  20.720  0.00  0.00    +0.000 A 
ATOM     21  H   UNL     1       1.277   7.287  20.773  0.00  0.00    +0.000 HD
ENDBRANCH   5   7
BRANCH   1  23
ATOM     22  C   UNL     1       7.182   5.549  19.553  0.00  0.00    +0.000 C 
ATOM     23  C   UNL     1       6.128   5.055  18.537  0.00  0.00    +0.000 C 
BRANCH  23  24
ATOM     24  C   UNL     1       6.206   5.977  17.312  0.00  0.00    +0.000 C 
BRANCH  24  25
ATOM     25  C   UNL     1       6.629   5.344  16.033  0.00  0.00    +0.000 A 
ATOM     26  N   UNL     1       7.633   5.722  15.267  0.00  0.00    +0.000 NA
ATOM     27  N   UNL     1       7.486   5.119  14.038  0.00  0.00    +0.000 NA
ATOM     28  C   UNL     1       6.404   4.377  14.087  0.00  0.00    +0.000 A 
ATOM     29  N   UNL     1       5.893   4.412  15.346  0.00  0.00    +0.000 N 
ATOM     30  C   UNL     1       4.774   3.652  15.831  0.00  0.00    +0.000 C 
ENDBRANCH  24  25
ENDBRANCH  23  24
ENDBRANCH   1  23
TORSDOF 4
ENDMDL
MODEL 5
REMARK VINA RESULT:      -8.8      2.297      8.641
REMARK  Name = 
REMARK  8 active torsions:
REMARK  status: ('A' for Active; 'I' for Inactive)
REMARK    1  A    between atoms: C_1  and  C_2
REMARK    2  A    between atoms: C_2  and  C_3
REMARK    3  A    between atoms: C_2  and  C_10
REMARK    4  A    between atoms: C_3  and  C_4
REMARK    5  A    between atoms: N_8  and  C_9
REMARK    6  A    between atoms: C_14  and  N_15
REMARK    7  A    between atoms: C_20  and  C_21
REMARK    8  A    between atoms: C_20  and  C_22
REMARK                            x       y       z     vdW  Elec       q    Type
REMARK                         _______ _______ _______ _____ _____    ______ ____
ROOT
ATOM      1  C   UNL     1       4.255   5.187  17.638  0.00  0.00    +0.000 A 
ATOM      2  C   UNL     1       4.259   4.102  18.529  0.00  0.00    +0.000 A 
ATOM      3  C   UNL     1       3.455   4.112  19.666  0.00  0.00    +0.000 A 
ATOM      4  C   UNL     1       2.679   5.230  19.966  0.00  0.00    +0.000 A 
ATOM      5  C   UNL     1       2.724   6.360  19.152  0.00  0.00    +0.000 A 
ATOM      6  C   UNL     1       3.499   6.327  17.982  0.00  0.00    +0.000 A 
ENDROOT
BRANCH   5   7
ATOM      7  N   UNL     1       1.978   7.527  19.435  0.00  0.00    +0.000 N 
ATOM      8  C   UNL     1       1.893   8.656  18.657  0.00  0.00    +0.000 C 
ATOM      9  O   UNL     1       2.405   8.779  17.541  0.00  0.00    +0.000 OA
ATOM     10  N   UNL     1       1.135   9.690  19.170  0.00  0.00    +0.000 N 
ATOM     11  C   UNL     1       0.927  10.926  18.425  0.00  0.00    +0.000 C 
ATOM     12  C   UNL     1      -0.017  11.818  19.271  0.00  0.00    +0.000 C 
ATOM     13  C   UNL     1       0.566  13.222  19.446  0.00  0.00    +0.000 C 
ATOM     14  C   UNL     1      -1.410  11.893  18.633  0.00  0.00    +0.000 C 
ATOM     15  C   UNL     1      -0.061  11.040  20.562  0.00  0.00    +0.000 A 
ATOM     16  C   UNL     1      -0.640  11.382  21.772  0.00  0.00    +0.000 A 
ATOM     17  C   UNL     1      -0.546  10.472  22.820  0.00  0.00    +0.000 A 
ATOM     18  C   UNL     1       0.107   9.262  22.603  0.00  0.00    +0.000 A 
ATOM     19  N   UNL     1       0.669   8.897  21.419  0.00  0.00    +0.000 NA
ATOM     20  C   UNL     1       0.582   9.810  20.445  0.00  0.00    +0.000 A 
ATOM     21  H   UNL     1       1.367   7.514  20.247  0.00  0.00    +0.000 HD
ENDBRANCH   5   7
BRANCH   1  23
ATOM     22  C   UNL     1       5.174   3.642  15.861  0.00  0.00    +0.000 C 
ATOM     23  C   UNL     1       4.936   5.112  16.271  0.00  0.00    +0.000 C 
BRANCH  23  24
ATOM     24  C   UNL     1       6.282   5.842  16.157  0.00  0.00    +0.000 C 
BRANCH  24  25
ATOM     25  C   UNL     1       7.200   5.724  17.324  0.00  0.00    +0.000 A 
ATOM     26  N   UNL     1       7.511   4.615  17.966  0.00  0.00    +0.000 NA
ATOM     27  N   UNL     1       8.093   4.963  19.164  0.00  0.00    +0.000 NA
ATOM     28  C   UNL     1       8.136   6.273  19.219  0.00  0.00    +0.000 A 
ATOM     29  N   UNL     1       7.677   6.787  18.047  0.00  0.00    +0.000 N 
ATOM     30  C   UNL     1       7.661   8.175  17.676  0.00  0.00    +0.000 C 
ENDBRANCH  24  25
ENDBRANCH  23  24
ENDBRANCH   1  23
TORSDOF 4
ENDMDL
MODEL 6
REMARK VINA RESULT:      -8.7      2.584      8.235
REMARK  Name = 
REMARK  8 active torsions:
REMARK  status: ('A' for Active; 'I' for Inactive)
REMARK    1  A    between atoms: C_1  and  C_2
REMARK    2  A    between atoms: C_2  and  C_3
REMARK    3  A    between atoms: C_2  and  C_10
REMARK    4  A    between atoms: C_3  and  C_4
REMARK    5  A    between atoms: N_8  and  C_9
REMARK    6  A    between atoms: C_14  and  N_15
REMARK    7  A    between atoms: C_20  and  C_21
REMARK    8  A    between atoms: C_20  and  C_22
REMARK                            x       y       z     vdW  Elec       q    Type
REMARK                         _______ _______ _______ _____ _____    ______ ____
ROOT
ATOM      1  C   UNL     1       4.856   4.536  18.495  0.00  0.00    +0.000 A 
ATOM      2  C   UNL     1       4.121   3.492  17.911  0.00  0.00    +0.000 A 
ATOM      3  C   UNL     1       2.769   3.653  17.614  0.00  0.00    +0.000 A 
ATOM      4  C   UNL     1       2.115   4.836  17.946  0.00  0.00    +0.000 A 
ATOM      5  C   UNL     1       2.793   5.857  18.610  0.00  0.00    +0.000 A 
ATOM      6  C   UNL     1       4.165   5.709  18.866  0.00  0.00    +0.000 A 
ENDROOT
BRANCH   5   7
ATOM      7  N   UNL     1       2.160   7.061  18.995  0.00  0.00    +0.000 N 
ATOM      8  C   UNL     1       2.204   8.261  18.327  0.00  0.00    +0.000 C 
ATOM      9  O   UNL     1       2.750   8.435  17.233  0.00  0.00    +0.000 OA
ATOM     10  N   UNL     1       1.542   9.313  18.926  0.00  0.00    +0.000 N 
ATOM     11  C   UNL     1       1.473  10.628  18.300  0.00  0.00    +0.000 C 
ATOM     12  C   UNL     1       0.604  11.528  19.215  0.00  0.00    +0.000 C 
ATOM     13  C   UNL     1       1.320  12.843  19.530  0.00  0.00    +0.000 C 
ATOM     14  C   UNL     1      -0.760  11.802  18.572  0.00  0.00    +0.000 C 
ATOM     15  C   UNL     1       0.456  10.641  20.426  0.00  0.00    +0.000 A 
ATOM     16  C   UNL     1      -0.112  10.925  21.656  0.00  0.00    +0.000 A 
ATOM     17  C   UNL     1      -0.131   9.916  22.614  0.00  0.00    +0.000 A 
ATOM     18  C   UNL     1       0.403   8.672  22.290  0.00  0.00    +0.000 A 
ATOM     19  N   UNL     1       0.952   8.365  21.084  0.00  0.00    +0.000 NA
ATOM     20  C   UNL     1       0.976   9.369  20.200  0.00  0.00    +0.000 A 
ATOM     21  H   UNL     1       1.534   7.034  19.794  0.00  0.00    +0.000 HD
ENDBRANCH   5   7
BRANCH   1  23
ATOM     22  C   UNL     1       6.886   5.563  19.595  0.00  0.00    +0.000 C 
ATOM     23  C   UNL     1       6.379   4.481  18.617  0.00  0.00    +0.000 C 
BRANCH  23  24
ATOM     24  C   UNL     1       7.159   4.648  17.304  0.00  0.00    +0.000 C 
BRANCH  24  25
ATOM     25  C   UNL     1       6.502   5.460  16.244  0.00  0.00    +0.000 A 
ATOM     26  N   UNL     1       6.131   6.722  16.342  0.00  0.00    +0.000 NA
ATOM     27  N   UNL     1       5.272   6.998  15.302  0.00  0.00    +0.000 NA
ATOM     28  C   UNL     1       5.150   5.904  14.587  0.00  0.00    +0.000 A 
ATOM     29  N   UNL     1       5.978   4.948  15.085  0.00  0.00    +0.000 N 
ATOM     30  C   UNL     1       6.210   3.647  14.520  0.00  0.00    +0.000 C 
ENDBRANCH  24  25
ENDBRANCH  23  24
ENDBRANCH   1  23
TORSDOF 4
ENDMDL
MODEL 7
REMARK VINA RESULT:      -8.7      2.368      8.494
REMARK  Name = 
REMARK  8 active torsions:
REMARK  status: ('A' for Active; 'I' for Inactive)
REMARK    1  A    between atoms: C_1  and  C_2
REMARK    2  A    between atoms: C_2  and  C_3
REMARK    3  A    between atoms: C_2  and  C_10
REMARK    4  A    between atoms: C_3  and  C_4
REMARK    5  A    between atoms: N_8  and  C_9
REMARK    6  A    between atoms: C_14  and  N_15
REMARK    7  A    between atoms: C_20  and  C_21
REMARK    8  A    between atoms: C_20  and  C_22
REMARK                            x       y       z     vdW  Elec       q    Type
REMARK                         _______ _______ _______ _____ _____    ______ ____
ROOT
ATOM      1  C   UNL     1       3.781   4.927  18.549  0.00  0.00    +0.000 A 
ATOM      2  C   UNL     1       3.622   3.891  19.483  0.00  0.00    +0.000 A 
ATOM      3  C   UNL     1       2.747   4.029  20.558  0.00  0.00    +0.000 A 
ATOM      4  C   UNL     1       2.061   5.226  20.753  0.00  0.00    +0.000 A 
ATOM      5  C   UNL     1       2.267   6.307  19.898  0.00  0.00    +0.000 A 
ATOM      6  C   UNL     1       3.113   6.147  18.790  0.00  0.00    +0.000 A 
ENDROOT
BRANCH   5   7
ATOM      7  N   UNL     1       1.615   7.549  20.078  0.00  0.00    +0.000 N 
ATOM      8  C   UNL     1       1.748   8.667  19.290  0.00  0.00    +0.000 C 
ATOM      9  O   UNL     1       2.410   8.716  18.250  0.00  0.00    +0.000 OA
ATOM     10  N   UNL     1       1.043   9.781  19.696  0.00  0.00    +0.000 N 
ATOM     11  C   UNL     1       1.062  11.018  18.925  0.00  0.00    +0.000 C 
ATOM     12  C   UNL     1       0.114  12.018  19.638  0.00  0.00    +0.000 C 
ATOM     13  C   UNL     1       0.813  13.357  19.881  0.00  0.00    +0.000 C 
ATOM     14  C   UNL     1      -1.169  12.223  18.825  0.00  0.00    +0.000 C 
ATOM     15  C   UNL     1      -0.176  11.271  20.916  0.00  0.00    +0.000 A 
ATOM     16  C   UNL     1      -0.867  11.692  22.039  0.00  0.00    +0.000 A 
ATOM     17  C   UNL     1      -1.003  10.795  23.094  0.00  0.00    +0.000 A 
ATOM     18  C   UNL     1      -0.457   9.521  22.968  0.00  0.00    +0.000 A 
ATOM     19  N   UNL     1       0.212   9.080  21.869  0.00  0.00    +0.000 NA
ATOM     20  C   UNL     1       0.345   9.980  20.888  0.00  0.00    +0.000 A 
ATOM     21  H   UNL     1       0.907   7.612  20.803  0.00  0.00    +0.000 HD
ENDBRANCH   5   7
BRANCH   1  23
ATOM     22  C   UNL     1       4.166   3.374  16.594  0.00  0.00    +0.000 C 
ATOM     23  C   UNL     1       4.543   4.725  17.240  0.00  0.00    +0.000 C 
BRANCH  23  24
ATOM     24  C   UNL     1       6.075   4.770  17.348  0.00  0.00    +0.000 C 
BRANCH  24  25
ATOM     25  C   UNL     1       6.681   6.107  17.591  0.00  0.00    +0.000 A 
ATOM     26  N   UNL     1       6.642   7.144  16.777  0.00  0.00    +0.000 NA
ATOM     27  N   UNL     1       7.587   8.053  17.195  0.00  0.00    +0.000 NA
ATOM     28  C   UNL     1       8.172   7.556  18.259  0.00  0.00    +0.000 A 
ATOM     29  N   UNL     1       7.569   6.386  18.598  0.00  0.00    +0.000 N 
ATOM     30  C   UNL     1       7.851   5.590  19.761  0.00  0.00    +0.000 C 
ENDBRANCH  24  25
ENDBRANCH  23  24
ENDBRANCH   1  23
TORSDOF 4
ENDMDL
MODEL 8
REMARK VINA RESULT:      -8.6      3.098      4.271
REMARK  Name = 
REMARK  8 active torsions:
REMARK  status: ('A' for Active; 'I' for Inactive)
REMARK    1  A    between atoms: C_1  and  C_2
REMARK    2  A    between atoms: C_2  and  C_3
REMARK    3  A    between atoms: C_2  and  C_10
REMARK    4  A    between atoms: C_3  and  C_4
REMARK    5  A    between atoms: N_8  and  C_9
REMARK    6  A    between atoms: C_14  and  N_15
REMARK    7  A    between atoms: C_20  and  C_21
REMARK    8  A    between atoms: C_20  and  C_22
REMARK                            x       y       z     vdW  Elec       q    Type
REMARK                         _______ _______ _______ _____ _____    ______ ____
ROOT
ATOM      1  C   UNL     1      -0.131  10.888  20.993  0.00  0.00    +0.000 A 
ATOM      2  C   UNL     1      -0.660  11.567  19.883  0.00  0.00    +0.000 A 
ATOM      3  C   UNL     1      -0.462  11.082  18.592  0.00  0.00    +0.000 A 
ATOM      4  C   UNL     1       0.315   9.945  18.382  0.00  0.00    +0.000 A 
ATOM      5  C   UNL     1       0.932   9.302  19.454  0.00  0.00    +0.000 A 
ATOM      6  C   UNL     1       0.691   9.766  20.757  0.00  0.00    +0.000 A 
ENDROOT
BRANCH   5   7
ATOM      7  N   UNL     1       1.754   8.164  19.283  0.00  0.00    +0.000 N 
ATOM      8  C   UNL     1       2.607   7.918  18.235  0.00  0.00    +0.000 C 
ATOM      9  O   UNL     1       2.837   8.711  17.317  0.00  0.00    +0.000 OA
ATOM     10  N   UNL     1       3.273   6.709  18.267  0.00  0.00    +0.000 N 
ATOM     11  C   UNL     1       4.240   6.344  17.239  0.00  0.00    +0.000 C 
ATOM     12  C   UNL     1       4.829   4.965  17.632  0.00  0.00    +0.000 C 
ATOM     13  C   UNL     1       4.748   3.981  16.462  0.00  0.00    +0.000 C 
ATOM     14  C   UNL     1       6.278   5.109  18.111  0.00  0.00    +0.000 C 
ATOM     15  C   UNL     1       3.922   4.586  18.776  0.00  0.00    +0.000 A 
ATOM     16  C   UNL     1       3.850   3.395  19.479  0.00  0.00    +0.000 A 
ATOM     17  C   UNL     1       2.919   3.303  20.510  0.00  0.00    +0.000 A 
ATOM     18  C   UNL     1       2.121   4.407  20.796  0.00  0.00    +0.000 A 
ATOM     19  N   UNL     1       2.185   5.591  20.130  0.00  0.00    +0.000 NA
ATOM     20  C   UNL     1       3.072   5.631  19.129  0.00  0.00    +0.000 A 
ATOM     21  H   UNL     1       1.798   7.493  20.045  0.00  0.00    +0.000 HD
ENDBRANCH   5   7
BRANCH   1  23
ATOM     22  C   UNL     1      -0.716   9.983  23.279  0.00  0.00    +0.000 C 
ATOM     23  C   UNL     1      -0.523  11.255  22.424  0.00  0.00    +0.000 C 
BRANCH  23  24
ATOM     24  C   UNL     1      -1.796  12.102  22.570  0.00  0.00    +0.000 C 
BRANCH  24  25
ATOM     25  C   UNL     1      -1.631  13.439  23.205  0.00  0.00    +0.000 A 
ATOM     26  N   UNL     1      -0.530  14.165  23.225  0.00  0.00    +0.000 NA
ATOM     27  N   UNL     1      -0.681  15.145  24.179  0.00  0.00    +0.000 NA
ATOM     28  C   UNL     1      -1.873  15.003  24.709  0.00  0.00    +0.000 A 
ATOM     29  N   UNL     1      -2.537  14.009  24.061  0.00  0.00    +0.000 N 
ATOM     30  C   UNL     1      -3.903  13.618  24.276  0.00  0.00    +0.000 C 
ENDBRANCH  24  25
ENDBRANCH  23  24
ENDBRANCH   1  23
TORSDOF 4
ENDMDL
MODEL 9
REMARK VINA RESULT:      -8.6      1.778      2.311
REMARK  Name = 
REMARK  8 active torsions:
REMARK  status: ('A' for Active; 'I' for Inactive)
REMARK    1  A    between atoms: C_1  and  C_2
REMARK    2  A    between atoms: C_2  and  C_3
REMARK    3  A    between atoms: C_2  and  C_10
REMARK    4  A    between atoms: C_3  and  C_4
REMARK    5  A    between atoms: N_8  and  C_9
REMARK    6  A    between atoms: C_14  and  N_15
REMARK    7  A    between atoms: C_20  and  C_21
REMARK    8  A    between atoms: C_20  and  C_22
REMARK                            x       y       z     vdW  Elec       q    Type
REMARK                         _______ _______ _______ _____ _____    ______ ____
ROOT
ATOM      1  C   UNL     1      -0.631  10.570  20.677  0.00  0.00    +0.000 A 
ATOM      2  C   UNL     1      -0.763  10.822  22.052  0.00  0.00    +0.000 A 
ATOM      3  C   UNL     1      -0.066  10.059  22.986  0.00  0.00    +0.000 A 
ATOM      4  C   UNL     1       0.729   8.994  22.567  0.00  0.00    +0.000 A 
ATOM      5  C   UNL     1       0.807   8.658  21.217  0.00  0.00    +0.000 A 
ATOM      6  C   UNL     1       0.141   9.459  20.276  0.00  0.00    +0.000 A 
ENDROOT
BRANCH   5   7
ATOM      7  N   UNL     1       1.577   7.567  20.752  0.00  0.00    +0.000 N 
ATOM      8  C   UNL     1       2.249   7.487  19.556  0.00  0.00    +0.000 C 
ATOM      9  O   UNL     1       2.339   8.408  18.740  0.00  0.00    +0.000 OA
ATOM     10  N   UNL     1       2.894   6.293  19.303  0.00  0.00    +0.000 N 
ATOM     11  C   UNL     1       3.680   6.094  18.091  0.00  0.00    +0.000 C 
ATOM     12  C   UNL     1       4.305   4.677  18.178  0.00  0.00    +0.000 C 
ATOM     13  C   UNL     1       4.026   3.876  16.905  0.00  0.00    +0.000 C 
ATOM     14  C   UNL     1       5.814   4.764  18.436  0.00  0.00    +0.000 C 
ATOM     15  C   UNL     1       3.587   4.125  19.383  0.00  0.00    +0.000 A 
ATOM     16  C   UNL     1       3.612   2.843  19.907  0.00  0.00    +0.000 A 
ATOM     17  C   UNL     1       2.857   2.590  21.048  0.00  0.00    +0.000 A 
ATOM     18  C   UNL     1       2.129   3.632  21.617  0.00  0.00    +0.000 A 
ATOM     19  N   UNL     1       2.102   4.902  21.130  0.00  0.00    +0.000 NA
ATOM     20  C   UNL     1       2.819   5.098  20.018  0.00  0.00    +0.000 A 
ATOM     21  H   UNL     1       1.733   6.791  21.389  0.00  0.00    +0.000 HD
ENDBRANCH   5   7
BRANCH   1  23
ATOM     22  C   UNL     1      -0.046  12.140  18.785  0.00  0.00    +0.000 C 
ATOM     23  C   UNL     1      -1.189  11.527  19.623  0.00  0.00    +0.000 C 
BRANCH  23  24
ATOM     24  C   UNL     1      -2.036  12.689  20.161  0.00  0.00    +0.000 C 
BRANCH  24  25
ATOM     25  C   UNL     1      -3.505  12.458  20.233  0.00  0.00    +0.000 A 
ATOM     26  N   UNL     1      -4.312  12.234  19.214  0.00  0.00    +0.000 NA
ATOM     27  N   UNL     1      -5.607  12.414  19.646  0.00  0.00    +0.000 NA
ATOM     28  C   UNL     1      -5.561  12.731  20.918  0.00  0.00    +0.000 A 
ATOM     29  N   UNL     1      -4.272  12.674  21.349  0.00  0.00    +0.000 N 
ATOM     30  C   UNL     1      -3.819  12.853  22.701  0.00  0.00    +0.000 C 
ENDBRANCH  24  25
ENDBRANCH  23  24
ENDBRANCH   1  23
TORSDOF 4
ENDMDL
