MODEL 1
REMARK VINA RESULT:      -9.7      0.000      0.000
REMARK  Name = 
REMARK  8 active torsions:
REMARK  status: ('A' for Active; 'I' for Inactive)
REMARK    1  A    between atoms: C_1  and  N_2
REMARK    2  A    between atoms: C_6  and  C_7
REMARK    3  A    between atoms: C_7  and  C_8
REMARK    4  A    between atoms: C_8  and  C_9
REMARK    5  A    between atoms: C_13  and  N_14
REMARK    6  A    between atoms: C_21  and  C_22
REMARK    7  A    between atoms: C_30  and  C_31
REMARK    8  A    between atoms: C_31  and  O_32
REMARK                            x       y       z     vdW  Elec       q    Type
REMARK                         _______ _______ _______ _____ _____    ______ ____
ROOT
ATOM      1  C   UNL     1       4.404   4.802  17.675  0.00  0.00    +0.000 A 
ATOM      2  C   UNL     1       3.701   3.646  18.044  0.00  0.00    +0.000 A 
ATOM      3  C   UNL     1       2.499   3.712  18.759  0.00  0.00    +0.000 A 
ATOM      4  C   UNL     1       1.948   4.947  19.113  0.00  0.00    +0.000 A 
ATOM      5  C   UNL     1       2.584   6.120  18.723  0.00  0.00    +0.000 A 
ATOM      6  C   UNL     1       3.801   6.017  18.031  0.00  0.00    +0.000 A 
ENDROOT
BRANCH   5   7
ATOM      7  N   UNL     1       2.040   7.406  18.930  0.00  0.00    +0.000 N 
ATOM      8  C   UNL     1       1.357   7.699  20.175  0.00  0.00    +0.000 C 
ATOM      9  C   UNL     1       1.128   9.163  20.116  0.00  0.00    +0.000 A 
ATOM     10  C   UNL     1       1.518   9.642  18.868  0.00  0.00    +0.000 A 
ATOM     11  C   UNL     1       1.324  10.959  18.505  0.00  0.00    +0.000 A 
ATOM     12  C   UNL     1       0.735  11.803  19.448  0.00  0.00    +0.000 A 
ATOM     13  C   UNL     1       0.388  11.336  20.732  0.00  0.00    +0.000 A 
ATOM     14  C   UNL     1       0.591   9.995  21.093  0.00  0.00    +0.000 A 
ATOM     15  C   UNL     1       2.159   8.536  18.124  0.00  0.00    +0.000 C 
ATOM     16  O   UNL     1       2.675   8.678  17.034  0.00  0.00    +0.000 OA
BRANCH  14  17
ATOM     17  C   UNL     1       0.283   9.505  22.487  0.00  0.00    +0.000 C 
ATOM     18  F   UNL     1      -0.596   8.466  22.520  0.00  0.00    +0.000 F 
ATOM     19  F   UNL     1       1.396   9.057  23.130  0.00  0.00    +0.000 F 
ATOM     20  F   UNL     1      -0.252  10.472  23.277  0.00  0.00    +0.000 F 
ENDBRANCH  14  17
ENDBRANCH   5   7
BRANCH   1  21
ATOM     21  C   UNL     1       5.803   4.806  16.877  0.00  0.00    +0.000 C 
ATOM     22  C   UNL     1       7.001   4.130  17.639  0.00  0.00    +0.000 C 
ATOM     23  C   UNL     1       7.554   5.518  18.019  0.00  0.00    +0.000 C 
ATOM     24  C   UNL     1       6.663   6.130  16.917  0.00  0.00    +0.000 C 
BRANCH  21  25
ATOM     25  C   UNL     1       5.589   4.231  15.454  0.00  0.00    +0.000 C 
BRANCH  25  31
ATOM     26  C   UNL     1       5.781   3.355  12.381  0.00  0.00    +0.000 C 
ATOM     27  N   UNL     1       6.627   4.275  13.095  0.00  0.00    +0.000 N 
ATOM     28  C   UNL     1       7.731   4.875  12.563  0.00  0.00    +0.000 A 
ATOM     29  N   UNL     1       8.288   5.643  13.465  0.00  0.00    +0.000 NA
ATOM     30  N   UNL     1       7.543   5.540  14.615  0.00  0.00    +0.000 NA
ATOM     31  C   UNL     1       6.544   4.702  14.398  0.00  0.00    +0.000 A 
ENDBRANCH  25  31
ENDBRANCH  21  25
BRANCH  23  32
ATOM     32  C   UNL     1       7.289   5.989  19.445  0.00  0.00    +0.000 C 
BRANCH  32  33
ATOM     33  O   UNL     1       8.304   5.483  20.306  0.00  0.00    +0.000 OA
ATOM     34  H   UNL     1       7.900   4.795  20.863  0.00  0.00    +0.000 HD
ENDBRANCH  32  33
ENDBRANCH  23  32
ENDBRANCH   1  21
TORSDOF 7
ENDMDL
MODEL 2
REMARK VINA RESULT:      -9.7      0.874      1.449
REMARK  Name = 
REMARK  8 active torsions:
REMARK  status: ('A' for Active; 'I' for Inactive)
REMARK    1  A    between atoms: C_1  and  N_2
REMARK    2  A    between atoms: C_6  and  C_7
REMARK    3  A    between atoms: C_7  and  C_8
REMARK    4  A    between atoms: C_8  and  C_9
REMARK    5  A    between atoms: C_13  and  N_14
REMARK    6  A    between atoms: C_21  and  C_22
REMARK    7  A    between atoms: C_30  and  C_31
REMARK    8  A    between atoms: C_31  and  O_32
REMARK                            x       y       z     vdW  Elec       q    Type
REMARK                         _______ _______ _______ _____ _____    ______ ____
ROOT
ATOM      1  C   UNL     1       4.578   5.790  17.591  0.00  0.00    +0.000 A 
ATOM      2  C   UNL     1       4.019   4.526  17.826  0.00  0.00    +0.000 A 
ATOM      3  C   UNL     1       2.802   4.372  18.503  0.00  0.00    +0.000 A 
ATOM      4  C   UNL     1       2.092   5.489  18.953  0.00  0.00    +0.000 A 
ATOM      5  C   UNL     1       2.583   6.764  18.697  0.00  0.00    +0.000 A 
ATOM      6  C   UNL     1       3.818   6.881  18.039  0.00  0.00    +0.000 A 
ENDROOT
BRANCH   5   7
ATOM      7  N   UNL     1       1.877   7.947  19.005  0.00  0.00    +0.000 N 
ATOM      8  C   UNL     1       1.215   8.068  20.289  0.00  0.00    +0.000 C 
ATOM      9  C   UNL     1       0.783   9.486  20.333  0.00  0.00    +0.000 A 
ATOM     10  C   UNL     1       1.049  10.087  19.106  0.00  0.00    +0.000 A 
ATOM     11  C   UNL     1       0.659  11.383  18.836  0.00  0.00    +0.000 A 
ATOM     12  C   UNL     1       0.002  12.079  19.851  0.00  0.00    +0.000 A 
ATOM     13  C   UNL     1      -0.221  11.493  21.114  0.00  0.00    +0.000 A 
ATOM     14  C   UNL     1       0.181  10.175  21.380  0.00  0.00    +0.000 A 
ATOM     15  C   UNL     1       1.803   9.128  18.270  0.00  0.00    +0.000 C 
ATOM     16  O   UNL     1       2.246   9.405  17.173  0.00  0.00    +0.000 OA
BRANCH  14  17
ATOM     17  C   UNL     1       0.004   9.565  22.750  0.00  0.00    +0.000 C 
ATOM     18  F   UNL     1      -0.533  10.419  23.664  0.00  0.00    +0.000 F 
ATOM     19  F   UNL     1      -0.830   8.489  22.728  0.00  0.00    +0.000 F 
ATOM     20  F   UNL     1       1.174   9.131  23.286  0.00  0.00    +0.000 F 
ENDBRANCH  14  17
ENDBRANCH   5   7
BRANCH   1  21
ATOM     21  C   UNL     1       5.982   6.045  16.846  0.00  0.00    +0.000 C 
ATOM     22  C   UNL     1       7.081   4.953  17.113  0.00  0.00    +0.000 C 
ATOM     23  C   UNL     1       7.782   5.892  18.115  0.00  0.00    +0.000 C 
ATOM     24  C   UNL     1       6.986   7.068  17.509  0.00  0.00    +0.000 C 
BRANCH  21  25
ATOM     25  C   UNL     1       5.729   6.293  15.337  0.00  0.00    +0.000 C 
BRANCH  25  31
ATOM     26  C   UNL     1       8.200   5.704  13.389  0.00  0.00    +0.000 C 
ATOM     27  N   UNL     1       7.008   4.918  13.570  0.00  0.00    +0.000 N 
ATOM     28  C   UNL     1       6.708   3.800  12.849  0.00  0.00    +0.000 A 
ATOM     29  N   UNL     1       5.554   3.323  13.243  0.00  0.00    +0.000 NA
ATOM     30  N   UNL     1       5.082   4.147  14.235  0.00  0.00    +0.000 NA
ATOM     31  C   UNL     1       5.953   5.122  14.427  0.00  0.00    +0.000 A 
ENDBRANCH  25  31
ENDBRANCH  21  25
BRANCH  23  32
ATOM     32  C   UNL     1       7.547   5.605  19.595  0.00  0.00    +0.000 C 
BRANCH  32  33
ATOM     33  O   UNL     1       8.788   5.289  20.218  0.00  0.00    +0.000 OA
ATOM     34  H   UNL     1       9.411   5.029  19.516  0.00  0.00    +0.000 HD
ENDBRANCH  32  33
ENDBRANCH  23  32
ENDBRANCH   1  21
TORSDOF 7
ENDMDL
MODEL 3
REMARK VINA RESULT:      -9.6      4.287      8.795
REMARK  Name = 
REMARK  8 active torsions:
REMARK  status: ('A' for Active; 'I' for Inactive)
REMARK    1  A    between atoms: C_1  and  N_2
REMARK    2  A    between atoms: C_6  and  C_7
REMARK    3  A    between atoms: C_7  and  C_8
REMARK    4  A    between atoms: C_8  and  C_9
REMARK    5  A    between atoms: C_13  and  N_14
REMARK    6  A    between atoms: C_21  and  C_22
REMARK    7  A    between atoms: C_30  and  C_31
REMARK    8  A    between atoms: C_31  and  O_32
REMARK                            x       y       z     vdW  Elec       q    Type
REMARK                         _______ _______ _______ _____ _____    ______ ____
ROOT
ATOM      1  C   UNL     1      -0.743  11.103  20.530  0.00  0.00    +0.000 A 
ATOM      2  C   UNL     1      -0.790  11.200  21.928  0.00  0.00    +0.000 A 
ATOM      3  C   UNL     1      -0.164  10.257  22.753  0.00  0.00    +0.000 A 
ATOM      4  C   UNL     1       0.551   9.190  22.200  0.00  0.00    +0.000 A 
ATOM      5  C   UNL     1       0.666   9.084  20.819  0.00  0.00    +0.000 A 
ATOM      6  C   UNL     1       0.004  10.030  20.021  0.00  0.00    +0.000 A 
ENDROOT
BRANCH   5   7
ATOM      7  N   UNL     1       1.466   8.113  20.177  0.00  0.00    +0.000 N 
ATOM      8  C   UNL     1       1.548   6.776  20.733  0.00  0.00    +0.000 C 
ATOM      9  C   UNL     1       2.278   6.007  19.697  0.00  0.00    +0.000 A 
ATOM     10  C   UNL     1       2.707   6.873  18.695  0.00  0.00    +0.000 A 
ATOM     11  C   UNL     1       3.497   6.437  17.651  0.00  0.00    +0.000 A 
ATOM     12  C   UNL     1       3.837   5.083  17.626  0.00  0.00    +0.000 A 
ATOM     13  C   UNL     1       3.359   4.191  18.609  0.00  0.00    +0.000 A 
ATOM     14  C   UNL     1       2.554   4.644  19.666  0.00  0.00    +0.000 A 
ATOM     15  C   UNL     1       2.141   8.212  18.963  0.00  0.00    +0.000 C 
ATOM     16  O   UNL     1       2.277   9.156  18.210  0.00  0.00    +0.000 OA
BRANCH  14  17
ATOM     17  C   UNL     1       1.987   3.683  20.683  0.00  0.00    +0.000 C 
ATOM     18  F   UNL     1       0.627   3.685  20.737  0.00  0.00    +0.000 F 
ATOM     19  F   UNL     1       2.335   2.394  20.419  0.00  0.00    +0.000 F 
ATOM     20  F   UNL     1       2.413   3.943  21.946  0.00  0.00    +0.000 F 
ENDBRANCH  14  17
ENDBRANCH   5   7
BRANCH   1  21
ATOM     21  C   UNL     1      -1.459  12.130  19.518  0.00  0.00    +0.000 C 
ATOM     22  C   UNL     1      -0.566  12.603  18.313  0.00  0.00    +0.000 C 
ATOM     23  C   UNL     1      -0.306  13.947  19.022  0.00  0.00    +0.000 C 
ATOM     24  C   UNL     1      -1.513  13.652  19.937  0.00  0.00    +0.000 C 
BRANCH  21  25
ATOM     25  C   UNL     1      -2.823  11.547  19.067  0.00  0.00    +0.000 C 
BRANCH  25  31
ATOM     26  C   UNL     1      -5.179  12.061  16.962  0.00  0.00    +0.000 C 
ATOM     27  N   UNL     1      -3.964  11.314  16.768  0.00  0.00    +0.000 N 
ATOM     28  C   UNL     1      -3.662  10.620  15.633  0.00  0.00    +0.000 A 
ATOM     29  N   UNL     1      -2.496  10.041  15.772  0.00  0.00    +0.000 NA
ATOM     30  N   UNL     1      -2.026  10.353  17.024  0.00  0.00    +0.000 NA
ATOM     31  C   UNL     1      -2.918  11.112  17.635  0.00  0.00    +0.000 A 
ENDBRANCH  25  31
ENDBRANCH  21  25
BRANCH  23  32
ATOM     32  C   UNL     1       1.046  14.102  19.711  0.00  0.00    +0.000 C 
BRANCH  32  33
ATOM     33  O   UNL     1       1.726  15.230  19.170  0.00  0.00    +0.000 OA
ATOM     34  H   UNL     1       2.402  14.897  18.553  0.00  0.00    +0.000 HD
ENDBRANCH  32  33
ENDBRANCH  23  32
ENDBRANCH   1  21
TORSDOF 7
ENDMDL
MODEL 4
REMARK VINA RESULT:      -9.5      4.326      9.039
REMARK  Name = 
REMARK  8 active torsions:
REMARK  status: ('A' for Active; 'I' for Inactive)
REMARK    1  A    between atoms: C_1  and  N_2
REMARK    2  A    between atoms: C_6  and  C_7
REMARK    3  A    between atoms: C_7  and  C_8
REMARK    4  A    between atoms: C_8  and  C_9
REMARK    5  A    between atoms: C_13  and  N_14
REMARK    6  A    between atoms: C_21  and  C_22
REMARK    7  A    between atoms: C_30  and  C_31
REMARK    8  A    between atoms: C_31  and  O_32
REMARK                            x       y       z     vdW  Elec       q    Type
REMARK                         _______ _______ _______ _____ _____    ______ ____
ROOT
ATOM      1  C   UNL     1      -0.691  11.154  20.730  0.00  0.00    +0.000 A 
ATOM      2  C   UNL     1      -0.854  11.126  22.123  0.00  0.00    +0.000 A 
ATOM      3  C   UNL     1      -0.340  10.083  22.904  0.00  0.00    +0.000 A 
ATOM      4  C   UNL     1       0.375   9.037  22.313  0.00  0.00    +0.000 A 
ATOM      5  C   UNL     1       0.605   9.051  20.942  0.00  0.00    +0.000 A 
ATOM      6  C   UNL     1       0.053  10.097  20.186  0.00  0.00    +0.000 A 
ENDROOT
BRANCH   5   7
ATOM      7  N   UNL     1       1.417   8.105  20.279  0.00  0.00    +0.000 N 
ATOM      8  C   UNL     1       1.529   6.762  20.815  0.00  0.00    +0.000 C 
ATOM      9  C   UNL     1       2.263   6.021  19.761  0.00  0.00    +0.000 A 
ATOM     10  C   UNL     1       2.667   6.910  18.768  0.00  0.00    +0.000 A 
ATOM     11  C   UNL     1       3.456   6.504  17.711  0.00  0.00    +0.000 A 
ATOM     12  C   UNL     1       3.820   5.157  17.664  0.00  0.00    +0.000 A 
ATOM     13  C   UNL     1       3.368   4.242  18.637  0.00  0.00    +0.000 A 
ATOM     14  C   UNL     1       2.564   4.664  19.708  0.00  0.00    +0.000 A 
ATOM     15  C   UNL     1       2.079   8.234  19.060  0.00  0.00    +0.000 C 
ATOM     16  O   UNL     1       2.190   9.191  18.320  0.00  0.00    +0.000 OA
BRANCH  14  17
ATOM     17  C   UNL     1       2.024   3.679  20.715  0.00  0.00    +0.000 C 
ATOM     18  F   UNL     1       0.664   3.620  20.748  0.00  0.00    +0.000 F 
ATOM     19  F   UNL     1       2.434   2.406  20.457  0.00  0.00    +0.000 F 
ATOM     20  F   UNL     1       2.417   3.957  21.985  0.00  0.00    +0.000 F 
ENDBRANCH  14  17
ENDBRANCH   5   7
BRANCH   1  21
ATOM     21  C   UNL     1      -1.275  12.303  19.765  0.00  0.00    +0.000 C 
ATOM     22  C   UNL     1      -2.808  12.176  19.437  0.00  0.00    +0.000 C 
ATOM     23  C   UNL     1      -2.472  11.595  18.049  0.00  0.00    +0.000 C 
ATOM     24  C   UNL     1      -1.038  12.142  18.212  0.00  0.00    +0.000 C 
BRANCH  21  25
ATOM     25  C   UNL     1      -0.889  13.695  20.325  0.00  0.00    +0.000 C 
BRANCH  25  31
ATOM     26  C   UNL     1      -0.349  16.285  18.522  0.00  0.00    +0.000 C 
ATOM     27  N   UNL     1       0.615  15.353  19.045  0.00  0.00    +0.000 N 
ATOM     28  C   UNL     1       1.951  15.394  18.771  0.00  0.00    +0.000 A 
ATOM     29  N   UNL     1       2.553  14.407  19.385  0.00  0.00    +0.000 NA
ATOM     30  N   UNL     1       1.596  13.698  20.069  0.00  0.00    +0.000 NA
ATOM     31  C   UNL     1       0.419  14.260  19.854  0.00  0.00    +0.000 A 
ENDBRANCH  25  31
ENDBRANCH  21  25
BRANCH  23  32
ATOM     32  C   UNL     1      -2.608  10.083  17.894  0.00  0.00    +0.000 C 
BRANCH  32  33
ATOM     33  O   UNL     1      -2.977   9.778  16.553  0.00  0.00    +0.000 OA
ATOM     34  H   UNL     1      -2.933  10.604  16.041  0.00  0.00    +0.000 HD
ENDBRANCH  32  33
ENDBRANCH  23  32
ENDBRANCH   1  21
TORSDOF 7
ENDMDL
MODEL 5
REMARK VINA RESULT:      -9.4      4.280      8.939
REMARK  Name = 
REMARK  8 active torsions:
REMARK  status: ('A' for Active; 'I' for Inactive)
REMARK    1  A    between atoms: C_1  and  N_2
REMARK    2  A    between atoms: C_6  and  C_7
REMARK    3  A    between atoms: C_7  and  C_8
REMARK    4  A    between atoms: C_8  and  C_9
REMARK    5  A    between atoms: C_13  and  N_14
REMARK    6  A    between atoms: C_21  and  C_22
REMARK    7  A    between atoms: C_30  and  C_31
REMARK    8  A    between atoms: C_31  and  O_32
REMARK                            x       y       z     vdW  Elec       q    Type
REMARK                         _______ _______ _______ _____ _____    ______ ____
ROOT
ATOM      1  C   UNL     1       0.185  11.323  20.946  0.00  0.00    +0.000 A 
ATOM      2  C   UNL     1      -0.434  11.071  22.178  0.00  0.00    +0.000 A 
ATOM      3  C   UNL     1      -0.463   9.788  22.740  0.00  0.00    +0.000 A 
ATOM      4  C   UNL     1       0.149   8.712  22.089  0.00  0.00    +0.000 A 
ATOM      5  C   UNL     1       0.819   8.927  20.890  0.00  0.00    +0.000 A 
ATOM      6  C   UNL     1       0.806  10.219  20.342  0.00  0.00    +0.000 A 
ENDROOT
BRANCH   5   7
ATOM      7  N   UNL     1       1.566   7.929  20.227  0.00  0.00    +0.000 N 
ATOM      8  C   UNL     1       1.615   6.589  20.780  0.00  0.00    +0.000 C 
ATOM      9  C   UNL     1       2.289   5.796  19.724  0.00  0.00    +0.000 A 
ATOM     10  C   UNL     1       2.722   6.647  18.712  0.00  0.00    +0.000 A 
ATOM     11  C   UNL     1       3.468   6.184  17.647  0.00  0.00    +0.000 A 
ATOM     12  C   UNL     1       3.758   4.819  17.613  0.00  0.00    +0.000 A 
ATOM     13  C   UNL     1       3.275   3.944  18.608  0.00  0.00    +0.000 A 
ATOM     14  C   UNL     1       2.515   4.423  19.686  0.00  0.00    +0.000 A 
ATOM     15  C   UNL     1       2.212   8.006  18.995  0.00  0.00    +0.000 C 
ATOM     16  O   UNL     1       2.361   8.944  18.239  0.00  0.00    +0.000 OA
BRANCH  14  17
ATOM     17  C   UNL     1       1.941   3.483  20.717  0.00  0.00    +0.000 C 
ATOM     18  F   UNL     1       2.220   2.172  20.477  0.00  0.00    +0.000 F 
ATOM     19  F   UNL     1       2.426   3.732  21.964  0.00  0.00    +0.000 F 
ATOM     20  F   UNL     1       0.588   3.567  20.809  0.00  0.00    +0.000 F 
ENDBRANCH  14  17
ENDBRANCH   5   7
BRANCH   1  21
ATOM     21  C   UNL     1       0.236  12.762  20.226  0.00  0.00    +0.000 C 
ATOM     22  C   UNL     1      -1.166  13.352  19.825  0.00  0.00    +0.000 C 
ATOM     23  C   UNL     1      -0.930  12.941  18.358  0.00  0.00    +0.000 C 
ATOM     24  C   UNL     1       0.573  12.796  18.683  0.00  0.00    +0.000 C 
BRANCH  21  25
ATOM     25  C   UNL     1       1.081  13.740  21.081  0.00  0.00    +0.000 C 
BRANCH  25  31
ATOM     26  C   UNL     1       0.767  16.527  19.539  0.00  0.00    +0.000 C 
ATOM     27  N   UNL     1       1.945  15.709  19.659  0.00  0.00    +0.000 N 
ATOM     28  C   UNL     1       3.131  15.974  19.039  0.00  0.00    +0.000 A 
ATOM     29  N   UNL     1       3.999  15.040  19.338  0.00  0.00    +0.000 NA
ATOM     30  N   UNL     1       3.369  14.138  20.162  0.00  0.00    +0.000 NA
ATOM     31  C   UNL     1       2.122  14.533  20.347  0.00  0.00    +0.000 A 
ENDBRANCH  25  31
ENDBRANCH  21  25
BRANCH  23  32
ATOM     32  C   UNL     1      -1.645  11.681  17.882  0.00  0.00    +0.000 C 
BRANCH  32  33
ATOM     33  O   UNL     1      -2.006  11.831  16.513  0.00  0.00    +0.000 OA
ATOM     34  H   UNL     1      -1.231  12.186  16.043  0.00  0.00    +0.000 HD
ENDBRANCH  32  33
ENDBRANCH  23  32
ENDBRANCH   1  21
TORSDOF 7
ENDMDL
MODEL 6
REMARK VINA RESULT:      -9.3      4.329      9.105
REMARK  Name = 
REMARK  8 active torsions:
REMARK  status: ('A' for Active; 'I' for Inactive)
REMARK    1  A    between atoms: C_1  and  N_2
REMARK    2  A    between atoms: C_6  and  C_7
REMARK    3  A    between atoms: C_7  and  C_8
REMARK    4  A    between atoms: C_8  and  C_9
REMARK    5  A    between atoms: C_13  and  N_14
REMARK    6  A    between atoms: C_21  and  C_22
REMARK    7  A    between atoms: C_30  and  C_31
REMARK    8  A    between atoms: C_31  and  O_32
REMARK                            x       y       z     vdW  Elec       q    Type
REMARK                         _______ _______ _______ _____ _____    ______ ____
ROOT
ATOM      1  C   UNL     1      -0.630  11.184  20.788  0.00  0.00    +0.000 A 
ATOM      2  C   UNL     1      -0.779  11.152  22.182  0.00  0.00    +0.000 A 
ATOM      3  C   UNL     1      -0.269  10.100  22.953  0.00  0.00    +0.000 A 
ATOM      4  C   UNL     1       0.430   9.049  22.351  0.00  0.00    +0.000 A 
ATOM      5  C   UNL     1       0.646   9.066  20.978  0.00  0.00    +0.000 A 
ATOM      6  C   UNL     1       0.098  10.122  20.231  0.00  0.00    +0.000 A 
ENDROOT
BRANCH   5   7
ATOM      7  N   UNL     1       1.441   8.115  20.303  0.00  0.00    +0.000 N 
ATOM      8  C   UNL     1       1.546   6.769  20.834  0.00  0.00    +0.000 C 
ATOM      9  C   UNL     1       2.262   6.025  19.770  0.00  0.00    +0.000 A 
ATOM     10  C   UNL     1       2.663   6.912  18.775  0.00  0.00    +0.000 A 
ATOM     11  C   UNL     1       3.436   6.502  17.708  0.00  0.00    +0.000 A 
ATOM     12  C   UNL     1       3.786   5.152  17.653  0.00  0.00    +0.000 A 
ATOM     13  C   UNL     1       3.337   4.238  18.628  0.00  0.00    +0.000 A 
ATOM     14  C   UNL     1       2.549   4.665  19.709  0.00  0.00    +0.000 A 
ATOM     15  C   UNL     1       2.091   8.241  19.078  0.00  0.00    +0.000 C 
ATOM     16  O   UNL     1       2.203   9.199  18.339  0.00  0.00    +0.000 OA
BRANCH  14  17
ATOM     17  C   UNL     1       2.010   3.681  20.719  0.00  0.00    +0.000 C 
ATOM     18  F   UNL     1       2.391   2.395  20.488  0.00  0.00    +0.000 F 
ATOM     19  F   UNL     1       2.435   3.961  21.982  0.00  0.00    +0.000 F 
ATOM     20  F   UNL     1       0.653   3.668  20.766  0.00  0.00    +0.000 F 
ENDBRANCH  14  17
ENDBRANCH   5   7
BRANCH   1  21
ATOM     21  C   UNL     1      -1.211  12.343  19.832  0.00  0.00    +0.000 C 
ATOM     22  C   UNL     1      -2.713  12.158  19.406  0.00  0.00    +0.000 C 
ATOM     23  C   UNL     1      -2.267  11.651  18.021  0.00  0.00    +0.000 C 
ATOM     24  C   UNL     1      -0.873  12.257  18.292  0.00  0.00    +0.000 C 
BRANCH  21  25
ATOM     25  C   UNL     1      -0.928  13.728  20.468  0.00  0.00    +0.000 C 
BRANCH  25  31
ATOM     26  C   UNL     1       2.265  13.511  20.554  0.00  0.00    +0.000 C 
ATOM     27  N   UNL     1       1.461  14.485  19.865  0.00  0.00    +0.000 N 
ATOM     28  C   UNL     1       1.966  15.553  19.181  0.00  0.00    +0.000 A 
ATOM     29  N   UNL     1       0.983  16.254  18.678  0.00  0.00    +0.000 NA
ATOM     30  N   UNL     1      -0.192  15.643  19.044  0.00  0.00    +0.000 NA
ATOM     31  C   UNL     1       0.094  14.579  19.774  0.00  0.00    +0.000 A 
ENDBRANCH  25  31
ENDBRANCH  21  25
BRANCH  23  32
ATOM     32  C   UNL     1      -2.319  10.142  17.800  0.00  0.00    +0.000 C 
BRANCH  32  33
ATOM     33  O   UNL     1      -3.615   9.777  17.338  0.00  0.00    +0.000 OA
ATOM     34  H   UNL     1      -3.509   9.024  16.730  0.00  0.00    +0.000 HD
ENDBRANCH  32  33
ENDBRANCH  23  32
ENDBRANCH   1  21
TORSDOF 7
ENDMDL
MODEL 7
REMARK VINA RESULT:      -9.3      4.324      9.180
REMARK  Name = 
REMARK  8 active torsions:
REMARK  status: ('A' for Active; 'I' for Inactive)
REMARK    1  A    between atoms: C_1  and  N_2
REMARK    2  A    between atoms: C_6  and  C_7
REMARK    3  A    between atoms: C_7  and  C_8
REMARK    4  A    between atoms: C_8  and  C_9
REMARK    5  A    between atoms: C_13  and  N_14
REMARK    6  A    between atoms: C_21  and  C_22
REMARK    7  A    between atoms: C_30  and  C_31
REMARK    8  A    between atoms: C_31  and  O_32
REMARK                            x       y       z     vdW  Elec       q    Type
REMARK                         _______ _______ _______ _____ _____    ______ ____
ROOT
ATOM      1  C   UNL     1      -0.691  11.207  20.762  0.00  0.00    +0.000 A 
ATOM      2  C   UNL     1      -0.842  11.173  22.156  0.00  0.00    +0.000 A 
ATOM      3  C   UNL     1      -0.325  10.123  22.927  0.00  0.00    +0.000 A 
ATOM      4  C   UNL     1       0.381   9.078  22.325  0.00  0.00    +0.000 A 
ATOM      5  C   UNL     1       0.600   9.098  20.952  0.00  0.00    +0.000 A 
ATOM      6  C   UNL     1       0.045  10.151  20.206  0.00  0.00    +0.000 A 
ENDROOT
BRANCH   5   7
ATOM      7  N   UNL     1       1.402   8.153  20.278  0.00  0.00    +0.000 N 
ATOM      8  C   UNL     1       1.508   6.805  20.801  0.00  0.00    +0.000 C 
ATOM      9  C   UNL     1       2.233   6.068  19.738  0.00  0.00    +0.000 A 
ATOM     10  C   UNL     1       2.639   6.963  18.751  0.00  0.00    +0.000 A 
ATOM     11  C   UNL     1       3.420   6.561  17.687  0.00  0.00    +0.000 A 
ATOM     12  C   UNL     1       3.775   5.212  17.626  0.00  0.00    +0.000 A 
ATOM     13  C   UNL     1       3.321   4.292  18.594  0.00  0.00    +0.000 A 
ATOM     14  C   UNL     1       2.525   4.710  19.671  0.00  0.00    +0.000 A 
ATOM     15  C   UNL     1       2.060   8.289  19.057  0.00  0.00    +0.000 C 
ATOM     16  O   UNL     1       2.174   9.251  18.324  0.00  0.00    +0.000 OA
BRANCH  14  17
ATOM     17  C   UNL     1       1.982   3.719  20.672  0.00  0.00    +0.000 C 
ATOM     18  F   UNL     1       2.382   2.438  20.446  0.00  0.00    +0.000 F 
ATOM     19  F   UNL     1       2.384   4.003  21.942  0.00  0.00    +0.000 F 
ATOM     20  F   UNL     1       0.625   3.689  20.698  0.00  0.00    +0.000 F 
ENDBRANCH  14  17
ENDBRANCH   5   7
BRANCH   1  21
ATOM     21  C   UNL     1      -1.278  12.363  19.808  0.00  0.00    +0.000 C 
ATOM     22  C   UNL     1      -0.835  12.266  18.302  0.00  0.00    +0.000 C 
ATOM     23  C   UNL     1       0.198  13.388  18.524  0.00  0.00    +0.000 C 
ATOM     24  C   UNL     1      -0.549  13.764  19.822  0.00  0.00    +0.000 C 
BRANCH  21  25
ATOM     25  C   UNL     1      -2.816  12.446  19.981  0.00  0.00    +0.000 C 
BRANCH  25  31
ATOM     26  C   UNL     1      -5.784  13.211  19.058  0.00  0.00    +0.000 C 
ATOM     27  N   UNL     1      -4.931  12.179  18.531  0.00  0.00    +0.000 N 
ATOM     28  C   UNL     1      -5.308  11.285  17.572  0.00  0.00    +0.000 A 
ATOM     29  N   UNL     1      -4.315  10.472  17.318  0.00  0.00    +0.000 NA
ATOM     30  N   UNL     1      -3.267  10.830  18.131  0.00  0.00    +0.000 NA
ATOM     31  C   UNL     1      -3.641  11.855  18.876  0.00  0.00    +0.000 A 
ENDBRANCH  25  31
ENDBRANCH  21  25
BRANCH  23  32
ATOM     32  C   UNL     1       1.652  12.953  18.681  0.00  0.00    +0.000 C 
BRANCH  32  33
ATOM     33  O   UNL     1       2.309  13.040  17.421  0.00  0.00    +0.000 OA
ATOM     34  H   UNL     1       1.846  13.715  16.895  0.00  0.00    +0.000 HD
ENDBRANCH  32  33
ENDBRANCH  23  32
ENDBRANCH   1  21
TORSDOF 7
ENDMDL
MODEL 8
REMARK VINA RESULT:      -9.3      4.207      9.446
REMARK  Name = 
REMARK  8 active torsions:
REMARK  status: ('A' for Active; 'I' for Inactive)
REMARK    1  A    between atoms: C_1  and  N_2
REMARK    2  A    between atoms: C_6  and  C_7
REMARK    3  A    between atoms: C_7  and  C_8
REMARK    4  A    between atoms: C_8  and  C_9
REMARK    5  A    between atoms: C_13  and  N_14
REMARK    6  A    between atoms: C_21  and  C_22
REMARK    7  A    between atoms: C_30  and  C_31
REMARK    8  A    between atoms: C_31  and  O_32
REMARK                            x       y       z     vdW  Elec       q    Type
REMARK                         _______ _______ _______ _____ _____    ______ ____
ROOT
ATOM      1  C   UNL     1       0.481  11.078  20.780  0.00  0.00    +0.000 A 
ATOM      2  C   UNL     1      -0.167  10.861  22.004  0.00  0.00    +0.000 A 
ATOM      3  C   UNL     1      -0.263   9.583  22.570  0.00  0.00    +0.000 A 
ATOM      4  C   UNL     1       0.310   8.478  21.934  0.00  0.00    +0.000 A 
ATOM      5  C   UNL     1       1.007   8.655  20.745  0.00  0.00    +0.000 A 
ATOM      6  C   UNL     1       1.061   9.944  20.191  0.00  0.00    +0.000 A 
ENDROOT
BRANCH   5   7
ATOM      7  N   UNL     1       1.718   7.621  20.098  0.00  0.00    +0.000 N 
ATOM      8  C   UNL     1       1.701   6.284  20.660  0.00  0.00    +0.000 C 
ATOM      9  C   UNL     1       2.353   5.455  19.619  0.00  0.00    +0.000 A 
ATOM     10  C   UNL     1       2.836   6.279  18.606  0.00  0.00    +0.000 A 
ATOM     11  C   UNL     1       3.574   5.777  17.555  0.00  0.00    +0.000 A 
ATOM     12  C   UNL     1       3.805   4.400  17.533  0.00  0.00    +0.000 A 
ATOM     13  C   UNL     1       3.272   3.554  18.527  0.00  0.00    +0.000 A 
ATOM     14  C   UNL     1       2.520   4.073  19.592  0.00  0.00    +0.000 A 
ATOM     15  C   UNL     1       2.382   7.660  18.874  0.00  0.00    +0.000 C 
ATOM     16  O   UNL     1       2.581   8.587  18.114  0.00  0.00    +0.000 OA
BRANCH  14  17
ATOM     17  C   UNL     1       1.892   3.166  20.622  0.00  0.00    +0.000 C 
ATOM     18  F   UNL     1       1.979   1.844  20.311  0.00  0.00    +0.000 F 
ATOM     19  F   UNL     1       2.484   3.289  21.842  0.00  0.00    +0.000 F 
ATOM     20  F   UNL     1       0.571   3.420  20.810  0.00  0.00    +0.000 F 
ENDBRANCH  14  17
ENDBRANCH   5   7
BRANCH   1  21
ATOM     21  C   UNL     1       0.608  12.509  20.054  0.00  0.00    +0.000 C 
ATOM     22  C   UNL     1      -0.755  13.260  19.827  0.00  0.00    +0.000 C 
ATOM     23  C   UNL     1      -0.750  12.840  18.344  0.00  0.00    +0.000 C 
ATOM     24  C   UNL     1       0.754  12.521  18.481  0.00  0.00    +0.000 C 
BRANCH  21  25
ATOM     25  C   UNL     1       1.659  13.374  20.795  0.00  0.00    +0.000 C 
BRANCH  25  31
ATOM     26  C   UNL     1       1.482  16.408  19.788  0.00  0.00    +0.000 C 
ATOM     27  N   UNL     1       1.111  15.877  21.073  0.00  0.00    +0.000 N 
ATOM     28  C   UNL     1       0.684  16.637  22.123  0.00  0.00    +0.000 A 
ATOM     29  N   UNL     1       0.436  15.863  23.150  0.00  0.00    +0.000 NA
ATOM     30  N   UNL     1       0.714  14.572  22.772  0.00  0.00    +0.000 NA
ATOM     31  C   UNL     1       1.135  14.578  21.520  0.00  0.00    +0.000 A 
ENDBRANCH  25  31
ENDBRANCH  21  25
BRANCH  23  32
ATOM     32  C   UNL     1      -1.659  11.675  17.964  0.00  0.00    +0.000 C 
BRANCH  32  33
ATOM     33  O   UNL     1      -2.036  11.797  16.597  0.00  0.00    +0.000 OA
ATOM     34  H   UNL     1      -1.992  10.910  16.200  0.00  0.00    +0.000 HD
ENDBRANCH  32  33
ENDBRANCH  23  32
ENDBRANCH   1  21
TORSDOF 7
ENDMDL
MODEL 9
REMARK VINA RESULT:      -9.2      3.985      8.755
REMARK  Name = 
REMARK  8 active torsions:
REMARK  status: ('A' for Active; 'I' for Inactive)
REMARK    1  A    between atoms: C_1  and  N_2
REMARK    2  A    between atoms: C_6  and  C_7
REMARK    3  A    between atoms: C_7  and  C_8
REMARK    4  A    between atoms: C_8  and  C_9
REMARK    5  A    between atoms: C_13  and  N_14
REMARK    6  A    between atoms: C_21  and  C_22
REMARK    7  A    between atoms: C_30  and  C_31
REMARK    8  A    between atoms: C_31  and  O_32
REMARK                            x       y       z     vdW  Elec       q    Type
REMARK                         _______ _______ _______ _____ _____    ______ ____
ROOT
ATOM      1  C   UNL     1      -0.469  10.257  20.077  0.00  0.00    +0.000 A 
ATOM      2  C   UNL     1      -0.408  10.255  21.478  0.00  0.00    +0.000 A 
ATOM      3  C   UNL     1       0.446   9.392  22.177  0.00  0.00    +0.000 A 
ATOM      4  C   UNL     1       1.287   8.511  21.489  0.00  0.00    +0.000 A 
ATOM      5  C   UNL     1       1.297   8.516  20.099  0.00  0.00    +0.000 A 
ATOM      6  C   UNL     1       0.409   9.375  19.431  0.00  0.00    +0.000 A 
ENDROOT
BRANCH   5   7
ATOM      7  N   UNL     1       2.196   7.752  19.325  0.00  0.00    +0.000 N 
ATOM      8  C   UNL     1       2.409   6.355  19.652  0.00  0.00    +0.000 C 
ATOM      9  C   UNL     1       3.221   5.847  18.520  0.00  0.00    +0.000 A 
ATOM     10  C   UNL     1       3.568   6.907  17.687  0.00  0.00    +0.000 A 
ATOM     11  C   UNL     1       4.406   6.733  16.605  0.00  0.00    +0.000 A 
ATOM     12  C   UNL     1       4.881   5.443  16.364  0.00  0.00    +0.000 A 
ATOM     13  C   UNL     1       4.490   4.356  17.172  0.00  0.00    +0.000 A 
ATOM     14  C   UNL     1       3.635   4.542  18.270  0.00  0.00    +0.000 A 
ATOM     15  C   UNL     1       2.867   8.120  18.160  0.00  0.00    +0.000 C 
ATOM     16  O   UNL     1       2.911   9.185  17.579  0.00  0.00    +0.000 OA
BRANCH  14  17
ATOM     17  C   UNL     1       3.160   3.373  19.098  0.00  0.00    +0.000 C 
ATOM     18  F   UNL     1       3.688   2.179  18.713  0.00  0.00    +0.000 F 
ATOM     19  F   UNL     1       3.493   3.508  20.411  0.00  0.00    +0.000 F 
ATOM     20  F   UNL     1       1.812   3.216  19.060  0.00  0.00    +0.000 F 
ENDBRANCH  14  17
ENDBRANCH   5   7
BRANCH   1  21
ATOM     21  C   UNL     1      -1.442  11.198  19.206  0.00  0.00    +0.000 C 
ATOM     22  C   UNL     1      -0.719  12.063  18.108  0.00  0.00    +0.000 C 
ATOM     23  C   UNL     1      -0.815  13.307  19.012  0.00  0.00    +0.000 C 
ATOM     24  C   UNL     1      -1.891  12.573  19.841  0.00  0.00    +0.000 C 
BRANCH  21  25
ATOM     25  C   UNL     1      -2.608  10.351  18.637  0.00  0.00    +0.000 C 
BRANCH  25  31
ATOM     26  C   UNL     1      -4.948  11.896  17.092  0.00  0.00    +0.000 C 
ATOM     27  N   UNL     1      -3.889  11.100  16.529  0.00  0.00    +0.000 N 
ATOM     28  C   UNL     1      -3.769  10.809  15.201  0.00  0.00    +0.000 A 
ATOM     29  N   UNL     1      -2.713  10.060  15.012  0.00  0.00    +0.000 NA
ATOM     30  N   UNL     1      -2.132   9.844  16.238  0.00  0.00    +0.000 NA
ATOM     31  C   UNL     1      -2.850  10.461  17.161  0.00  0.00    +0.000 A 
ENDBRANCH  25  31
ENDBRANCH  21  25
BRANCH  23  32
ATOM     32  C   UNL     1       0.456  13.708  19.755  0.00  0.00    +0.000 C 
BRANCH  32  33
ATOM     33  O   UNL     1       0.602  15.124  19.711  0.00  0.00    +0.000 OA
ATOM     34  H   UNL     1       1.037  15.348  18.869  0.00  0.00    +0.000 HD
ENDBRANCH  32  33
ENDBRANCH  23  32
ENDBRANCH   1  21
TORSDOF 7
ENDMDL
