MODEL 1
REMARK VINA RESULT:      -9.4      0.000      0.000
REMARK  Name = 
REMARK  9 active torsions:
REMARK  status: ('A' for Active; 'I' for Inactive)
REMARK    1  A    between atoms: C_1  and  N_2
REMARK    2  A    between atoms: C_6  and  C_7
REMARK    3  A    between atoms: C_7  and  C_8
REMARK    4  A    between atoms: C_8  and  C_9
REMARK    5  A    between atoms: C_8  and  C_10
REMARK    6  A    between atoms: C_8  and  C_11
REMARK    7  A    between atoms: C_15  and  N_16
REMARK    8  A    between atoms: C_21  and  C_22
REMARK    9  A    between atoms: C_26  and  C_27
REMARK                            x       y       z     vdW  Elec       q    Type
REMARK                         _______ _______ _______ _____ _____    ______ ____
ROOT
ATOM      1  N   UNL     1       2.347   7.471  19.369  0.00  0.00    +0.000 N 
ATOM      2  C   UNL     1       1.616   7.802  20.569  0.00  0.00    +0.000 C 
ATOM      3  C   UNL     1       0.933   9.070  20.249  0.00  0.00    +0.000 A 
ATOM      4  C   UNL     1       1.205   9.435  18.937  0.00  0.00    +0.000 A 
ATOM      5  C   UNL     1       0.660  10.587  18.398  0.00  0.00    +0.000 A 
ATOM      6  C   UNL     1      -0.179  11.389  19.205  0.00  0.00    +0.000 A 
ATOM      7  C   UNL     1      -0.408  10.996  20.550  0.00  0.00    +0.000 A 
ATOM      8  C   UNL     1       0.137   9.829  21.094  0.00  0.00    +0.000 A 
ATOM      9  C   UNL     1       2.127   8.413  18.355  0.00  0.00    +0.000 C 
ATOM     10  O   UNL     1       2.566   8.476  17.220  0.00  0.00    +0.000 OA
ENDROOT
BRANCH   1  15
ATOM     11  C   UNL     1       5.437   5.419  18.868  0.00  0.00    +0.000 A 
ATOM     12  C   UNL     1       4.956   4.154  19.247  0.00  0.00    +0.000 A 
ATOM     13  C   UNL     1       3.634   3.979  19.681  0.00  0.00    +0.000 A 
ATOM     14  C   UNL     1       2.747   5.059  19.739  0.00  0.00    +0.000 A 
ATOM     15  C   UNL     1       3.187   6.326  19.379  0.00  0.00    +0.000 A 
ATOM     16  C   UNL     1       4.536   6.478  18.974  0.00  0.00    +0.000 A 
BRANCH  11  17
ATOM     17  C   UNL     1       6.894   5.629  18.357  0.00  0.00    +0.000 C 
ATOM     18  C   UNL     1       7.792   5.657  19.615  0.00  0.00    +0.000 C 
ATOM     19  C   UNL     1       6.875   6.991  17.624  0.00  0.00    +0.000 C 
BRANCH  17  20
ATOM     20  C   UNL     1       7.440   4.496  17.391  0.00  0.00    +0.000 C 
BRANCH  20  26
ATOM     21  C   UNL     1       4.680   3.551  16.031  0.00  0.00    +0.000 C 
ATOM     22  N   UNL     1       5.819   4.162  15.399  0.00  0.00    +0.000 N 
ATOM     23  C   UNL     1       5.880   4.454  14.068  0.00  0.00    +0.000 A 
ATOM     24  N   UNL     1       7.005   5.068  13.805  0.00  0.00    +0.000 NA
ATOM     25  N   UNL     1       7.691   5.186  14.984  0.00  0.00    +0.000 NA
ATOM     26  C   UNL     1       7.004   4.598  15.947  0.00  0.00    +0.000 A 
ENDBRANCH  20  26
ENDBRANCH  17  20
ENDBRANCH  11  17
ENDBRANCH   1  15
BRANCH   8  27
ATOM     27  C   UNL     1      -0.123   9.436  22.526  0.00  0.00    +0.000 C 
ATOM     28  F   UNL     1       1.012   9.255  23.262  0.00  0.00    +0.000 F 
ATOM     29  F   UNL     1      -0.843  10.372  23.202  0.00  0.00    +0.000 F 
ATOM     30  F   UNL     1      -0.813   8.270  22.634  0.00  0.00    +0.000 F 
ENDBRANCH   8  27
BRANCH   6  31
ATOM     31  C   UNL     1      -0.808  12.661  18.686  0.00  0.00    +0.000 C 
ATOM     32  C   UNL     1      -1.163  13.779  19.633  0.00  0.00    +0.000 C 
ATOM     33  C   UNL     1      -0.009  13.948  18.694  0.00  0.00    +0.000 C 
ENDBRANCH   6  31
TORSDOF 6
ENDMDL
MODEL 2
REMARK VINA RESULT:      -9.3      3.398      8.509
REMARK  Name = 
REMARK  9 active torsions:
REMARK  status: ('A' for Active; 'I' for Inactive)
REMARK    1  A    between atoms: C_1  and  N_2
REMARK    2  A    between atoms: C_6  and  C_7
REMARK    3  A    between atoms: C_7  and  C_8
REMARK    4  A    between atoms: C_8  and  C_9
REMARK    5  A    between atoms: C_8  and  C_10
REMARK    6  A    between atoms: C_8  and  C_11
REMARK    7  A    between atoms: C_15  and  N_16
REMARK    8  A    between atoms: C_21  and  C_22
REMARK    9  A    between atoms: C_26  and  C_27
REMARK                            x       y       z     vdW  Elec       q    Type
REMARK                         _______ _______ _______ _____ _____    ______ ____
ROOT
ATOM      1  N   UNL     1       1.521   7.933  20.055  0.00  0.00    +0.000 N 
ATOM      2  C   UNL     1       1.546   6.588  20.579  0.00  0.00    +0.000 C 
ATOM      3  C   UNL     1       2.345   5.824  19.602  0.00  0.00    +0.000 A 
ATOM      4  C   UNL     1       2.798   6.670  18.598  0.00  0.00    +0.000 A 
ATOM      5  C   UNL     1       3.587   6.185  17.569  0.00  0.00    +0.000 A 
ATOM      6  C   UNL     1       3.925   4.812  17.556  0.00  0.00    +0.000 A 
ATOM      7  C   UNL     1       3.417   3.976  18.585  0.00  0.00    +0.000 A 
ATOM      8  C   UNL     1       2.624   4.465  19.628  0.00  0.00    +0.000 A 
ATOM      9  C   UNL     1       2.265   8.039  18.872  0.00  0.00    +0.000 C 
ATOM     10  O   UNL     1       2.472   8.995  18.146  0.00  0.00    +0.000 OA
ENDROOT
BRANCH   1  15
ATOM     11  C   UNL     1      -0.723  10.895  20.509  0.00  0.00    +0.000 A 
ATOM     12  C   UNL     1      -0.746  10.972  21.911  0.00  0.00    +0.000 A 
ATOM     13  C   UNL     1      -0.048  10.049  22.703  0.00  0.00    +0.000 A 
ATOM     14  C   UNL     1       0.707   9.026  22.118  0.00  0.00    +0.000 A 
ATOM     15  C   UNL     1       0.750   8.912  20.734  0.00  0.00    +0.000 A 
ATOM     16  C   UNL     1       0.009   9.841  19.961  0.00  0.00    +0.000 A 
BRANCH  11  17
ATOM     17  C   UNL     1      -1.470  11.927  19.612  0.00  0.00    +0.000 C 
ATOM     18  C   UNL     1      -2.579  12.542  20.496  0.00  0.00    +0.000 C 
ATOM     19  C   UNL     1      -2.049  11.102  18.439  0.00  0.00    +0.000 C 
BRANCH  17  20
ATOM     20  C   UNL     1      -0.573  13.112  19.057  0.00  0.00    +0.000 C 
BRANCH  20  26
ATOM     21  C   UNL     1       2.488  12.530  18.254  0.00  0.00    +0.000 C 
ATOM     22  N   UNL     1       1.984  13.116  19.466  0.00  0.00    +0.000 N 
ATOM     23  C   UNL     1       2.780  13.544  20.488  0.00  0.00    +0.000 A 
ATOM     24  N   UNL     1       2.041  14.095  21.418  0.00  0.00    +0.000 NA
ATOM     25  N   UNL     1       0.741  14.034  20.995  0.00  0.00    +0.000 NA
ATOM     26  C   UNL     1       0.689  13.400  19.837  0.00  0.00    +0.000 A 
ENDBRANCH  20  26
ENDBRANCH  17  20
ENDBRANCH  11  17
ENDBRANCH   1  15
BRANCH   8  27
ATOM     27  C   UNL     1       2.099   3.554  20.708  0.00  0.00    +0.000 C 
ATOM     28  F   UNL     1       0.738   3.453  20.729  0.00  0.00    +0.000 F 
ATOM     29  F   UNL     1       2.551   2.278  20.579  0.00  0.00    +0.000 F 
ATOM     30  F   UNL     1       2.450   3.962  21.956  0.00  0.00    +0.000 F 
ENDBRANCH   8  27
BRANCH   6  31
ATOM     31  C   UNL     1       4.779   4.211  16.465  0.00  0.00    +0.000 C 
ATOM     32  C   UNL     1       5.464   5.098  15.456  0.00  0.00    +0.000 C 
ATOM     33  C   UNL     1       6.281   4.402  16.500  0.00  0.00    +0.000 C 
ENDBRANCH   6  31
TORSDOF 6
ENDMDL
MODEL 3
REMARK VINA RESULT:      -9.2      0.813      1.311
REMARK  Name = 
REMARK  9 active torsions:
REMARK  status: ('A' for Active; 'I' for Inactive)
REMARK    1  A    between atoms: C_1  and  N_2
REMARK    2  A    between atoms: C_6  and  C_7
REMARK    3  A    between atoms: C_7  and  C_8
REMARK    4  A    between atoms: C_8  and  C_9
REMARK    5  A    between atoms: C_8  and  C_10
REMARK    6  A    between atoms: C_8  and  C_11
REMARK    7  A    between atoms: C_15  and  N_16
REMARK    8  A    between atoms: C_21  and  C_22
REMARK    9  A    between atoms: C_26  and  C_27
REMARK                            x       y       z     vdW  Elec       q    Type
REMARK                         _______ _______ _______ _____ _____    ______ ____
ROOT
ATOM      1  N   UNL     1       2.095   7.652  19.357  0.00  0.00    +0.000 N 
ATOM      2  C   UNL     1       1.404   7.957  20.588  0.00  0.00    +0.000 C 
ATOM      3  C   UNL     1       0.770   9.266  20.345  0.00  0.00    +0.000 A 
ATOM      4  C   UNL     1       1.031   9.682  19.045  0.00  0.00    +0.000 A 
ATOM      5  C   UNL     1       0.525  10.881  18.574  0.00  0.00    +0.000 A 
ATOM      6  C   UNL     1      -0.261  11.678  19.437  0.00  0.00    +0.000 A 
ATOM      7  C   UNL     1      -0.479  11.230  20.767  0.00  0.00    +0.000 A 
ATOM      8  C   UNL     1       0.026  10.017  21.243  0.00  0.00    +0.000 A 
ATOM      9  C   UNL     1       1.895   8.651  18.395  0.00  0.00    +0.000 C 
ATOM     10  O   UNL     1       2.313   8.751  17.255  0.00  0.00    +0.000 OA
ENDROOT
BRANCH   1  15
ATOM     11  C   UNL     1       4.784   5.325  18.190  0.00  0.00    +0.000 A 
ATOM     12  C   UNL     1       4.488   4.196  18.972  0.00  0.00    +0.000 A 
ATOM     13  C   UNL     1       3.427   4.204  19.889  0.00  0.00    +0.000 A 
ATOM     14  C   UNL     1       2.620   5.336  20.045  0.00  0.00    +0.000 A 
ATOM     15  C   UNL     1       2.884   6.475  19.294  0.00  0.00    +0.000 A 
ATOM     16  C   UNL     1       3.983   6.447  18.399  0.00  0.00    +0.000 A 
BRANCH  11  17
ATOM     17  C   UNL     1       5.942   5.327  17.147  0.00  0.00    +0.000 C 
ATOM     18  C   UNL     1       7.161   4.694  17.856  0.00  0.00    +0.000 C 
ATOM     19  C   UNL     1       6.176   6.816  16.802  0.00  0.00    +0.000 C 
BRANCH  17  20
ATOM     20  C   UNL     1       5.659   4.497  15.826  0.00  0.00    +0.000 C 
BRANCH  20  26
ATOM     21  C   UNL     1       5.499   3.440  12.790  0.00  0.00    +0.000 C 
ATOM     22  N   UNL     1       6.511   4.266  13.391  0.00  0.00    +0.000 N 
ATOM     23  C   UNL     1       7.590   4.754  12.714  0.00  0.00    +0.000 A 
ATOM     24  N   UNL     1       8.291   5.528  13.504  0.00  0.00    +0.000 NA
ATOM     25  N   UNL     1       7.655   5.554  14.716  0.00  0.00    +0.000 NA
ATOM     26  C   UNL     1       6.604   4.755  14.674  0.00  0.00    +0.000 A 
ENDBRANCH  20  26
ENDBRANCH  17  20
ENDBRANCH  11  17
ENDBRANCH   1  15
BRANCH   8  27
ATOM     27  C   UNL     1      -0.221   9.566  22.660  0.00  0.00    +0.000 C 
ATOM     28  F   UNL     1      -0.982  10.435  23.388  0.00  0.00    +0.000 F 
ATOM     29  F   UNL     1      -0.878   8.377  22.722  0.00  0.00    +0.000 F 
ATOM     30  F   UNL     1       0.927   9.409  23.370  0.00  0.00    +0.000 F 
ENDBRANCH   8  27
BRANCH   6  31
ATOM     31  C   UNL     1      -0.845  12.999  18.993  0.00  0.00    +0.000 C 
ATOM     32  C   UNL     1      -0.785  14.203  19.900  0.00  0.00    +0.000 C 
ATOM     33  C   UNL     1       0.080  14.157  18.678  0.00  0.00    +0.000 C 
ENDBRANCH   6  31
TORSDOF 6
ENDMDL
MODEL 4
REMARK VINA RESULT:      -9.1      1.460      2.501
REMARK  Name = 
REMARK  9 active torsions:
REMARK  status: ('A' for Active; 'I' for Inactive)
REMARK    1  A    between atoms: C_1  and  N_2
REMARK    2  A    between atoms: C_6  and  C_7
REMARK    3  A    between atoms: C_7  and  C_8
REMARK    4  A    between atoms: C_8  and  C_9
REMARK    5  A    between atoms: C_8  and  C_10
REMARK    6  A    between atoms: C_8  and  C_11
REMARK    7  A    between atoms: C_15  and  N_16
REMARK    8  A    between atoms: C_21  and  C_22
REMARK    9  A    between atoms: C_26  and  C_27
REMARK                            x       y       z     vdW  Elec       q    Type
REMARK                         _______ _______ _______ _____ _____    ______ ____
ROOT
ATOM      1  N   UNL     1       2.041   7.804  19.281  0.00  0.00    +0.000 N 
ATOM      2  C   UNL     1       1.369   8.082  20.528  0.00  0.00    +0.000 C 
ATOM      3  C   UNL     1       0.764   9.414  20.335  0.00  0.00    +0.000 A 
ATOM      4  C   UNL     1       1.022   9.867  19.048  0.00  0.00    +0.000 A 
ATOM      5  C   UNL     1       0.540  11.093  18.623  0.00  0.00    +0.000 A 
ATOM      6  C   UNL     1      -0.219  11.878  19.520  0.00  0.00    +0.000 A 
ATOM      7  C   UNL     1      -0.435  11.390  20.836  0.00  0.00    +0.000 A 
ATOM      8  C   UNL     1       0.046  10.150  21.266  0.00  0.00    +0.000 A 
ATOM      9  C   UNL     1       1.855   8.839  18.355  0.00  0.00    +0.000 C 
ATOM     10  O   UNL     1       2.265   8.968  17.214  0.00  0.00    +0.000 OA
ENDROOT
BRANCH   1  15
ATOM     11  C   UNL     1       4.421   5.320  17.806  0.00  0.00    +0.000 A 
ATOM     12  C   UNL     1       4.304   4.281  18.745  0.00  0.00    +0.000 A 
ATOM     13  C   UNL     1       3.466   4.401  19.863  0.00  0.00    +0.000 A 
ATOM     14  C   UNL     1       2.708   5.559  20.072  0.00  0.00    +0.000 A 
ATOM     15  C   UNL     1       2.801   6.611  19.170  0.00  0.00    +0.000 A 
ATOM     16  C   UNL     1       3.680   6.473  18.067  0.00  0.00    +0.000 A 
BRANCH  11  17
ATOM     17  C   UNL     1       5.326   5.195  16.544  0.00  0.00    +0.000 C 
ATOM     18  C   UNL     1       5.021   6.434  15.671  0.00  0.00    +0.000 C 
ATOM     19  C   UNL     1       4.888   3.879  15.860  0.00  0.00    +0.000 C 
BRANCH  17  20
ATOM     20  C   UNL     1       6.885   5.170  16.831  0.00  0.00    +0.000 C 
BRANCH  20  26
ATOM     21  C   UNL     1       8.102   5.587  19.781  0.00  0.00    +0.000 C 
ATOM     22  N   UNL     1       7.950   6.564  18.736  0.00  0.00    +0.000 N 
ATOM     23  C   UNL     1       8.338   7.866  18.856  0.00  0.00    +0.000 A 
ATOM     24  N   UNL     1       8.140   8.488  17.721  0.00  0.00    +0.000 NA
ATOM     25  N   UNL     1       7.622   7.576  16.841  0.00  0.00    +0.000 NA
ATOM     26  C   UNL     1       7.457   6.421  17.459  0.00  0.00    +0.000 A 
ENDBRANCH  20  26
ENDBRANCH  17  20
ENDBRANCH  11  17
ENDBRANCH   1  15
BRANCH   8  27
ATOM     27  C   UNL     1      -0.199   9.658  22.670  0.00  0.00    +0.000 C 
ATOM     28  F   UNL     1      -0.926  10.522  23.437  0.00  0.00    +0.000 F 
ATOM     29  F   UNL     1      -0.889   8.486  22.698  0.00  0.00    +0.000 F 
ATOM     30  F   UNL     1       0.952   9.442  23.359  0.00  0.00    +0.000 F 
ENDBRANCH   8  27
BRANCH   6  31
ATOM     31  C   UNL     1      -0.775  13.226  19.127  0.00  0.00    +0.000 C 
ATOM     32  C   UNL     1      -0.740  14.379  20.099  0.00  0.00    +0.000 C 
ATOM     33  C   UNL     1       0.169  14.391  18.909  0.00  0.00    +0.000 C 
ENDBRANCH   6  31
TORSDOF 6
ENDMDL
MODEL 5
REMARK VINA RESULT:      -9.1      3.361      8.478
REMARK  Name = 
REMARK  9 active torsions:
REMARK  status: ('A' for Active; 'I' for Inactive)
REMARK    1  A    between atoms: C_1  and  N_2
REMARK    2  A    between atoms: C_6  and  C_7
REMARK    3  A    between atoms: C_7  and  C_8
REMARK    4  A    between atoms: C_8  and  C_9
REMARK    5  A    between atoms: C_8  and  C_10
REMARK    6  A    between atoms: C_8  and  C_11
REMARK    7  A    between atoms: C_15  and  N_16
REMARK    8  A    between atoms: C_21  and  C_22
REMARK    9  A    between atoms: C_26  and  C_27
REMARK                            x       y       z     vdW  Elec       q    Type
REMARK                         _______ _______ _______ _____ _____    ______ ____
ROOT
ATOM      1  N   UNL     1       1.493   8.140  19.992  0.00  0.00    +0.000 N 
ATOM      2  C   UNL     1       1.531   6.811  20.558  0.00  0.00    +0.000 C 
ATOM      3  C   UNL     1       2.332   6.023  19.602  0.00  0.00    +0.000 A 
ATOM      4  C   UNL     1       2.775   6.842  18.571  0.00  0.00    +0.000 A 
ATOM      5  C   UNL     1       3.563   6.330  17.554  0.00  0.00    +0.000 A 
ATOM      6  C   UNL     1       3.911   4.960  17.582  0.00  0.00    +0.000 A 
ATOM      7  C   UNL     1       3.413   4.153  18.638  0.00  0.00    +0.000 A 
ATOM      8  C   UNL     1       2.621   4.669  19.668  0.00  0.00    +0.000 A 
ATOM      9  C   UNL     1       2.232   8.214  18.805  0.00  0.00    +0.000 C 
ATOM     10  O   UNL     1       2.430   9.149  18.049  0.00  0.00    +0.000 OA
ENDROOT
BRANCH   1  15
ATOM     11  C   UNL     1      -0.737  11.123  20.366  0.00  0.00    +0.000 A 
ATOM     12  C   UNL     1      -0.784  11.220  21.766  0.00  0.00    +0.000 A 
ATOM     13  C   UNL     1      -0.106  10.303  22.583  0.00  0.00    +0.000 A 
ATOM     14  C   UNL     1       0.652   9.267  22.025  0.00  0.00    +0.000 A 
ATOM     15  C   UNL     1       0.718   9.134  20.645  0.00  0.00    +0.000 A 
ATOM     16  C   UNL     1      -0.003  10.056  19.846  0.00  0.00    +0.000 A 
BRANCH  11  17
ATOM     17  C   UNL     1      -1.461  12.147  19.442  0.00  0.00    +0.000 C 
ATOM     18  C   UNL     1      -2.876  12.337  20.035  0.00  0.00    +0.000 C 
ATOM     19  C   UNL     1      -1.498  11.480  18.047  0.00  0.00    +0.000 C 
BRANCH  17  20
ATOM     20  C   UNL     1      -0.774  13.574  19.348  0.00  0.00    +0.000 C 
BRANCH  20  26
ATOM     21  C   UNL     1       1.307  14.445  21.643  0.00  0.00    +0.000 C 
ATOM     22  N   UNL     1       1.595  13.975  20.314  0.00  0.00    +0.000 N 
ATOM     23  C   UNL     1       2.858  13.810  19.827  0.00  0.00    +0.000 A 
ATOM     24  N   UNL     1       2.800  13.303  18.622  0.00  0.00    +0.000 NA
ATOM     25  N   UNL     1       1.477  13.125  18.318  0.00  0.00    +0.000 NA
ATOM     26  C   UNL     1       0.737  13.574  19.315  0.00  0.00    +0.000 A 
ENDBRANCH  20  26
ENDBRANCH  17  20
ENDBRANCH  11  17
ENDBRANCH   1  15
BRANCH   8  27
ATOM     27  C   UNL     1       2.107   3.787  20.778  0.00  0.00    +0.000 C 
ATOM     28  F   UNL     1       0.745   3.719  20.840  0.00  0.00    +0.000 F 
ATOM     29  F   UNL     1       2.525   2.499  20.658  0.00  0.00    +0.000 F 
ATOM     30  F   UNL     1       2.504   4.206  22.009  0.00  0.00    +0.000 F 
ENDBRANCH   8  27
BRANCH   6  31
ATOM     31  C   UNL     1       4.766   4.332  16.506  0.00  0.00    +0.000 C 
ATOM     32  C   UNL     1       5.542   5.198  15.545  0.00  0.00    +0.000 C 
ATOM     33  C   UNL     1       6.275   4.427  16.599  0.00  0.00    +0.000 C 
ENDBRANCH   6  31
TORSDOF 6
ENDMDL
MODEL 6
REMARK VINA RESULT:      -9.1      3.363      8.787
REMARK  Name = 
REMARK  9 active torsions:
REMARK  status: ('A' for Active; 'I' for Inactive)
REMARK    1  A    between atoms: C_1  and  N_2
REMARK    2  A    between atoms: C_6  and  C_7
REMARK    3  A    between atoms: C_7  and  C_8
REMARK    4  A    between atoms: C_8  and  C_9
REMARK    5  A    between atoms: C_8  and  C_10
REMARK    6  A    between atoms: C_8  and  C_11
REMARK    7  A    between atoms: C_15  and  N_16
REMARK    8  A    between atoms: C_21  and  C_22
REMARK    9  A    between atoms: C_26  and  C_27
REMARK                            x       y       z     vdW  Elec       q    Type
REMARK                         _______ _______ _______ _____ _____    ______ ____
ROOT
ATOM      1  N   UNL     1       1.506   8.061  19.999  0.00  0.00    +0.000 N 
ATOM      2  C   UNL     1       1.539   6.729  20.556  0.00  0.00    +0.000 C 
ATOM      3  C   UNL     1       2.344   5.946  19.599  0.00  0.00    +0.000 A 
ATOM      4  C   UNL     1       2.793   6.770  18.575  0.00  0.00    +0.000 A 
ATOM      5  C   UNL     1       3.585   6.264  17.559  0.00  0.00    +0.000 A 
ATOM      6  C   UNL     1       3.931   4.893  17.580  0.00  0.00    +0.000 A 
ATOM      7  C   UNL     1       3.427   4.080  18.629  0.00  0.00    +0.000 A 
ATOM      8  C   UNL     1       2.631   4.590  19.659  0.00  0.00    +0.000 A 
ATOM      9  C   UNL     1       2.251   8.142  18.815  0.00  0.00    +0.000 C 
ATOM     10  O   UNL     1       2.453   9.081  18.065  0.00  0.00    +0.000 OA
ENDROOT
BRANCH   1  15
ATOM     11  C   UNL     1      -0.691  11.066  20.382  0.00  0.00    +0.000 A 
ATOM     12  C   UNL     1      -0.771  11.135  21.783  0.00  0.00    +0.000 A 
ATOM     13  C   UNL     1      -0.125  10.192  22.596  0.00  0.00    +0.000 A 
ATOM     14  C   UNL     1       0.632   9.158  22.034  0.00  0.00    +0.000 A 
ATOM     15  C   UNL     1       0.729   9.052  20.653  0.00  0.00    +0.000 A 
ATOM     16  C   UNL     1       0.040  10.001  19.857  0.00  0.00    +0.000 A 
BRANCH  11  17
ATOM     17  C   UNL     1      -1.379  12.120  19.463  0.00  0.00    +0.000 C 
ATOM     18  C   UNL     1      -2.053  13.141  20.408  0.00  0.00    +0.000 C 
ATOM     19  C   UNL     1      -2.413  11.323  18.633  0.00  0.00    +0.000 C 
BRANCH  17  20
ATOM     20  C   UNL     1      -0.402  12.916  18.501  0.00  0.00    +0.000 C 
BRANCH  20  26
ATOM     21  C   UNL     1       2.112  13.279  20.478  0.00  0.00    +0.000 C 
ATOM     22  N   UNL     1       1.256  14.298  19.932  0.00  0.00    +0.000 N 
ATOM     23  C   UNL     1       1.414  15.630  20.178  0.00  0.00    +0.000 A 
ATOM     24  N   UNL     1       0.534  16.311  19.488  0.00  0.00    +0.000 NA
ATOM     25  N   UNL     1      -0.207  15.410  18.771  0.00  0.00    +0.000 NA
ATOM     26  C   UNL     1       0.189  14.186  19.069  0.00  0.00    +0.000 A 
ENDBRANCH  20  26
ENDBRANCH  17  20
ENDBRANCH  11  17
ENDBRANCH   1  15
BRANCH   8  27
ATOM     27  C   UNL     1       2.111   3.703  20.761  0.00  0.00    +0.000 C 
ATOM     28  F   UNL     1       2.455   4.123  22.014  0.00  0.00    +0.000 F 
ATOM     29  F   UNL     1       0.754   3.624  20.770  0.00  0.00    +0.000 F 
ATOM     30  F   UNL     1       2.570   2.427  20.670  0.00  0.00    +0.000 F 
ENDBRANCH   8  27
BRANCH   6  31
ATOM     31  C   UNL     1       4.790   4.270  16.505  0.00  0.00    +0.000 C 
ATOM     32  C   UNL     1       5.519   5.140  15.511  0.00  0.00    +0.000 C 
ATOM     33  C   UNL     1       6.296   4.420  16.569  0.00  0.00    +0.000 C 
ENDBRANCH   6  31
TORSDOF 6
ENDMDL
MODEL 7
REMARK VINA RESULT:      -9.1      3.443      8.596
REMARK  Name = 
REMARK  9 active torsions:
REMARK  status: ('A' for Active; 'I' for Inactive)
REMARK    1  A    between atoms: C_1  and  N_2
REMARK    2  A    between atoms: C_6  and  C_7
REMARK    3  A    between atoms: C_7  and  C_8
REMARK    4  A    between atoms: C_8  and  C_9
REMARK    5  A    between atoms: C_8  and  C_10
REMARK    6  A    between atoms: C_8  and  C_11
REMARK    7  A    between atoms: C_15  and  N_16
REMARK    8  A    between atoms: C_21  and  C_22
REMARK    9  A    between atoms: C_26  and  C_27
REMARK                            x       y       z     vdW  Elec       q    Type
REMARK                         _______ _______ _______ _____ _____    ______ ____
ROOT
ATOM      1  N   UNL     1       1.466   8.012  20.164  0.00  0.00    +0.000 N 
ATOM      2  C   UNL     1       1.495   6.656  20.659  0.00  0.00    +0.000 C 
ATOM      3  C   UNL     1       2.270   5.909  19.650  0.00  0.00    +0.000 A 
ATOM      4  C   UNL     1       2.706   6.775  18.655  0.00  0.00    +0.000 A 
ATOM      5  C   UNL     1       3.471   6.308  17.599  0.00  0.00    +0.000 A 
ATOM      6  C   UNL     1       3.801   4.934  17.549  0.00  0.00    +0.000 A 
ATOM      7  C   UNL     1       3.310   4.078  18.571  0.00  0.00    +0.000 A 
ATOM      8  C   UNL     1       2.542   4.549  19.640  0.00  0.00    +0.000 A 
ATOM      9  C   UNL     1       2.186   8.140  18.970  0.00  0.00    +0.000 C 
ATOM     10  O   UNL     1       2.383   9.110  18.260  0.00  0.00    +0.000 OA
ENDROOT
BRANCH   1  15
ATOM     11  C   UNL     1      -0.439  11.173  20.788  0.00  0.00    +0.000 A 
ATOM     12  C   UNL     1      -0.699  11.036  22.162  0.00  0.00    +0.000 A 
ATOM     13  C   UNL     1      -0.270   9.907  22.874  0.00  0.00    +0.000 A 
ATOM     14  C   UNL     1       0.444   8.884  22.240  0.00  0.00    +0.000 A 
ATOM     15  C   UNL     1       0.715   8.980  20.881  0.00  0.00    +0.000 A 
ATOM     16  C   UNL     1       0.242  10.117  20.181  0.00  0.00    +0.000 A 
BRANCH  11  17
ATOM     17  C   UNL     1      -0.884  12.432  19.985  0.00  0.00    +0.000 C 
ATOM     18  C   UNL     1      -2.428  12.464  20.054  0.00  0.00    +0.000 C 
ATOM     19  C   UNL     1      -0.370  12.198  18.545  0.00  0.00    +0.000 C 
BRANCH  17  20
ATOM     20  C   UNL     1      -0.341  13.814  20.541  0.00  0.00    +0.000 C 
BRANCH  20  26
ATOM     21  C   UNL     1       1.643  15.492  18.642  0.00  0.00    +0.000 C 
ATOM     22  N   UNL     1       1.980  14.660  19.766  0.00  0.00    +0.000 N 
ATOM     23  C   UNL     1       3.255  14.474  20.213  0.00  0.00    +0.000 A 
ATOM     24  N   UNL     1       3.238  13.730  21.290  0.00  0.00    +0.000 NA
ATOM     25  N   UNL     1       1.929  13.430  21.557  0.00  0.00    +0.000 NA
ATOM     26  C   UNL     1       1.164  13.947  20.613  0.00  0.00    +0.000 A 
ENDBRANCH  20  26
ENDBRANCH  17  20
ENDBRANCH  11  17
ENDBRANCH   1  15
BRANCH   8  27
ATOM     27  C   UNL     1       2.035   3.617  20.711  0.00  0.00    +0.000 C 
ATOM     28  F   UNL     1       2.440   3.954  21.971  0.00  0.00    +0.000 F 
ATOM     29  F   UNL     1       0.677   3.581  20.770  0.00  0.00    +0.000 F 
ATOM     30  F   UNL     1       2.446   2.334  20.530  0.00  0.00    +0.000 F 
ENDBRANCH   8  27
BRANCH   6  31
ATOM     31  C   UNL     1       4.629   4.353  16.428  0.00  0.00    +0.000 C 
ATOM     32  C   UNL     1       5.472   5.250  15.557  0.00  0.00    +0.000 C 
ATOM     33  C   UNL     1       6.140   4.341  16.542  0.00  0.00    +0.000 C 
ENDBRANCH   6  31
TORSDOF 6
ENDMDL
MODEL 8
REMARK VINA RESULT:      -9.0      3.373      8.867
REMARK  Name = 
REMARK  9 active torsions:
REMARK  status: ('A' for Active; 'I' for Inactive)
REMARK    1  A    between atoms: C_1  and  N_2
REMARK    2  A    between atoms: C_6  and  C_7
REMARK    3  A    between atoms: C_7  and  C_8
REMARK    4  A    between atoms: C_8  and  C_9
REMARK    5  A    between atoms: C_8  and  C_10
REMARK    6  A    between atoms: C_8  and  C_11
REMARK    7  A    between atoms: C_15  and  N_16
REMARK    8  A    between atoms: C_21  and  C_22
REMARK    9  A    between atoms: C_26  and  C_27
REMARK                            x       y       z     vdW  Elec       q    Type
REMARK                         _______ _______ _______ _____ _____    ______ ____
ROOT
ATOM      1  N   UNL     1       1.684   7.872  19.988  0.00  0.00    +0.000 N 
ATOM      2  C   UNL     1       1.667   6.534  20.528  0.00  0.00    +0.000 C 
ATOM      3  C   UNL     1       2.430   5.730  19.554  0.00  0.00    +0.000 A 
ATOM      4  C   UNL     1       2.903   6.548  18.536  0.00  0.00    +0.000 A 
ATOM      5  C   UNL     1       3.665   6.023  17.506  0.00  0.00    +0.000 A 
ATOM      6  C   UNL     1       3.954   4.639  17.507  0.00  0.00    +0.000 A 
ATOM      7  C   UNL     1       3.427   3.834  18.551  0.00  0.00    +0.000 A 
ATOM      8  C   UNL     1       2.662   4.363  19.594  0.00  0.00    +0.000 A 
ATOM      9  C   UNL     1       2.421   7.938  18.798  0.00  0.00    +0.000 C 
ATOM     10  O   UNL     1       2.655   8.877  18.059  0.00  0.00    +0.000 OA
ENDROOT
BRANCH   1  15
ATOM     11  C   UNL     1      -0.111  11.119  20.487  0.00  0.00    +0.000 A 
ATOM     12  C   UNL     1      -0.409  11.026  21.857  0.00  0.00    +0.000 A 
ATOM     13  C   UNL     1      -0.041   9.900  22.607  0.00  0.00    +0.000 A 
ATOM     14  C   UNL     1       0.647   8.835  22.015  0.00  0.00    +0.000 A 
ATOM     15  C   UNL     1       0.954   8.886  20.662  0.00  0.00    +0.000 A 
ATOM     16  C   UNL     1       0.543  10.023  19.923  0.00  0.00    +0.000 A 
BRANCH  11  17
ATOM     17  C   UNL     1      -0.487  12.373  19.643  0.00  0.00    +0.000 C 
ATOM     18  C   UNL     1      -1.444  13.212  20.521  0.00  0.00    +0.000 C 
ATOM     19  C   UNL     1      -1.188  11.819  18.381  0.00  0.00    +0.000 C 
BRANCH  17  20
ATOM     20  C   UNL     1       0.733  13.298  19.229  0.00  0.00    +0.000 C 
BRANCH  20  26
ATOM     21  C   UNL     1       0.496  16.440  19.887  0.00  0.00    +0.000 C 
ATOM     22  N   UNL     1       1.258  15.440  20.586  0.00  0.00    +0.000 N 
ATOM     23  C   UNL     1       2.010  15.701  21.694  0.00  0.00    +0.000 A 
ATOM     24  N   UNL     1       2.524  14.585  22.147  0.00  0.00    +0.000 NA
ATOM     25  N   UNL     1       2.095  13.576  21.327  0.00  0.00    +0.000 NA
ATOM     26  C   UNL     1       1.368  14.089  20.351  0.00  0.00    +0.000 A 
ENDBRANCH  20  26
ENDBRANCH  17  20
ENDBRANCH  11  17
ENDBRANCH   1  15
BRANCH   8  27
ATOM     27  C   UNL     1       2.115   3.484  20.690  0.00  0.00    +0.000 C 
ATOM     28  F   UNL     1       0.752   3.393  20.695  0.00  0.00    +0.000 F 
ATOM     29  F   UNL     1       2.559   2.202  20.601  0.00  0.00    +0.000 F 
ATOM     30  F   UNL     1       2.452   3.921  21.932  0.00  0.00    +0.000 F 
ENDBRANCH   8  27
BRANCH   6  31
ATOM     31  C   UNL     1       4.777   3.995  16.416  0.00  0.00    +0.000 C 
ATOM     32  C   UNL     1       5.395   4.837  15.329  0.00  0.00    +0.000 C 
ATOM     33  C   UNL     1       6.274   4.224  16.374  0.00  0.00    +0.000 C 
ENDBRANCH   6  31
TORSDOF 6
ENDMDL
MODEL 9
REMARK VINA RESULT:      -9.0      3.393      8.580
REMARK  Name = 
REMARK  9 active torsions:
REMARK  status: ('A' for Active; 'I' for Inactive)
REMARK    1  A    between atoms: C_1  and  N_2
REMARK    2  A    between atoms: C_6  and  C_7
REMARK    3  A    between atoms: C_7  and  C_8
REMARK    4  A    between atoms: C_8  and  C_9
REMARK    5  A    between atoms: C_8  and  C_10
REMARK    6  A    between atoms: C_8  and  C_11
REMARK    7  A    between atoms: C_15  and  N_16
REMARK    8  A    between atoms: C_21  and  C_22
REMARK    9  A    between atoms: C_26  and  C_27
REMARK                            x       y       z     vdW  Elec       q    Type
REMARK                         _______ _______ _______ _____ _____    ______ ____
ROOT
ATOM      1  N   UNL     1       1.574   8.080  20.077  0.00  0.00    +0.000 N 
ATOM      2  C   UNL     1       1.603   6.751  20.641  0.00  0.00    +0.000 C 
ATOM      3  C   UNL     1       2.348   5.945  19.655  0.00  0.00    +0.000 A 
ATOM      4  C   UNL     1       2.768   6.754  18.606  0.00  0.00    +0.000 A 
ATOM      5  C   UNL     1       3.503   6.225  17.560  0.00  0.00    +0.000 A 
ATOM      6  C   UNL     1       3.821   4.847  17.575  0.00  0.00    +0.000 A 
ATOM      7  C   UNL     1       3.347   4.051  18.651  0.00  0.00    +0.000 A 
ATOM      8  C   UNL     1       2.609   4.584  19.711  0.00  0.00    +0.000 A 
ATOM      9  C   UNL     1       2.267   8.138  18.861  0.00  0.00    +0.000 C 
ATOM     10  O   UNL     1       2.455   9.069  18.097  0.00  0.00    +0.000 OA
ENDROOT
BRANCH   1  15
ATOM     11  C   UNL     1       0.292  11.506  20.873  0.00  0.00    +0.000 A 
ATOM     12  C   UNL     1      -0.446  11.227  22.035  0.00  0.00    +0.000 A 
ATOM     13  C   UNL     1      -0.540   9.924  22.543  0.00  0.00    +0.000 A 
ATOM     14  C   UNL     1       0.112   8.858  21.913  0.00  0.00    +0.000 A 
ATOM     15  C   UNL     1       0.848   9.092  20.758  0.00  0.00    +0.000 A 
ATOM     16  C   UNL     1       0.898  10.414  20.251  0.00  0.00    +0.000 A 
BRANCH  11  17
ATOM     17  C   UNL     1       0.430  12.951  20.309  0.00  0.00    +0.000 C 
ATOM     18  C   UNL     1       1.480  12.873  19.176  0.00  0.00    +0.000 C 
ATOM     19  C   UNL     1       0.922  13.807  21.500  0.00  0.00    +0.000 C 
BRANCH  17  20
ATOM     20  C   UNL     1      -0.898  13.569  19.703  0.00  0.00    +0.000 C 
BRANCH  20  26
ATOM     21  C   UNL     1      -3.895  12.605  20.373  0.00  0.00    +0.000 C 
ATOM     22  N   UNL     1      -3.056  12.202  19.276  0.00  0.00    +0.000 N 
ATOM     23  C   UNL     1      -3.446  11.322  18.310  0.00  0.00    +0.000 A 
ATOM     24  N   UNL     1      -2.500  11.211  17.411  0.00  0.00    +0.000 NA
ATOM     25  N   UNL     1      -1.478  12.038  17.791  0.00  0.00    +0.000 NA
ATOM     26  C   UNL     1      -1.783  12.606  18.944  0.00  0.00    +0.000 A 
ENDBRANCH  20  26
ENDBRANCH  17  20
ENDBRANCH  11  17
ENDBRANCH   1  15
BRANCH   8  27
ATOM     27  C   UNL     1       2.119   3.715  20.841  0.00  0.00    +0.000 C 
ATOM     28  F   UNL     1       0.763   3.552  20.862  0.00  0.00    +0.000 F 
ATOM     29  F   UNL     1       2.630   2.456  20.790  0.00  0.00    +0.000 F 
ATOM     30  F   UNL     1       2.442   4.211  22.064  0.00  0.00    +0.000 F 
ENDBRANCH   8  27
BRANCH   6  31
ATOM     31  C   UNL     1       4.618   4.200  16.467  0.00  0.00    +0.000 C 
ATOM     32  C   UNL     1       5.349   5.049  15.456  0.00  0.00    +0.000 C 
ATOM     33  C   UNL     1       6.131   4.289  16.483  0.00  0.00    +0.000 C 
ENDBRANCH   6  31
TORSDOF 6
ENDMDL
