MODEL 1
REMARK VINA RESULT:     -10.2      0.000      0.000
REMARK  Name = 
REMARK  9 active torsions:
REMARK  status: ('A' for Active; 'I' for Inactive)
REMARK    1  A    between atoms: C_1  and  N_2
REMARK    2  A    between atoms: C_6  and  C_7
REMARK    3  A    between atoms: C_7  and  C_8
REMARK    4  A    between atoms: C_8  and  C_9
REMARK    5  A    between atoms: C_13  and  N_14
REMARK    6  A    between atoms: C_19  and  C_20
REMARK    7  A    between atoms: C_20  and  N_21
REMARK    8  A    between atoms: C_25  and  C_26
REMARK    9  A    between atoms: C_31  and  C_32
REMARK                            x       y       z     vdW  Elec       q    Type
REMARK                         _______ _______ _______ _____ _____    ______ ____
ROOT
ATOM      1  N   UNL     1       1.343   8.205  20.196  0.00  0.00    +0.000 N 
ATOM      2  C   UNL     1       1.457   6.885  20.759  0.00  0.00    +0.000 C 
ATOM      3  C   UNL     1       2.111   6.082  19.698  0.00  0.00    +0.000 A 
ATOM      4  C   UNL     1       2.529   6.893  18.645  0.00  0.00    +0.000 A 
ATOM      5  C   UNL     1       3.370   6.373  17.643  0.00  0.00    +0.000 A 
ATOM      6  C   UNL     1       3.743   5.003  17.714  0.00  0.00    +0.000 A 
ATOM      7  C   UNL     1       3.169   4.197  18.735  0.00  0.00    +0.000 A 
ATOM      8  C   UNL     1       2.376   4.726  19.755  0.00  0.00    +0.000 A 
ATOM      9  C   UNL     1       1.954   8.261  18.920  0.00  0.00    +0.000 C 
ATOM     10  O   UNL     1       2.023   9.189  18.140  0.00  0.00    +0.000 OA
ENDROOT
BRANCH   1  15
ATOM     11  C   UNL     1      -0.833  11.245  20.684  0.00  0.00    +0.000 A 
ATOM     12  C   UNL     1      -0.828  11.287  22.089  0.00  0.00    +0.000 A 
ATOM     13  C   UNL     1      -0.243  10.275  22.860  0.00  0.00    +0.000 A 
ATOM     14  C   UNL     1       0.411   9.191  22.264  0.00  0.00    +0.000 A 
ATOM     15  C   UNL     1       0.507   9.133  20.881  0.00  0.00    +0.000 A 
ATOM     16  C   UNL     1      -0.167  10.136  20.129  0.00  0.00    +0.000 A 
BRANCH  11  17
ATOM     17  C   UNL     1      -1.532  12.391  19.767  0.00  0.00    +0.000 C 
ATOM     18  C   UNL     1      -0.662  12.947  18.601  0.00  0.00    +0.000 C 
ATOM     19  O   UNL     1      -0.682  14.283  19.130  0.00  0.00    +0.000 OA
ATOM     20  C   UNL     1      -1.485  13.870  20.256  0.00  0.00    +0.000 C 
BRANCH  17  21
ATOM     21  C   UNL     1      -2.925  11.940  19.270  0.00  0.00    +0.000 C 
BRANCH  21  27
ATOM     22  C   UNL     1      -5.292  12.134  17.177  0.00  0.00    +0.000 C 
ATOM     23  N   UNL     1      -4.015  11.497  16.992  0.00  0.00    +0.000 N 
ATOM     24  C   UNL     1      -3.639  10.810  15.878  0.00  0.00    +0.000 A 
ATOM     25  N   UNL     1      -2.419  10.359  16.034  0.00  0.00    +0.000 NA
ATOM     26  N   UNL     1      -1.987  10.751  17.276  0.00  0.00    +0.000 NA
ATOM     27  C   UNL     1      -2.955  11.429  17.864  0.00  0.00    +0.000 A 
ENDBRANCH  21  27
ENDBRANCH  17  21
ENDBRANCH  11  17
ENDBRANCH   1  15
BRANCH   8  28
ATOM     28  C   UNL     1       1.895   3.851  20.884  0.00  0.00    +0.000 C 
ATOM     29  F   UNL     1       2.317   4.261  22.107  0.00  0.00    +0.000 F 
ATOM     30  F   UNL     1       0.538   3.801  20.954  0.00  0.00    +0.000 F 
ATOM     31  F   UNL     1       2.322   2.566  20.756  0.00  0.00    +0.000 F 
ENDBRANCH   8  28
BRANCH   6  32
ATOM     32  C   UNL     1       4.946   4.341  17.022  0.00  0.00    +0.000 C 
BRANCH  32  33
ATOM     33  N   UNL     1       6.272   4.287  17.639  0.00  0.00    +0.000 NA
ATOM     34  C   UNL     1       6.649   5.518  18.344  0.00  0.00    +0.000 C 
ATOM     35  C   UNL     1       7.023   6.750  17.492  0.00  0.00    +0.000 C 
ATOM     36  O   UNL     1       7.487   6.583  16.158  0.00  0.00    +0.000 OA
ATOM     37  C   UNL     1       7.609   5.274  15.607  0.00  0.00    +0.000 C 
ATOM     38  C   UNL     1       7.316   4.097  16.586  0.00  0.00    +0.000 C 
BRANCH  37  39
ATOM     39  C   UNL     1       6.795   5.235  14.324  0.00  0.00    +0.000 C 
ATOM     40  C   UNL     1       7.436   4.819  13.013  0.00  0.00    +0.000 C 
ATOM     41  C   UNL     1       6.404   3.936  13.652  0.00  0.00    +0.000 C 
ENDBRANCH  37  39
ENDBRANCH  32  33
ENDBRANCH   6  32
TORSDOF 8
ENDMDL
MODEL 2
REMARK VINA RESULT:     -10.0      1.710      2.750
REMARK  Name = 
REMARK  9 active torsions:
REMARK  status: ('A' for Active; 'I' for Inactive)
REMARK    1  A    between atoms: C_1  and  N_2
REMARK    2  A    between atoms: C_6  and  C_7
REMARK    3  A    between atoms: C_7  and  C_8
REMARK    4  A    between atoms: C_8  and  C_9
REMARK    5  A    between atoms: C_13  and  N_14
REMARK    6  A    between atoms: C_19  and  C_20
REMARK    7  A    between atoms: C_20  and  N_21
REMARK    8  A    between atoms: C_25  and  C_26
REMARK    9  A    between atoms: C_31  and  C_32
REMARK                            x       y       z     vdW  Elec       q    Type
REMARK                         _______ _______ _______ _____ _____    ______ ____
ROOT
ATOM      1  N   UNL     1       1.367   8.137  20.300  0.00  0.00    +0.000 N 
ATOM      2  C   UNL     1       1.502   6.817  20.856  0.00  0.00    +0.000 C 
ATOM      3  C   UNL     1       2.144   6.023  19.780  0.00  0.00    +0.000 A 
ATOM      4  C   UNL     1       2.536   6.841  18.723  0.00  0.00    +0.000 A 
ATOM      5  C   UNL     1       3.363   6.332  17.704  0.00  0.00    +0.000 A 
ATOM      6  C   UNL     1       3.748   4.964  17.763  0.00  0.00    +0.000 A 
ATOM      7  C   UNL     1       3.200   4.150  18.792  0.00  0.00    +0.000 A 
ATOM      8  C   UNL     1       2.421   4.669  19.828  0.00  0.00    +0.000 A 
ATOM      9  C   UNL     1       1.955   8.203  19.013  0.00  0.00    +0.000 C 
ATOM     10  O   UNL     1       2.002   9.134  18.236  0.00  0.00    +0.000 OA
ENDROOT
BRANCH   1  15
ATOM     11  C   UNL     1      -0.868  11.128  20.826  0.00  0.00    +0.000 A 
ATOM     12  C   UNL     1      -0.804  11.197  22.228  0.00  0.00    +0.000 A 
ATOM     13  C   UNL     1      -0.160  10.216  22.992  0.00  0.00    +0.000 A 
ATOM     14  C   UNL     1       0.498   9.139  22.387  0.00  0.00    +0.000 A 
ATOM     15  C   UNL     1       0.536   9.057  21.003  0.00  0.00    +0.000 A 
ATOM     16  C   UNL     1      -0.196  10.026  20.263  0.00  0.00    +0.000 A 
BRANCH  11  17
ATOM     17  C   UNL     1      -1.637  12.237  19.919  0.00  0.00    +0.000 C 
ATOM     18  C   UNL     1      -3.145  12.446  20.242  0.00  0.00    +0.000 C 
ATOM     19  O   UNL     1      -3.556  12.039  18.926  0.00  0.00    +0.000 OA
ATOM     20  C   UNL     1      -2.189  11.808  18.526  0.00  0.00    +0.000 C 
BRANCH  17  21
ATOM     21  C   UNL     1      -0.869  13.579  19.901  0.00  0.00    +0.000 C 
BRANCH  21  27
ATOM     22  C   UNL     1       1.595  14.560  21.629  0.00  0.00    +0.000 C 
ATOM     23  N   UNL     1       1.633  13.936  20.333  0.00  0.00    +0.000 N 
ATOM     24  C   UNL     1       2.762  13.717  19.604  0.00  0.00    +0.000 A 
ATOM     25  N   UNL     1       2.447  13.131  18.475  0.00  0.00    +0.000 NA
ATOM     26  N   UNL     1       1.084  12.967  18.459  0.00  0.00    +0.000 NA
ATOM     27  C   UNL     1       0.587  13.465  19.576  0.00  0.00    +0.000 A 
ENDBRANCH  21  27
ENDBRANCH  17  21
ENDBRANCH  11  17
ENDBRANCH   1  15
BRANCH   8  28
ATOM     28  C   UNL     1       1.968   3.786  20.961  0.00  0.00    +0.000 C 
ATOM     29  F   UNL     1       0.618   3.729  21.100  0.00  0.00    +0.000 F 
ATOM     30  F   UNL     1       2.381   2.499  20.809  0.00  0.00    +0.000 F 
ATOM     31  F   UNL     1       2.447   4.205  22.163  0.00  0.00    +0.000 F 
ENDBRANCH   8  28
BRANCH   6  32
ATOM     32  C   UNL     1       4.945   4.315  17.047  0.00  0.00    +0.000 C 
BRANCH  32  33
ATOM     33  N   UNL     1       6.286   4.285  17.632  0.00  0.00    +0.000 NA
ATOM     34  C   UNL     1       6.667   5.532  18.306  0.00  0.00    +0.000 C 
ATOM     35  C   UNL     1       7.009   6.751  17.423  0.00  0.00    +0.000 C 
ATOM     36  O   UNL     1       7.442   6.563  16.080  0.00  0.00    +0.000 OA
ATOM     37  C   UNL     1       7.564   5.246  15.551  0.00  0.00    +0.000 C 
ATOM     38  C   UNL     1       7.306   4.084  16.559  0.00  0.00    +0.000 C 
BRANCH  37  39
ATOM     39  C   UNL     1       6.719   5.175  14.289  0.00  0.00    +0.000 C 
ATOM     40  C   UNL     1       7.308   4.652  12.992  0.00  0.00    +0.000 C 
ATOM     41  C   UNL     1       6.247   3.862  13.702  0.00  0.00    +0.000 C 
ENDBRANCH  37  39
ENDBRANCH  32  33
ENDBRANCH   6  32
TORSDOF 8
ENDMDL
MODEL 3
REMARK VINA RESULT:     -10.0      1.842      2.416
REMARK  Name = 
REMARK  9 active torsions:
REMARK  status: ('A' for Active; 'I' for Inactive)
REMARK    1  A    between atoms: C_1  and  N_2
REMARK    2  A    between atoms: C_6  and  C_7
REMARK    3  A    between atoms: C_7  and  C_8
REMARK    4  A    between atoms: C_8  and  C_9
REMARK    5  A    between atoms: C_13  and  N_14
REMARK    6  A    between atoms: C_19  and  C_20
REMARK    7  A    between atoms: C_20  and  N_21
REMARK    8  A    between atoms: C_25  and  C_26
REMARK    9  A    between atoms: C_31  and  C_32
REMARK                            x       y       z     vdW  Elec       q    Type
REMARK                         _______ _______ _______ _____ _____    ______ ____
ROOT
ATOM      1  N   UNL     1       1.237   8.245  20.514  0.00  0.00    +0.000 N 
ATOM      2  C   UNL     1       1.382   6.883  20.953  0.00  0.00    +0.000 C 
ATOM      3  C   UNL     1       1.998   6.182  19.800  0.00  0.00    +0.000 A 
ATOM      4  C   UNL     1       2.367   7.086  18.807  0.00  0.00    +0.000 A 
ATOM      5  C   UNL     1       3.169   6.665  17.730  0.00  0.00    +0.000 A 
ATOM      6  C   UNL     1       3.553   5.297  17.664  0.00  0.00    +0.000 A 
ATOM      7  C   UNL     1       3.027   4.399  18.633  0.00  0.00    +0.000 A 
ATOM      8  C   UNL     1       2.273   4.828  19.727  0.00  0.00    +0.000 A 
ATOM      9  C   UNL     1       1.795   8.419  19.224  0.00  0.00    +0.000 C 
ATOM     10  O   UNL     1       1.826   9.412  18.527  0.00  0.00    +0.000 OA
ENDROOT
BRANCH   1  15
ATOM     11  C   UNL     1      -0.755  11.313  21.429  0.00  0.00    +0.000 A 
ATOM     12  C   UNL     1      -0.835  11.107  22.817  0.00  0.00    +0.000 A 
ATOM     13  C   UNL     1      -0.370   9.935  23.423  0.00  0.00    +0.000 A 
ATOM     14  C   UNL     1       0.246   8.924  22.675  0.00  0.00    +0.000 A 
ATOM     15  C   UNL     1       0.425   9.101  21.311  0.00  0.00    +0.000 A 
ATOM     16  C   UNL     1      -0.132  10.269  20.718  0.00  0.00    +0.000 A 
BRANCH  11  17
ATOM     17  C   UNL     1      -1.316  12.652  20.697  0.00  0.00    +0.000 C 
ATOM     18  C   UNL     1      -2.153  12.416  19.406  0.00  0.00    +0.000 C 
ATOM     19  O   UNL     1      -1.226  13.148  18.586  0.00  0.00    +0.000 OA
ATOM     20  C   UNL     1      -0.374  13.418  19.720  0.00  0.00    +0.000 C 
BRANCH  17  21
ATOM     21  C   UNL     1      -2.060  13.568  21.696  0.00  0.00    +0.000 C 
BRANCH  21  27
ATOM     22  C   UNL     1      -4.386  15.470  20.698  0.00  0.00    +0.000 C 
ATOM     23  N   UNL     1      -4.522  14.203  21.368  0.00  0.00    +0.000 N 
ATOM     24  C   UNL     1      -5.705  13.639  21.737  0.00  0.00    +0.000 A 
ATOM     25  N   UNL     1      -5.476  12.489  22.323  0.00  0.00    +0.000 NA
ATOM     26  N   UNL     1      -4.117  12.297  22.344  0.00  0.00    +0.000 NA
ATOM     27  C   UNL     1      -3.536  13.338  21.778  0.00  0.00    +0.000 A 
ENDBRANCH  21  27
ENDBRANCH  17  21
ENDBRANCH  11  17
ENDBRANCH   1  15
BRANCH   8  28
ATOM     28  C   UNL     1       1.845   3.853  20.793  0.00  0.00    +0.000 C 
ATOM     29  F   UNL     1       2.278   2.585  20.575  0.00  0.00    +0.000 F 
ATOM     30  F   UNL     1       2.307   4.200  22.023  0.00  0.00    +0.000 F 
ATOM     31  F   UNL     1       0.492   3.769  20.898  0.00  0.00    +0.000 F 
ENDBRANCH   8  28
BRANCH   6  32
ATOM     32  C   UNL     1       4.731   4.710  16.869  0.00  0.00    +0.000 C 
BRANCH  32  33
ATOM     33  N   UNL     1       6.027   4.424  17.485  0.00  0.00    +0.000 NA
ATOM     34  C   UNL     1       6.658   5.593  18.111  0.00  0.00    +0.000 C 
ATOM     35  C   UNL     1       7.263   6.668  17.182  0.00  0.00    +0.000 C 
ATOM     36  O   UNL     1       7.663   6.327  15.860  0.00  0.00    +0.000 OA
ATOM     37  C   UNL     1       7.507   4.991  15.392  0.00  0.00    +0.000 C 
ATOM     38  C   UNL     1       6.995   3.960  16.445  0.00  0.00    +0.000 C 
BRANCH  37  39
ATOM     39  C   UNL     1       6.683   5.040  14.116  0.00  0.00    +0.000 C 
ATOM     40  C   UNL     1       7.251   4.523  12.807  0.00  0.00    +0.000 C 
ATOM     41  C   UNL     1       6.117   3.794  13.468  0.00  0.00    +0.000 C 
ENDBRANCH  37  39
ENDBRANCH  32  33
ENDBRANCH   6  32
TORSDOF 8
ENDMDL
MODEL 4
REMARK VINA RESULT:     -10.0      2.040      3.069
REMARK  Name = 
REMARK  9 active torsions:
REMARK  status: ('A' for Active; 'I' for Inactive)
REMARK    1  A    between atoms: C_1  and  N_2
REMARK    2  A    between atoms: C_6  and  C_7
REMARK    3  A    between atoms: C_7  and  C_8
REMARK    4  A    between atoms: C_8  and  C_9
REMARK    5  A    between atoms: C_13  and  N_14
REMARK    6  A    between atoms: C_19  and  C_20
REMARK    7  A    between atoms: C_20  and  N_21
REMARK    8  A    between atoms: C_25  and  C_26
REMARK    9  A    between atoms: C_31  and  C_32
REMARK                            x       y       z     vdW  Elec       q    Type
REMARK                         _______ _______ _______ _____ _____    ______ ____
ROOT
ATOM      1  N   UNL     1       1.321   8.131  20.456  0.00  0.00    +0.000 N 
ATOM      2  C   UNL     1       1.456   6.782  20.938  0.00  0.00    +0.000 C 
ATOM      3  C   UNL     1       2.083   6.046  19.813  0.00  0.00    +0.000 A 
ATOM      4  C   UNL     1       2.465   6.918  18.797  0.00  0.00    +0.000 A 
ATOM      5  C   UNL     1       3.278   6.462  17.742  0.00  0.00    +0.000 A 
ATOM      6  C   UNL     1       3.658   5.092  17.722  0.00  0.00    +0.000 A 
ATOM      7  C   UNL     1       3.119   4.226  18.712  0.00  0.00    +0.000 A 
ATOM      8  C   UNL     1       2.354   4.689  19.784  0.00  0.00    +0.000 A 
ATOM      9  C   UNL     1       1.893   8.265  19.168  0.00  0.00    +0.000 C 
ATOM     10  O   UNL     1       1.935   9.236  18.442  0.00  0.00    +0.000 OA
ENDROOT
BRANCH   1  15
ATOM     11  C   UNL     1      -0.709  11.211  21.239  0.00  0.00    +0.000 A 
ATOM     12  C   UNL     1      -0.775  11.072  22.636  0.00  0.00    +0.000 A 
ATOM     13  C   UNL     1      -0.288   9.937  23.294  0.00  0.00    +0.000 A 
ATOM     14  C   UNL     1       0.336   8.900  22.590  0.00  0.00    +0.000 A 
ATOM     15  C   UNL     1       0.502   9.014  21.218  0.00  0.00    +0.000 A 
ATOM     16  C   UNL     1      -0.076  10.144  20.574  0.00  0.00    +0.000 A 
BRANCH  11  17
ATOM     17  C   UNL     1      -1.295  12.506  20.449  0.00  0.00    +0.000 C 
ATOM     18  C   UNL     1      -2.034  13.556  21.328  0.00  0.00    +0.000 C 
ATOM     19  O   UNL     1      -3.273  13.381  20.620  0.00  0.00    +0.000 OA
ATOM     20  C   UNL     1      -2.684  12.388  19.753  0.00  0.00    +0.000 C 
BRANCH  17  21
ATOM     21  C   UNL     1      -0.208  13.166  19.569  0.00  0.00    +0.000 C 
BRANCH  21  27
ATOM     22  C   UNL     1       2.767  13.261  18.493  0.00  0.00    +0.000 C 
ATOM     23  N   UNL     1       2.309  13.584  19.818  0.00  0.00    +0.000 N 
ATOM     24  C   UNL     1       3.114  13.934  20.859  0.00  0.00    +0.000 A 
ATOM     25  N   UNL     1       2.380  14.163  21.920  0.00  0.00    +0.000 NA
ATOM     26  N   UNL     1       1.069  13.954  21.573  0.00  0.00    +0.000 NA
ATOM     27  C   UNL     1       1.023  13.590  20.305  0.00  0.00    +0.000 A 
ENDBRANCH  21  27
ENDBRANCH  17  21
ENDBRANCH  11  17
ENDBRANCH   1  15
BRANCH   8  28
ATOM     28  C   UNL     1       1.911   3.748  20.874  0.00  0.00    +0.000 C 
ATOM     29  F   UNL     1       0.563   3.675  21.013  0.00  0.00    +0.000 F 
ATOM     30  F   UNL     1       2.334   2.474  20.656  0.00  0.00    +0.000 F 
ATOM     31  F   UNL     1       2.391   4.111  22.093  0.00  0.00    +0.000 F 
ENDBRANCH   8  28
BRANCH   6  32
ATOM     32  C   UNL     1       4.843   4.479  16.958  0.00  0.00    +0.000 C 
BRANCH  32  33
ATOM     33  N   UNL     1       6.172   4.338  17.555  0.00  0.00    +0.000 NA
ATOM     34  C   UNL     1       6.663   5.560  18.205  0.00  0.00    +0.000 C 
ATOM     35  C   UNL     1       7.120   6.723  17.298  0.00  0.00    +0.000 C 
ATOM     36  O   UNL     1       7.543   6.467  15.964  0.00  0.00    +0.000 OA
ATOM     37  C   UNL     1       7.546   5.133  15.464  0.00  0.00    +0.000 C 
ATOM     38  C   UNL     1       7.176   4.022  16.494  0.00  0.00    +0.000 C 
BRANCH  37  39
ATOM     39  C   UNL     1       6.706   5.112  14.197  0.00  0.00    +0.000 C 
ATOM     40  C   UNL     1       7.310   4.674  12.875  0.00  0.00    +0.000 C 
ATOM     41  C   UNL     1       6.266   3.822  13.537  0.00  0.00    +0.000 C 
ENDBRANCH  37  39
ENDBRANCH  32  33
ENDBRANCH   6  32
TORSDOF 8
ENDMDL
MODEL 5
REMARK VINA RESULT:      -9.9      1.901      2.672
REMARK  Name = 
REMARK  9 active torsions:
REMARK  status: ('A' for Active; 'I' for Inactive)
REMARK    1  A    between atoms: C_1  and  N_2
REMARK    2  A    between atoms: C_6  and  C_7
REMARK    3  A    between atoms: C_7  and  C_8
REMARK    4  A    between atoms: C_8  and  C_9
REMARK    5  A    between atoms: C_13  and  N_14
REMARK    6  A    between atoms: C_19  and  C_20
REMARK    7  A    between atoms: C_20  and  N_21
REMARK    8  A    between atoms: C_25  and  C_26
REMARK    9  A    between atoms: C_31  and  C_32
REMARK                            x       y       z     vdW  Elec       q    Type
REMARK                         _______ _______ _______ _____ _____    ______ ____
ROOT
ATOM      1  N   UNL     1       1.332   8.194  20.291  0.00  0.00    +0.000 N 
ATOM      2  C   UNL     1       1.461   6.858  20.811  0.00  0.00    +0.000 C 
ATOM      3  C   UNL     1       2.092   6.088  19.711  0.00  0.00    +0.000 A 
ATOM      4  C   UNL     1       2.483   6.931  18.673  0.00  0.00    +0.000 A 
ATOM      5  C   UNL     1       3.300   6.443  17.636  0.00  0.00    +0.000 A 
ATOM      6  C   UNL     1       3.676   5.072  17.657  0.00  0.00    +0.000 A 
ATOM      7  C   UNL     1       3.129   4.235  18.668  0.00  0.00    +0.000 A 
ATOM      8  C   UNL     1       2.360   4.731  19.722  0.00  0.00    +0.000 A 
ATOM      9  C   UNL     1       1.912   8.289  19.003  0.00  0.00    +0.000 C 
ATOM     10  O   UNL     1       1.961   9.240  18.250  0.00  0.00    +0.000 OA
ENDROOT
BRANCH   1  15
ATOM     11  C   UNL     1      -0.782  11.247  20.940  0.00  0.00    +0.000 A 
ATOM     12  C   UNL     1      -0.785  11.209  22.344  0.00  0.00    +0.000 A 
ATOM     13  C   UNL     1      -0.227  10.143  23.060  0.00  0.00    +0.000 A 
ATOM     14  C   UNL     1       0.408   9.081  22.406  0.00  0.00    +0.000 A 
ATOM     15  C   UNL     1       0.512   9.099  21.023  0.00  0.00    +0.000 A 
ATOM     16  C   UNL     1      -0.136  10.157  20.326  0.00  0.00    +0.000 A 
BRANCH  11  17
ATOM     17  C   UNL     1      -1.451  12.458  20.085  0.00  0.00    +0.000 C 
ATOM     18  C   UNL     1      -1.887  13.705  20.909  0.00  0.00    +0.000 C 
ATOM     19  O   UNL     1      -3.268  13.555  20.537  0.00  0.00    +0.000 OA
ATOM     20  C   UNL     1      -2.971  12.383  19.749  0.00  0.00    +0.000 C 
BRANCH  17  21
ATOM     21  C   UNL     1      -0.564  12.854  18.882  0.00  0.00    +0.000 C 
BRANCH  21  27
ATOM     22  C   UNL     1      -0.076  15.973  18.653  0.00  0.00    +0.000 C 
ATOM     23  N   UNL     1       0.862  14.974  19.091  0.00  0.00    +0.000 N 
ATOM     24  C   UNL     1       2.159  15.216  19.430  0.00  0.00    +0.000 A 
ATOM     25  N   UNL     1       2.734  14.093  19.783  0.00  0.00    +0.000 NA
ATOM     26  N   UNL     1       1.800  13.093  19.669  0.00  0.00    +0.000 NA
ATOM     27  C   UNL     1       0.670  13.621  19.238  0.00  0.00    +0.000 A 
ENDBRANCH  21  27
ENDBRANCH  17  21
ENDBRANCH  11  17
ENDBRANCH   1  15
BRANCH   8  28
ATOM     28  C   UNL     1       1.908   3.822  20.835  0.00  0.00    +0.000 C 
ATOM     29  F   UNL     1       2.339   2.542  20.700  0.00  0.00    +0.000 F 
ATOM     30  F   UNL     1       2.350   4.239  22.051  0.00  0.00    +0.000 F 
ATOM     31  F   UNL     1       0.553   3.750  20.921  0.00  0.00    +0.000 F 
ENDBRANCH   8  28
BRANCH   6  32
ATOM     32  C   UNL     1       4.864   4.434  16.917  0.00  0.00    +0.000 C 
BRANCH  32  33
ATOM     33  N   UNL     1       6.184   4.289  17.532  0.00  0.00    +0.000 NA
ATOM     34  C   UNL     1       6.651   5.494  18.227  0.00  0.00    +0.000 C 
ATOM     35  C   UNL     1       7.112   6.689  17.364  0.00  0.00    +0.000 C 
ATOM     36  O   UNL     1       7.559   6.477  16.030  0.00  0.00    +0.000 OA
ATOM     37  C   UNL     1       7.585   5.159  15.490  0.00  0.00    +0.000 C 
ATOM     38  C   UNL     1       7.209   4.014  16.480  0.00  0.00    +0.000 C 
BRANCH  37  39
ATOM     39  C   UNL     1       6.767   5.168  14.209  0.00  0.00    +0.000 C 
ATOM     40  C   UNL     1       7.400   4.786  12.884  0.00  0.00    +0.000 C 
ATOM     41  C   UNL     1       6.361   3.895  13.498  0.00  0.00    +0.000 C 
ENDBRANCH  37  39
ENDBRANCH  32  33
ENDBRANCH   6  32
TORSDOF 8
ENDMDL
MODEL 6
REMARK VINA RESULT:      -9.9      1.153      1.613
REMARK  Name = 
REMARK  9 active torsions:
REMARK  status: ('A' for Active; 'I' for Inactive)
REMARK    1  A    between atoms: C_1  and  N_2
REMARK    2  A    between atoms: C_6  and  C_7
REMARK    3  A    between atoms: C_7  and  C_8
REMARK    4  A    between atoms: C_8  and  C_9
REMARK    5  A    between atoms: C_13  and  N_14
REMARK    6  A    between atoms: C_19  and  C_20
REMARK    7  A    between atoms: C_20  and  N_21
REMARK    8  A    between atoms: C_25  and  C_26
REMARK    9  A    between atoms: C_31  and  C_32
REMARK                            x       y       z     vdW  Elec       q    Type
REMARK                         _______ _______ _______ _____ _____    ______ ____
ROOT
ATOM      1  N   UNL     1       1.474   8.325  20.172  0.00  0.00    +0.000 N 
ATOM      2  C   UNL     1       1.556   7.003  20.735  0.00  0.00    +0.000 C 
ATOM      3  C   UNL     1       2.155   6.176  19.660  0.00  0.00    +0.000 A 
ATOM      4  C   UNL     1       2.574   6.970  18.595  0.00  0.00    +0.000 A 
ATOM      5  C   UNL     1       3.370   6.419  17.573  0.00  0.00    +0.000 A 
ATOM      6  C   UNL     1       3.697   5.037  17.638  0.00  0.00    +0.000 A 
ATOM      7  C   UNL     1       3.123   4.254  18.676  0.00  0.00    +0.000 A 
ATOM      8  C   UNL     1       2.375   4.811  19.714  0.00  0.00    +0.000 A 
ATOM      9  C   UNL     1       2.053   8.358  18.880  0.00  0.00    +0.000 C 
ATOM     10  O   UNL     1       2.134   9.281  18.097  0.00  0.00    +0.000 OA
ENDROOT
BRANCH   1  15
ATOM     11  C   UNL     1       0.239  11.725  21.236  0.00  0.00    +0.000 A 
ATOM     12  C   UNL     1      -0.446  11.346  22.403  0.00  0.00    +0.000 A 
ATOM     13  C   UNL     1      -0.616  10.004  22.763  0.00  0.00    +0.000 A 
ATOM     14  C   UNL     1      -0.065   8.970  21.997  0.00  0.00    +0.000 A 
ATOM     15  C   UNL     1       0.688   9.283  20.875  0.00  0.00    +0.000 A 
ATOM     16  C   UNL     1       0.772  10.652  20.496  0.00  0.00    +0.000 A 
BRANCH  11  17
ATOM     17  C   UNL     1       0.423  13.274  20.781  0.00  0.00    +0.000 C 
ATOM     18  C   UNL     1       1.623  13.561  19.830  0.00  0.00    +0.000 C 
ATOM     19  O   UNL     1       2.249  14.448  20.773  0.00  0.00    +0.000 OA
ATOM     20  C   UNL     1       1.187  14.246  21.730  0.00  0.00    +0.000 C 
BRANCH  17  21
ATOM     21  C   UNL     1      -0.896  13.856  20.221  0.00  0.00    +0.000 C 
BRANCH  21  27
ATOM     22  C   UNL     1      -3.743  12.535  20.634  0.00  0.00    +0.000 C 
ATOM     23  N   UNL     1      -2.856  12.363  19.514  0.00  0.00    +0.000 N 
ATOM     24  C   UNL     1      -3.086  11.536  18.456  0.00  0.00    +0.000 A 
ATOM     25  N   UNL     1      -2.085  11.616  17.615  0.00  0.00    +0.000 NA
ATOM     26  N   UNL     1      -1.177  12.506  18.131  0.00  0.00    +0.000 NA
ATOM     27  C   UNL     1      -1.634  12.950  19.287  0.00  0.00    +0.000 A 
ENDBRANCH  21  27
ENDBRANCH  17  21
ENDBRANCH  11  17
ENDBRANCH   1  15
BRANCH   8  28
ATOM     28  C   UNL     1       1.893   3.956  20.857  0.00  0.00    +0.000 C 
ATOM     29  F   UNL     1       2.211   2.643  20.725  0.00  0.00    +0.000 F 
ATOM     30  F   UNL     1       2.415   4.348  22.050  0.00  0.00    +0.000 F 
ATOM     31  F   UNL     1       0.541   3.997  20.996  0.00  0.00    +0.000 F 
ENDBRANCH   8  28
BRANCH   6  32
ATOM     32  C   UNL     1       4.859   4.333  16.918  0.00  0.00    +0.000 C 
BRANCH  32  33
ATOM     33  N   UNL     1       6.191   4.209  17.513  0.00  0.00    +0.000 NA
ATOM     34  C   UNL     1       6.641   5.417  18.214  0.00  0.00    +0.000 C 
ATOM     35  C   UNL     1       7.065   6.630  17.357  0.00  0.00    +0.000 C 
ATOM     36  O   UNL     1       7.499   6.442  16.015  0.00  0.00    +0.000 OA
ATOM     37  C   UNL     1       7.544   5.130  15.461  0.00  0.00    +0.000 C 
ATOM     38  C   UNL     1       7.206   3.967  16.444  0.00  0.00    +0.000 C 
BRANCH  37  39
ATOM     39  C   UNL     1       6.708   5.135  14.191  0.00  0.00    +0.000 C 
ATOM     40  C   UNL     1       7.300   4.671  12.874  0.00  0.00    +0.000 C 
ATOM     41  C   UNL     1       6.225   3.860  13.534  0.00  0.00    +0.000 C 
ENDBRANCH  37  39
ENDBRANCH  32  33
ENDBRANCH   6  32
TORSDOF 8
ENDMDL
MODEL 7
REMARK VINA RESULT:      -9.9      1.894      2.725
REMARK  Name = 
REMARK  9 active torsions:
REMARK  status: ('A' for Active; 'I' for Inactive)
REMARK    1  A    between atoms: C_1  and  N_2
REMARK    2  A    between atoms: C_6  and  C_7
REMARK    3  A    between atoms: C_7  and  C_8
REMARK    4  A    between atoms: C_8  and  C_9
REMARK    5  A    between atoms: C_13  and  N_14
REMARK    6  A    between atoms: C_19  and  C_20
REMARK    7  A    between atoms: C_20  and  N_21
REMARK    8  A    between atoms: C_25  and  C_26
REMARK    9  A    between atoms: C_31  and  C_32
REMARK                            x       y       z     vdW  Elec       q    Type
REMARK                         _______ _______ _______ _____ _____    ______ ____
ROOT
ATOM      1  N   UNL     1       1.310   8.175  20.407  0.00  0.00    +0.000 N 
ATOM      2  C   UNL     1       1.441   6.831  20.905  0.00  0.00    +0.000 C 
ATOM      3  C   UNL     1       2.077   6.082  19.793  0.00  0.00    +0.000 A 
ATOM      4  C   UNL     1       2.469   6.944  18.772  0.00  0.00    +0.000 A 
ATOM      5  C   UNL     1       3.290   6.476  17.729  0.00  0.00    +0.000 A 
ATOM      6  C   UNL     1       3.670   5.106  17.726  0.00  0.00    +0.000 A 
ATOM      7  C   UNL     1       3.122   4.250  18.721  0.00  0.00    +0.000 A 
ATOM      8  C   UNL     1       2.348   4.725  19.781  0.00  0.00    +0.000 A 
ATOM      9  C   UNL     1       1.894   8.294  19.123  0.00  0.00    +0.000 C 
ATOM     10  O   UNL     1       1.942   9.258  18.387  0.00  0.00    +0.000 OA
ENDROOT
BRANCH   1  15
ATOM     11  C   UNL     1      -0.742  11.253  21.132  0.00  0.00    +0.000 A 
ATOM     12  C   UNL     1      -0.807  11.141  22.531  0.00  0.00    +0.000 A 
ATOM     13  C   UNL     1      -0.311  10.023  23.210  0.00  0.00    +0.000 A 
ATOM     14  C   UNL     1       0.321   8.977  22.527  0.00  0.00    +0.000 A 
ATOM     15  C   UNL     1       0.485   9.065  21.153  0.00  0.00    +0.000 A 
ATOM     16  C   UNL     1      -0.102  10.178  20.487  0.00  0.00    +0.000 A 
BRANCH  11  17
ATOM     17  C   UNL     1      -1.339  12.527  20.317  0.00  0.00    +0.000 C 
ATOM     18  C   UNL     1      -1.564  13.820  21.155  0.00  0.00    +0.000 C 
ATOM     19  O   UNL     1      -2.979  13.825  20.898  0.00  0.00    +0.000 OA
ATOM     20  C   UNL     1      -2.880  12.623  20.106  0.00  0.00    +0.000 C 
BRANCH  17  21
ATOM     21  C   UNL     1      -0.515  12.815  19.041  0.00  0.00    +0.000 C 
BRANCH  21  27
ATOM     22  C   UNL     1       2.380  13.401  20.179  0.00  0.00    +0.000 C 
ATOM     23  N   UNL     1       1.469  14.345  19.588  0.00  0.00    +0.000 N 
ATOM     24  C   UNL     1       1.694  15.683  19.477  0.00  0.00    +0.000 A 
ATOM     25  N   UNL     1       0.668  16.251  18.892  0.00  0.00    +0.000 NA
ATOM     26  N   UNL     1      -0.252  15.269  18.619  0.00  0.00    +0.000 NA
ATOM     27  C   UNL     1       0.224  14.116  19.051  0.00  0.00    +0.000 A 
ENDBRANCH  21  27
ENDBRANCH  17  21
ENDBRANCH  11  17
ENDBRANCH   1  15
BRANCH   8  28
ATOM     28  C   UNL     1       1.894   3.796  20.876  0.00  0.00    +0.000 C 
ATOM     29  F   UNL     1       2.352   4.141  22.107  0.00  0.00    +0.000 F 
ATOM     30  F   UNL     1       0.539   3.748  20.982  0.00  0.00    +0.000 F 
ATOM     31  F   UNL     1       2.310   2.518  20.671  0.00  0.00    +0.000 F 
ENDBRANCH   8  28
BRANCH   6  32
ATOM     32  C   UNL     1       4.862   4.484  16.980  0.00  0.00    +0.000 C 
BRANCH  32  33
ATOM     33  N   UNL     1       6.182   4.336  17.594  0.00  0.00    +0.000 NA
ATOM     34  C   UNL     1       6.653   5.543  18.283  0.00  0.00    +0.000 C 
ATOM     35  C   UNL     1       7.117   6.733  17.415  0.00  0.00    +0.000 C 
ATOM     36  O   UNL     1       7.563   6.514  16.082  0.00  0.00    +0.000 OA
ATOM     37  C   UNL     1       7.584   5.194  15.547  0.00  0.00    +0.000 C 
ATOM     38  C   UNL     1       7.205   4.054  16.542  0.00  0.00    +0.000 C 
BRANCH  37  39
ATOM     39  C   UNL     1       6.765   5.201  14.267  0.00  0.00    +0.000 C 
ATOM     40  C   UNL     1       7.395   4.808  12.943  0.00  0.00    +0.000 C 
ATOM     41  C   UNL     1       6.351   3.926  13.563  0.00  0.00    +0.000 C 
ENDBRANCH  37  39
ENDBRANCH  32  33
ENDBRANCH   6  32
TORSDOF 8
ENDMDL
MODEL 8
REMARK VINA RESULT:      -9.9      2.242      3.057
REMARK  Name = 
REMARK  9 active torsions:
REMARK  status: ('A' for Active; 'I' for Inactive)
REMARK    1  A    between atoms: C_1  and  N_2
REMARK    2  A    between atoms: C_6  and  C_7
REMARK    3  A    between atoms: C_7  and  C_8
REMARK    4  A    between atoms: C_8  and  C_9
REMARK    5  A    between atoms: C_13  and  N_14
REMARK    6  A    between atoms: C_19  and  C_20
REMARK    7  A    between atoms: C_20  and  N_21
REMARK    8  A    between atoms: C_25  and  C_26
REMARK    9  A    between atoms: C_31  and  C_32
REMARK                            x       y       z     vdW  Elec       q    Type
REMARK                         _______ _______ _______ _____ _____    ______ ____
ROOT
ATOM      1  N   UNL     1       1.252   8.509  20.379  0.00  0.00    +0.000 N 
ATOM      2  C   UNL     1       1.411   7.167  20.875  0.00  0.00    +0.000 C 
ATOM      3  C   UNL     1       2.013   6.421  19.744  0.00  0.00    +0.000 A 
ATOM      4  C   UNL     1       2.362   7.282  18.707  0.00  0.00    +0.000 A 
ATOM      5  C   UNL     1       3.150   6.819  17.637  0.00  0.00    +0.000 A 
ATOM      6  C   UNL     1       3.541   5.452  17.624  0.00  0.00    +0.000 A 
ATOM      7  C   UNL     1       3.035   4.594  18.640  0.00  0.00    +0.000 A 
ATOM      8  C   UNL     1       2.295   5.066  19.725  0.00  0.00    +0.000 A 
ATOM      9  C   UNL     1       1.789   8.629  19.075  0.00  0.00    +0.000 C 
ATOM     10  O   UNL     1       1.804   9.592  18.335  0.00  0.00    +0.000 OA
ENDROOT
BRANCH   1  15
ATOM     11  C   UNL     1      -0.184  11.788  21.562  0.00  0.00    +0.000 A 
ATOM     12  C   UNL     1      -0.734  11.352  22.780  0.00  0.00    +0.000 A 
ATOM     13  C   UNL     1      -0.754  10.001  23.145  0.00  0.00    +0.000 A 
ATOM     14  C   UNL     1      -0.180   9.018  22.330  0.00  0.00    +0.000 A 
ATOM     15  C   UNL     1       0.446   9.395  21.151  0.00  0.00    +0.000 A 
ATOM     16  C   UNL     1       0.378  10.765  20.774  0.00  0.00    +0.000 A 
BRANCH  11  17
ATOM     17  C   UNL     1      -0.176  13.347  21.102  0.00  0.00    +0.000 C 
ATOM     18  C   UNL     1      -1.304  14.235  21.705  0.00  0.00    +0.000 C 
ATOM     19  O   UNL     1      -1.856  14.536  20.411  0.00  0.00    +0.000 OA
ATOM     20  C   UNL     1      -0.856  13.730  19.752  0.00  0.00    +0.000 C 
BRANCH  17  21
ATOM     21  C   UNL     1       1.217  13.986  21.304  0.00  0.00    +0.000 C 
BRANCH  21  27
ATOM     22  C   UNL     1       1.655  16.702  19.737  0.00  0.00    +0.000 C 
ATOM     23  N   UNL     1       2.134  15.396  19.368  0.00  0.00    +0.000 N 
ATOM     24  C   UNL     1       2.820  15.109  18.227  0.00  0.00    +0.000 A 
ATOM     25  N   UNL     1       3.106  13.831  18.200  0.00  0.00    +0.000 NA
ATOM     26  N   UNL     1       2.595  13.265  19.341  0.00  0.00    +0.000 NA
ATOM     27  C   UNL     1       1.994  14.207  20.044  0.00  0.00    +0.000 A 
ENDBRANCH  21  27
ENDBRANCH  17  21
ENDBRANCH  11  17
ENDBRANCH   1  15
BRANCH   8  28
ATOM     28  C   UNL     1       1.888   4.136  20.838  0.00  0.00    +0.000 C 
ATOM     29  F   UNL     1       0.544   4.032  20.995  0.00  0.00    +0.000 F 
ATOM     30  F   UNL     1       2.341   2.869  20.641  0.00  0.00    +0.000 F 
ATOM     31  F   UNL     1       2.373   4.535  22.044  0.00  0.00    +0.000 F 
ENDBRANCH   8  28
BRANCH   6  32
ATOM     32  C   UNL     1       4.711   4.837  16.837  0.00  0.00    +0.000 C 
BRANCH  32  33
ATOM     33  N   UNL     1       5.985   4.493  17.469  0.00  0.00    +0.000 NA
ATOM     34  C   UNL     1       6.666   5.634  18.091  0.00  0.00    +0.000 C 
ATOM     35  C   UNL     1       7.332   6.670  17.159  0.00  0.00    +0.000 C 
ATOM     36  O   UNL     1       7.728   6.299  15.844  0.00  0.00    +0.000 OA
ATOM     37  C   UNL     1       7.511   4.967  15.386  0.00  0.00    +0.000 C 
ATOM     38  C   UNL     1       6.938   3.972  16.442  0.00  0.00    +0.000 C 
BRANCH  37  39
ATOM     39  C   UNL     1       6.702   5.046  14.101  0.00  0.00    +0.000 C 
ATOM     40  C   UNL     1       7.250   4.477  12.806  0.00  0.00    +0.000 C 
ATOM     41  C   UNL     1       6.070   3.826  13.465  0.00  0.00    +0.000 C 
ENDBRANCH  37  39
ENDBRANCH  32  33
ENDBRANCH   6  32
TORSDOF 8
ENDMDL
MODEL 9
REMARK VINA RESULT:      -9.8      2.038      3.007
REMARK  Name = 
REMARK  9 active torsions:
REMARK  status: ('A' for Active; 'I' for Inactive)
REMARK    1  A    between atoms: C_1  and  N_2
REMARK    2  A    between atoms: C_6  and  C_7
REMARK    3  A    between atoms: C_7  and  C_8
REMARK    4  A    between atoms: C_8  and  C_9
REMARK    5  A    between atoms: C_13  and  N_14
REMARK    6  A    between atoms: C_19  and  C_20
REMARK    7  A    between atoms: C_20  and  N_21
REMARK    8  A    between atoms: C_25  and  C_26
REMARK    9  A    between atoms: C_31  and  C_32
REMARK                            x       y       z     vdW  Elec       q    Type
REMARK                         _______ _______ _______ _____ _____    ______ ____
ROOT
ATOM      1  N   UNL     1       1.372   8.031  20.377  0.00  0.00    +0.000 N 
ATOM      2  C   UNL     1       1.486   6.692  20.891  0.00  0.00    +0.000 C 
ATOM      3  C   UNL     1       2.135   5.927  19.799  0.00  0.00    +0.000 A 
ATOM      4  C   UNL     1       2.550   6.775  18.775  0.00  0.00    +0.000 A 
ATOM      5  C   UNL     1       3.386   6.291  17.751  0.00  0.00    +0.000 A 
ATOM      6  C   UNL     1       3.757   4.919  17.770  0.00  0.00    +0.000 A 
ATOM      7  C   UNL     1       3.187   4.077  18.764  0.00  0.00    +0.000 A 
ATOM      8  C   UNL     1       2.398   4.569  19.806  0.00  0.00    +0.000 A 
ATOM      9  C   UNL     1       1.978   8.133  19.102  0.00  0.00    +0.000 C 
ATOM     10  O   UNL     1       2.045   9.089  18.356  0.00  0.00    +0.000 OA
ENDROOT
BRANCH   1  15
ATOM     11  C   UNL     1      -0.566  11.187  21.086  0.00  0.00    +0.000 A 
ATOM     12  C   UNL     1      -0.743  11.021  22.470  0.00  0.00    +0.000 A 
ATOM     13  C   UNL     1      -0.359   9.850  23.133  0.00  0.00    +0.000 A 
ATOM     14  C   UNL     1       0.268   8.800  22.452  0.00  0.00    +0.000 A 
ATOM     15  C   UNL     1       0.540   8.935  21.099  0.00  0.00    +0.000 A 
ATOM     16  C   UNL     1       0.064  10.105  20.442  0.00  0.00    +0.000 A 
BRANCH  11  17
ATOM     17  C   UNL     1      -1.032  12.524  20.287  0.00  0.00    +0.000 C 
ATOM     18  C   UNL     1      -2.268  12.358  19.355  0.00  0.00    +0.000 C 
ATOM     19  O   UNL     1      -1.517  12.710  18.180  0.00  0.00    +0.000 OA
ATOM     20  C   UNL     1      -0.311  12.886  18.953  0.00  0.00    +0.000 C 
BRANCH  17  21
ATOM     21  C   UNL     1      -1.204  13.722  21.249  0.00  0.00    +0.000 C 
BRANCH  21  27
ATOM     22  C   UNL     1      -0.336  16.511  20.028  0.00  0.00    +0.000 C 
ATOM     23  N   UNL     1       0.412  15.689  20.942  0.00  0.00    +0.000 N 
ATOM     24  C   UNL     1       1.668  15.963  21.390  0.00  0.00    +0.000 A 
ATOM     25  N   UNL     1       2.057  15.016  22.207  0.00  0.00    +0.000 NA
ATOM     26  N   UNL     1       1.040  14.098  22.294  0.00  0.00    +0.000 NA
ATOM     27  C   UNL     1       0.048  14.495  21.519  0.00  0.00    +0.000 A 
ENDBRANCH  21  27
ENDBRANCH  17  21
ENDBRANCH  11  17
ENDBRANCH   1  15
BRANCH   8  28
ATOM     28  C   UNL     1       1.920   3.654  20.903  0.00  0.00    +0.000 C 
ATOM     29  F   UNL     1       2.341   4.023  22.140  0.00  0.00    +0.000 F 
ATOM     30  F   UNL     1       0.563   3.598  20.972  0.00  0.00    +0.000 F 
ATOM     31  F   UNL     1       2.351   2.376  20.731  0.00  0.00    +0.000 F 
ENDBRANCH   8  28
BRANCH   6  32
ATOM     32  C   UNL     1       4.957   4.281  17.050  0.00  0.00    +0.000 C 
BRANCH  32  33
ATOM     33  N   UNL     1       6.298   4.254  17.635  0.00  0.00    +0.000 NA
ATOM     34  C   UNL     1       6.671   5.496  18.322  0.00  0.00    +0.000 C 
ATOM     35  C   UNL     1       7.004   6.728  17.452  0.00  0.00    +0.000 C 
ATOM     36  O   UNL     1       7.439   6.557  16.108  0.00  0.00    +0.000 OA
ATOM     37  C   UNL     1       7.570   5.247  15.564  0.00  0.00    +0.000 C 
ATOM     38  C   UNL     1       7.320   4.073  16.560  0.00  0.00    +0.000 C 
BRANCH  37  39
ATOM     39  C   UNL     1       6.725   5.184  14.302  0.00  0.00    +0.000 C 
ATOM     40  C   UNL     1       7.345   4.783  12.976  0.00  0.00    +0.000 C 
ATOM     41  C   UNL     1       6.353   3.874  13.641  0.00  0.00    +0.000 C 
ENDBRANCH  37  39
ENDBRANCH  32  33
ENDBRANCH   6  32
TORSDOF 8
ENDMDL
