MODEL 1
REMARK VINA RESULT:      -9.5      0.000      0.000
REMARK  Name = 
REMARK  8 active torsions:
REMARK  status: ('A' for Active; 'I' for Inactive)
REMARK    1  A    between atoms: C_1  and  C_2
REMARK    2  A    between atoms: C_2  and  C_3
REMARK    3  A    between atoms: C_2  and  C_10
REMARK    4  A    between atoms: C_3  and  C_4
REMARK    5  A    between atoms: N_8  and  C_9
REMARK    6  A    between atoms: C_14  and  N_15
REMARK    7  A    between atoms: C_16  and  C_18
REMARK    8  A    between atoms: C_22  and  N_23
REMARK                            x       y       z     vdW  Elec       q    Type
REMARK                         _______ _______ _______ _____ _____    ______ ____
ROOT
ATOM      1  N   UNL     1       8.079   9.290  17.808  0.00  0.00    +0.000 N 
ATOM      2  C   UNL     1       8.106   7.958  18.173  0.00  0.00    +0.000 C 
ATOM      3  O   UNL     1       8.724   7.455  19.102  0.00  0.00    +0.000 OA
ATOM      4  H   UNL     1       7.460   9.538  17.040  0.00  0.00    +0.000 HD
ENDROOT
BRANCH   2   5
ATOM      5  C   UNL     1       7.224   7.031  17.386  0.00  0.00    +0.000 A 
ATOM      6  C   UNL     1       5.868   7.128  17.626  0.00  0.00    +0.000 A 
ATOM      7  C   UNL     1       5.086   6.053  17.249  0.00  0.00    +0.000 A 
ATOM      8  C   UNL     1       4.108   5.545  18.111  0.00  0.00    +0.000 A 
ATOM      9  C   UNL     1       3.506   4.311  17.842  0.00  0.00    +0.000 A 
ATOM     10  C   UNL     1       3.682   3.773  16.559  0.00  0.00    +0.000 A 
ATOM     11  C   UNL     1       4.642   4.281  15.686  0.00  0.00    +0.000 A 
ATOM     12  C   UNL     1       5.482   5.294  16.156  0.00  0.00    +0.000 A 
ATOM     13  C   UNL     1       6.810   5.476  15.745  0.00  0.00    +0.000 A 
ATOM     14  N   UNL     1       7.727   6.237  16.413  0.00  0.00    +0.000 NA
BRANCH   9  15
ATOM     15  N   UNL     1       2.861   3.595  18.822  0.00  0.00    +0.000 N 
ATOM     16  C   UNL     1       3.087   3.863  20.249  0.00  0.00    +0.000 C 
ATOM     17  C   UNL     1       1.736   4.097  20.964  0.00  0.00    +0.000 C 
ATOM     18  N   UNL     1       0.769   2.998  20.767  0.00  0.00    +0.000 NA
ATOM     19  C   UNL     1       0.584   2.759  19.319  0.00  0.00    +0.000 C 
ATOM     20  C   UNL     1       1.901   2.528  18.544  0.00  0.00    +0.000 C 
ATOM     21  H   UNL     1      -0.124   3.271  21.172  0.00  0.00    +0.000 HD
ENDBRANCH   9  15
ENDBRANCH   2   5
BRANCH   1  26
ATOM     22  C   UNL     1       9.901  12.506  18.378  0.00  0.00    +0.000 A 
ATOM     23  C   UNL     1      10.238  12.393  19.731  0.00  0.00    +0.000 A 
ATOM     24  C   UNL     1       9.872  11.261  20.452  0.00  0.00    +0.000 A 
ATOM     25  C   UNL     1       9.174  10.227  19.824  0.00  0.00    +0.000 A 
ATOM     26  C   UNL     1       8.779  10.316  18.491  0.00  0.00    +0.000 A 
ATOM     27  C   UNL     1       9.129  11.485  17.780  0.00  0.00    +0.000 A 
BRANCH  22  29
ATOM     28  C   UNL     1      11.427  13.280  16.503  0.00  0.00    +0.000 C 
ATOM     29  C   UNL     1      10.338  13.698  17.524  0.00  0.00    +0.000 C 
BRANCH  29  30
ATOM     30  C   UNL     1      10.774  14.871  18.408  0.00  0.00    +0.000 C 
BRANCH  30  31
ATOM     31  C   UNL     1       9.844  16.039  18.371  0.00  0.00    +0.000 A 
ATOM     32  N   UNL     1       8.562  16.067  18.687  0.00  0.00    +0.000 NA
ATOM     33  N   UNL     1       8.078  17.313  18.453  0.00  0.00    +0.000 NA
ATOM     34  C   UNL     1       9.089  18.061  18.018  0.00  0.00    +0.000 A 
ATOM     35  N   UNL     1      10.216  17.305  17.988  0.00  0.00    +0.000 N 
ATOM     36  C   UNL     1      11.534  17.751  17.634  0.00  0.00    +0.000 C 
ENDBRANCH  30  31
ENDBRANCH  29  30
ENDBRANCH  22  29
ENDBRANCH   1  26
TORSDOF 6
ENDMDL
MODEL 2
REMARK VINA RESULT:      -9.4      0.926      1.126
REMARK  Name = 
REMARK  8 active torsions:
REMARK  status: ('A' for Active; 'I' for Inactive)
REMARK    1  A    between atoms: C_1  and  C_2
REMARK    2  A    between atoms: C_2  and  C_3
REMARK    3  A    between atoms: C_2  and  C_10
REMARK    4  A    between atoms: C_3  and  C_4
REMARK    5  A    between atoms: N_8  and  C_9
REMARK    6  A    between atoms: C_14  and  N_15
REMARK    7  A    between atoms: C_16  and  C_18
REMARK    8  A    between atoms: C_22  and  N_23
REMARK                            x       y       z     vdW  Elec       q    Type
REMARK                         _______ _______ _______ _____ _____    ______ ____
ROOT
ATOM      1  N   UNL     1       8.167   9.305  17.733  0.00  0.00    +0.000 N 
ATOM      2  C   UNL     1       8.139   7.985  18.140  0.00  0.00    +0.000 C 
ATOM      3  O   UNL     1       8.714   7.492  19.101  0.00  0.00    +0.000 OA
ATOM      4  H   UNL     1       7.580   9.549  16.940  0.00  0.00    +0.000 HD
ENDROOT
BRANCH   2   5
ATOM      5  C   UNL     1       7.249   7.062  17.357  0.00  0.00    +0.000 A 
ATOM      6  C   UNL     1       5.893   7.178  17.592  0.00  0.00    +0.000 A 
ATOM      7  C   UNL     1       5.099   6.110  17.219  0.00  0.00    +0.000 A 
ATOM      8  C   UNL     1       4.113   5.620  18.083  0.00  0.00    +0.000 A 
ATOM      9  C   UNL     1       3.497   4.391  17.821  0.00  0.00    +0.000 A 
ATOM     10  C   UNL     1       3.671   3.842  16.542  0.00  0.00    +0.000 A 
ATOM     11  C   UNL     1       4.639   4.332  15.668  0.00  0.00    +0.000 A 
ATOM     12  C   UNL     1       5.490   5.337  16.134  0.00  0.00    +0.000 A 
ATOM     13  C   UNL     1       6.822   5.501  15.727  0.00  0.00    +0.000 A 
ATOM     14  N   UNL     1       7.746   6.255  16.391  0.00  0.00    +0.000 NA
BRANCH   9  15
ATOM     15  N   UNL     1       2.840   3.690  18.803  0.00  0.00    +0.000 N 
ATOM     16  C   UNL     1       2.852   4.132  20.206  0.00  0.00    +0.000 C 
ATOM     17  C   UNL     1       1.404   4.234  20.740  0.00  0.00    +0.000 C 
ATOM     18  N   UNL     1       0.627   2.991  20.572  0.00  0.00    +0.000 NA
ATOM     19  C   UNL     1       0.653   2.582  19.150  0.00  0.00    +0.000 C 
ATOM     20  C   UNL     1       2.073   2.471  18.552  0.00  0.00    +0.000 C 
ATOM     21  H   UNL     1      -0.338   3.169  20.845  0.00  0.00    +0.000 HD
ENDBRANCH   9  15
ENDBRANCH   2   5
BRANCH   1  26
ATOM     22  C   UNL     1      10.003  12.519  18.273  0.00  0.00    +0.000 A 
ATOM     23  C   UNL     1      10.369  12.401  19.618  0.00  0.00    +0.000 A 
ATOM     24  C   UNL     1      10.018  11.268  20.343  0.00  0.00    +0.000 A 
ATOM     25  C   UNL     1       9.306  10.235  19.727  0.00  0.00    +0.000 A 
ATOM     26  C   UNL     1       8.882  10.328  18.404  0.00  0.00    +0.000 A 
ATOM     27  C   UNL     1       9.218  11.500  17.688  0.00  0.00    +0.000 A 
BRANCH  22  29
ATOM     28  C   UNL     1      11.787  13.450  16.725  0.00  0.00    +0.000 C 
ATOM     29  C   UNL     1      10.423  13.712  17.413  0.00  0.00    +0.000 C 
BRANCH  29  30
ATOM     30  C   UNL     1      10.413  15.006  18.235  0.00  0.00    +0.000 C 
BRANCH  30  31
ATOM     31  C   UNL     1       9.045  15.503  18.570  0.00  0.00    +0.000 A 
ATOM     32  N   UNL     1       8.028  15.695  17.751  0.00  0.00    +0.000 NA
ATOM     33  N   UNL     1       6.989  16.213  18.453  0.00  0.00    +0.000 NA
ATOM     34  C   UNL     1       7.372  16.309  19.724  0.00  0.00    +0.000 A 
ATOM     35  N   UNL     1       8.641  15.841  19.839  0.00  0.00    +0.000 N 
ATOM     36  C   UNL     1       9.398  15.717  21.052  0.00  0.00    +0.000 C 
ENDBRANCH  30  31
ENDBRANCH  29  30
ENDBRANCH  22  29
ENDBRANCH   1  26
TORSDOF 6
ENDMDL
MODEL 3
REMARK VINA RESULT:      -9.3      2.559     10.868
REMARK  Name = 
REMARK  8 active torsions:
REMARK  status: ('A' for Active; 'I' for Inactive)
REMARK    1  A    between atoms: C_1  and  C_2
REMARK    2  A    between atoms: C_2  and  C_3
REMARK    3  A    between atoms: C_2  and  C_10
REMARK    4  A    between atoms: C_3  and  C_4
REMARK    5  A    between atoms: N_8  and  C_9
REMARK    6  A    between atoms: C_14  and  N_15
REMARK    7  A    between atoms: C_16  and  C_18
REMARK    8  A    between atoms: C_22  and  N_23
REMARK                            x       y       z     vdW  Elec       q    Type
REMARK                         _______ _______ _______ _____ _____    ______ ____
ROOT
ATOM      1  N   UNL     1       6.809   7.749  17.183  0.00  0.00    +0.000 N 
ATOM      2  C   UNL     1       7.823   7.913  18.108  0.00  0.00    +0.000 C 
ATOM      3  O   UNL     1       8.367   7.043  18.773  0.00  0.00    +0.000 OA
ATOM      4  H   UNL     1       6.515   8.582  16.679  0.00  0.00    +0.000 HD
ENDROOT
BRANCH   2   5
ATOM      5  C   UNL     1       8.366   9.305  18.265  0.00  0.00    +0.000 A 
ATOM      6  C   UNL     1       9.208   9.514  19.338  0.00  0.00    +0.000 A 
ATOM      7  C   UNL     1       9.392  10.822  19.746  0.00  0.00    +0.000 A 
ATOM      8  C   UNL     1       9.340  11.159  21.103  0.00  0.00    +0.000 A 
ATOM      9  C   UNL     1       9.263  12.501  21.491  0.00  0.00    +0.000 A 
ATOM     10  C   UNL     1       9.548  13.471  20.520  0.00  0.00    +0.000 A 
ATOM     11  C   UNL     1       9.618  13.144  19.167  0.00  0.00    +0.000 A 
ATOM     12  C   UNL     1       9.315  11.832  18.796  0.00  0.00    +0.000 A 
ATOM     13  C   UNL     1       8.724  11.468  17.578  0.00  0.00    +0.000 A 
ATOM     14  N   UNL     1       8.135  10.260  17.335  0.00  0.00    +0.000 NA
BRANCH   9  15
ATOM     15  N   UNL     1       8.817  12.866  22.739  0.00  0.00    +0.000 N 
ATOM     16  C   UNL     1       8.836  14.266  23.187  0.00  0.00    +0.000 C 
ATOM     17  C   UNL     1       7.433  14.680  23.691  0.00  0.00    +0.000 C 
ATOM     18  N   UNL     1       6.897  13.784  24.735  0.00  0.00    +0.000 NA
ATOM     19  C   UNL     1       6.907  12.390  24.242  0.00  0.00    +0.000 C 
ATOM     20  C   UNL     1       8.281  11.918  23.714  0.00  0.00    +0.000 C 
ATOM     21  H   UNL     1       5.936  14.055  24.936  0.00  0.00    +0.000 HD
ENDBRANCH   9  15
ENDBRANCH   2   5
BRANCH   1  26
ATOM     22  C   UNL     1       4.295   4.987  16.981  0.00  0.00    +0.000 A 
ATOM     23  C   UNL     1       5.017   4.012  16.285  0.00  0.00    +0.000 A 
ATOM     24  C   UNL     1       6.327   4.260  15.888  0.00  0.00    +0.000 A 
ATOM     25  C   UNL     1       6.932   5.482  16.192  0.00  0.00    +0.000 A 
ATOM     26  C   UNL     1       6.237   6.498  16.844  0.00  0.00    +0.000 A 
ATOM     27  C   UNL     1       4.897   6.245  17.213  0.00  0.00    +0.000 A 
BRANCH  22  29
ATOM     28  C   UNL     1       2.550   5.676  18.691  0.00  0.00    +0.000 C 
ATOM     29  C   UNL     1       2.877   4.740  17.499  0.00  0.00    +0.000 C 
BRANCH  29  30
ATOM     30  C   UNL     1       2.670   3.259  17.833  0.00  0.00    +0.000 C 
BRANCH  30  31
ATOM     31  C   UNL     1       2.246   3.008  19.243  0.00  0.00    +0.000 A 
ATOM     32  N   UNL     1       1.033   3.098  19.754  0.00  0.00    +0.000 NA
ATOM     33  N   UNL     1       1.096   2.846  21.086  0.00  0.00    +0.000 NA
ATOM     34  C   UNL     1       2.363   2.568  21.382  0.00  0.00    +0.000 A 
ATOM     35  N   UNL     1       3.104   2.626  20.246  0.00  0.00    +0.000 N 
ATOM     36  C   UNL     1       4.504   2.333  20.125  0.00  0.00    +0.000 C 
ENDBRANCH  30  31
ENDBRANCH  29  30
ENDBRANCH  22  29
ENDBRANCH   1  26
TORSDOF 6
ENDMDL
MODEL 4
REMARK VINA RESULT:      -9.3      4.883     10.108
REMARK  Name = 
REMARK  8 active torsions:
REMARK  status: ('A' for Active; 'I' for Inactive)
REMARK    1  A    between atoms: C_1  and  C_2
REMARK    2  A    between atoms: C_2  and  C_3
REMARK    3  A    between atoms: C_2  and  C_10
REMARK    4  A    between atoms: C_3  and  C_4
REMARK    5  A    between atoms: N_8  and  C_9
REMARK    6  A    between atoms: C_14  and  N_15
REMARK    7  A    between atoms: C_16  and  C_18
REMARK    8  A    between atoms: C_22  and  N_23
REMARK                            x       y       z     vdW  Elec       q    Type
REMARK                         _______ _______ _______ _____ _____    ______ ____
ROOT
ATOM      1  N   UNL     1       2.194   6.880  18.888  0.00  0.00    +0.000 N 
ATOM      2  C   UNL     1       2.102   8.122  18.290  0.00  0.00    +0.000 C 
ATOM      3  O   UNL     1       2.410   8.418  17.143  0.00  0.00    +0.000 OA
ATOM      4  H   UNL     1       1.837   6.805  19.838  0.00  0.00    +0.000 HD
ENDROOT
BRANCH   2   5
ATOM      5  C   UNL     1       1.493   9.219  19.117  0.00  0.00    +0.000 A 
ATOM      6  C   UNL     1       1.230  10.404  18.459  0.00  0.00    +0.000 A 
ATOM      7  C   UNL     1       1.065  11.531  19.241  0.00  0.00    +0.000 A 
ATOM      8  C   UNL     1       1.694  12.734  18.901  0.00  0.00    +0.000 A 
ATOM      9  C   UNL     1       1.741  13.788  19.821  0.00  0.00    +0.000 A 
ATOM     10  C   UNL     1       0.892  13.711  20.934  0.00  0.00    +0.000 A 
ATOM     11  C   UNL     1       0.248  12.523  21.273  0.00  0.00    +0.000 A 
ATOM     12  C   UNL     1       0.536  11.384  20.517  0.00  0.00    +0.000 A 
ATOM     13  C   UNL     1       0.535  10.076  21.021  0.00  0.00    +0.000 A 
ATOM     14  N   UNL     1       1.116   9.008  20.398  0.00  0.00    +0.000 NA
BRANCH   9  15
ATOM     15  N   UNL     1       2.658  14.804  19.705  0.00  0.00    +0.000 N 
ATOM     16  C   UNL     1       3.712  14.782  18.680  0.00  0.00    +0.000 C 
ATOM     17  C   UNL     1       3.684  16.094  17.863  0.00  0.00    +0.000 C 
ATOM     18  N   UNL     1       3.770  17.308  18.699  0.00  0.00    +0.000 NA
ATOM     19  C   UNL     1       2.699  17.280  19.719  0.00  0.00    +0.000 C 
ATOM     20  C   UNL     1       2.666  15.987  20.564  0.00  0.00    +0.000 C 
ATOM     21  H   UNL     1       3.637  18.125  18.105  0.00  0.00    +0.000 HD
ENDBRANCH   9  15
ENDBRANCH   2   5
BRANCH   1  26
ATOM     22  C   UNL     1       4.400   4.661  16.839  0.00  0.00    +0.000 A 
ATOM     23  C   UNL     1       3.660   3.474  16.831  0.00  0.00    +0.000 A 
ATOM     24  C   UNL     1       2.438   3.404  17.492  0.00  0.00    +0.000 A 
ATOM     25  C   UNL     1       1.939   4.526  18.160  0.00  0.00    +0.000 A 
ATOM     26  C   UNL     1       2.661   5.714  18.232  0.00  0.00    +0.000 A 
ATOM     27  C   UNL     1       3.916   5.760  17.583  0.00  0.00    +0.000 A 
BRANCH  22  29
ATOM     28  C   UNL     1       5.836   3.734  14.962  0.00  0.00    +0.000 C 
ATOM     29  C   UNL     1       5.715   4.810  16.072  0.00  0.00    +0.000 C 
BRANCH  29  30
ATOM     30  C   UNL     1       6.909   4.807  17.033  0.00  0.00    +0.000 C 
BRANCH  30  31
ATOM     31  C   UNL     1       7.377   6.170  17.425  0.00  0.00    +0.000 A 
ATOM     32  N   UNL     1       7.365   7.272  16.699  0.00  0.00    +0.000 NA
ATOM     33  N   UNL     1       7.936   8.275  17.413  0.00  0.00    +0.000 NA
ATOM     34  C   UNL     1       8.272   7.781  18.602  0.00  0.00    +0.000 A 
ATOM     35  N   UNL     1       7.905   6.476  18.656  0.00  0.00    +0.000 N 
ATOM     36  C   UNL     1       8.036   5.599  19.785  0.00  0.00    +0.000 C 
ENDBRANCH  30  31
ENDBRANCH  29  30
ENDBRANCH  22  29
ENDBRANCH   1  26
TORSDOF 6
ENDMDL
MODEL 5
REMARK VINA RESULT:      -9.2      5.756     10.650
REMARK  Name = 
REMARK  8 active torsions:
REMARK  status: ('A' for Active; 'I' for Inactive)
REMARK    1  A    between atoms: C_1  and  C_2
REMARK    2  A    between atoms: C_2  and  C_3
REMARK    3  A    between atoms: C_2  and  C_10
REMARK    4  A    between atoms: C_3  and  C_4
REMARK    5  A    between atoms: N_8  and  C_9
REMARK    6  A    between atoms: C_14  and  N_15
REMARK    7  A    between atoms: C_16  and  C_18
REMARK    8  A    between atoms: C_22  and  N_23
REMARK                            x       y       z     vdW  Elec       q    Type
REMARK                         _______ _______ _______ _____ _____    ______ ____
ROOT
ATOM      1  N   UNL     1       2.246   6.573  20.183  0.00  0.00    +0.000 N 
ATOM      2  C   UNL     1       1.885   7.800  19.659  0.00  0.00    +0.000 C 
ATOM      3  O   UNL     1       2.079   8.207  18.522  0.00  0.00    +0.000 OA
ATOM      4  H   UNL     1       1.951   6.381  21.137  0.00  0.00    +0.000 HD
ENDROOT
BRANCH   2   5
ATOM      5  C   UNL     1       1.103   8.709  20.564  0.00  0.00    +0.000 A 
ATOM      6  C   UNL     1       0.271   9.619  19.944  0.00  0.00    +0.000 A 
ATOM      7  C   UNL     1      -0.134  10.709  20.691  0.00  0.00    +0.000 A 
ATOM      8  C   UNL     1      -0.102  11.997  20.146  0.00  0.00    +0.000 A 
ATOM      9  C   UNL     1      -0.257  13.115  20.975  0.00  0.00    +0.000 A 
ATOM     10  C   UNL     1      -0.744  12.894  22.271  0.00  0.00    +0.000 A 
ATOM     11  C   UNL     1      -0.796  11.613  22.818  0.00  0.00    +0.000 A 
ATOM     12  C   UNL     1      -0.271  10.560  22.064  0.00  0.00    +0.000 A 
ATOM     13  C   UNL     1       0.338   9.421  22.610  0.00  0.00    +0.000 A 
ATOM     14  N   UNL     1       1.128   8.556  21.908  0.00  0.00    +0.000 NA
BRANCH   9  15
ATOM     15  N   UNL     1       0.153  14.366  20.581  0.00  0.00    +0.000 N 
ATOM     16  C   UNL     1       1.578  14.719  20.495  0.00  0.00    +0.000 C 
ATOM     17  C   UNL     1       1.896  15.298  19.096  0.00  0.00    +0.000 C 
ATOM     18  N   UNL     1       1.032  16.435  18.722  0.00  0.00    +0.000 NA
ATOM     19  C   UNL     1      -0.387  16.035  18.834  0.00  0.00    +0.000 C 
ATOM     20  C   UNL     1      -0.767  15.438  20.208  0.00  0.00    +0.000 C 
ATOM     21  H   UNL     1       1.227  16.689  17.755  0.00  0.00    +0.000 HD
ENDBRANCH   9  15
ENDBRANCH   2   5
BRANCH   1  26
ATOM     22  C   UNL     1       4.529   4.985  17.682  0.00  0.00    +0.000 A 
ATOM     23  C   UNL     1       4.245   3.629  17.876  0.00  0.00    +0.000 A 
ATOM     24  C   UNL     1       3.302   3.239  18.822  0.00  0.00    +0.000 A 
ATOM     25  C   UNL     1       2.627   4.202  19.576  0.00  0.00    +0.000 A 
ATOM     26  C   UNL     1       2.910   5.559  19.448  0.00  0.00    +0.000 A 
ATOM     27  C   UNL     1       3.893   5.939  18.507  0.00  0.00    +0.000 A 
BRANCH  22  29
ATOM     28  C   UNL     1       4.988   6.763  15.930  0.00  0.00    +0.000 C 
ATOM     29  C   UNL     1       5.506   5.470  16.610  0.00  0.00    +0.000 C 
BRANCH  29  30
ATOM     30  C   UNL     1       5.811   4.353  15.605  0.00  0.00    +0.000 C 
BRANCH  30  31
ATOM     31  C   UNL     1       6.753   4.753  14.518  0.00  0.00    +0.000 A 
ATOM     32  N   UNL     1       7.805   5.546  14.606  0.00  0.00    +0.000 NA
ATOM     33  N   UNL     1       8.349   5.694  13.372  0.00  0.00    +0.000 NA
ATOM     34  C   UNL     1       7.635   4.955  12.527  0.00  0.00    +0.000 A 
ATOM     35  N   UNL     1       6.650   4.325  13.217  0.00  0.00    +0.000 N 
ATOM     36  C   UNL     1       5.700   3.389  12.684  0.00  0.00    +0.000 C 
ENDBRANCH  30  31
ENDBRANCH  29  30
ENDBRANCH  22  29
ENDBRANCH   1  26
TORSDOF 6
ENDMDL
MODEL 6
REMARK VINA RESULT:      -9.2      2.594     10.888
REMARK  Name = 
REMARK  8 active torsions:
REMARK  status: ('A' for Active; 'I' for Inactive)
REMARK    1  A    between atoms: C_1  and  C_2
REMARK    2  A    between atoms: C_2  and  C_3
REMARK    3  A    between atoms: C_2  and  C_10
REMARK    4  A    between atoms: C_3  and  C_4
REMARK    5  A    between atoms: N_8  and  C_9
REMARK    6  A    between atoms: C_14  and  N_15
REMARK    7  A    between atoms: C_16  and  C_18
REMARK    8  A    between atoms: C_22  and  N_23
REMARK                            x       y       z     vdW  Elec       q    Type
REMARK                         _______ _______ _______ _____ _____    ______ ____
ROOT
ATOM      1  N   UNL     1       6.967   7.808  17.075  0.00  0.00    +0.000 N 
ATOM      2  C   UNL     1       7.909   7.995  18.069  0.00  0.00    +0.000 C 
ATOM      3  O   UNL     1       8.440   7.136  18.758  0.00  0.00    +0.000 OA
ATOM      4  H   UNL     1       6.675   8.636  16.562  0.00  0.00    +0.000 HD
ENDROOT
BRANCH   2   5
ATOM      5  C   UNL     1       8.387   9.404  18.279  0.00  0.00    +0.000 A 
ATOM      6  C   UNL     1       9.227   9.609  19.355  0.00  0.00    +0.000 A 
ATOM      7  C   UNL     1       9.352  10.906  19.815  0.00  0.00    +0.000 A 
ATOM      8  C   UNL     1       9.295  11.184  21.185  0.00  0.00    +0.000 A 
ATOM      9  C   UNL     1       9.158  12.504  21.629  0.00  0.00    +0.000 A 
ATOM     10  C   UNL     1       9.388  13.526  20.697  0.00  0.00    +0.000 A 
ATOM     11  C   UNL     1       9.462  13.258  19.332  0.00  0.00    +0.000 A 
ATOM     12  C   UNL     1       9.219  11.949  18.909  0.00  0.00    +0.000 A 
ATOM     13  C   UNL     1       8.635  11.608  17.680  0.00  0.00    +0.000 A 
ATOM     14  N   UNL     1       8.102  10.384  17.391  0.00  0.00    +0.000 NA
BRANCH   9  15
ATOM     15  N   UNL     1       8.706  12.795  22.894  0.00  0.00    +0.000 N 
ATOM     16  C   UNL     1       8.523  14.181  23.349  0.00  0.00    +0.000 C 
ATOM     17  C   UNL     1       7.093  14.372  23.904  0.00  0.00    +0.000 C 
ATOM     18  N   UNL     1       6.740  13.405  24.962  0.00  0.00    +0.000 NA
ATOM     19  C   UNL     1       6.949  12.029  24.462  0.00  0.00    +0.000 C 
ATOM     20  C   UNL     1       8.359  11.776  23.883  0.00  0.00    +0.000 C 
ATOM     21  H   UNL     1       5.756  13.523  25.198  0.00  0.00    +0.000 HD
ENDBRANCH   9  15
ENDBRANCH   2   5
BRANCH   1  26
ATOM     22  C   UNL     1       4.672   4.862  16.857  0.00  0.00    +0.000 A 
ATOM     23  C   UNL     1       5.402   4.009  16.023  0.00  0.00    +0.000 A 
ATOM     24  C   UNL     1       6.646   4.399  15.538  0.00  0.00    +0.000 A 
ATOM     25  C   UNL     1       7.177   5.642  15.891  0.00  0.00    +0.000 A 
ATOM     26  C   UNL     1       6.467   6.541  16.682  0.00  0.00    +0.000 A 
ATOM     27  C   UNL     1       5.191   6.145  17.141  0.00  0.00    +0.000 A 
BRANCH  22  29
ATOM     28  C   UNL     1       2.899   5.454  18.574  0.00  0.00    +0.000 C 
ATOM     29  C   UNL     1       3.332   4.454  17.471  0.00  0.00    +0.000 C 
BRANCH  29  30
ATOM     30  C   UNL     1       3.380   3.006  17.970  0.00  0.00    +0.000 C 
BRANCH  30  31
ATOM     31  C   UNL     1       2.959   2.839  19.393  0.00  0.00    +0.000 A 
ATOM     32  N   UNL     1       3.716   2.883  20.474  0.00  0.00    +0.000 NA
ATOM     33  N   UNL     1       2.947   2.621  21.561  0.00  0.00    +0.000 NA
ATOM     34  C   UNL     1       1.698   2.445  21.136  0.00  0.00    +0.000 A 
ATOM     35  N   UNL     1       1.664   2.609  19.789  0.00  0.00    +0.000 N 
ATOM     36  C   UNL     1       0.497   2.560  18.954  0.00  0.00    +0.000 C 
ENDBRANCH  30  31
ENDBRANCH  29  30
ENDBRANCH  22  29
ENDBRANCH   1  26
TORSDOF 6
ENDMDL
MODEL 7
REMARK VINA RESULT:      -9.1      1.084      1.463
REMARK  Name = 
REMARK  8 active torsions:
REMARK  status: ('A' for Active; 'I' for Inactive)
REMARK    1  A    between atoms: C_1  and  C_2
REMARK    2  A    between atoms: C_2  and  C_3
REMARK    3  A    between atoms: C_2  and  C_10
REMARK    4  A    between atoms: C_3  and  C_4
REMARK    5  A    between atoms: N_8  and  C_9
REMARK    6  A    between atoms: C_14  and  N_15
REMARK    7  A    between atoms: C_16  and  C_18
REMARK    8  A    between atoms: C_22  and  N_23
REMARK                            x       y       z     vdW  Elec       q    Type
REMARK                         _______ _______ _______ _____ _____    ______ ____
ROOT
ATOM      1  N   UNL     1       8.213   9.280  17.867  0.00  0.00    +0.000 N 
ATOM      2  C   UNL     1       8.177   7.946  18.227  0.00  0.00    +0.000 C 
ATOM      3  O   UNL     1       8.752   7.416  19.168  0.00  0.00    +0.000 OA
ATOM      4  H   UNL     1       7.624   9.555  17.085  0.00  0.00    +0.000 HD
ENDROOT
BRANCH   2   5
ATOM      5  C   UNL     1       7.275   7.059  17.417  0.00  0.00    +0.000 A 
ATOM      6  C   UNL     1       5.920   7.197  17.642  0.00  0.00    +0.000 A 
ATOM      7  C   UNL     1       5.108   6.153  17.240  0.00  0.00    +0.000 A 
ATOM      8  C   UNL     1       4.104   5.666  18.084  0.00  0.00    +0.000 A 
ATOM      9  C   UNL     1       3.466   4.455  17.791  0.00  0.00    +0.000 A 
ATOM     10  C   UNL     1       3.641   3.929  16.503  0.00  0.00    +0.000 A 
ATOM     11  C   UNL     1       4.627   4.417  15.649  0.00  0.00    +0.000 A 
ATOM     12  C   UNL     1       5.493   5.395  16.142  0.00  0.00    +0.000 A 
ATOM     13  C   UNL     1       6.832   5.540  15.751  0.00  0.00    +0.000 A 
ATOM     14  N   UNL     1       7.765   6.261  16.440  0.00  0.00    +0.000 NA
BRANCH   9  15
ATOM     15  N   UNL     1       2.786   3.748  18.753  0.00  0.00    +0.000 N 
ATOM     16  C   UNL     1       2.630   4.259  20.123  0.00  0.00    +0.000 C 
ATOM     17  C   UNL     1       1.137   4.255  20.523  0.00  0.00    +0.000 C 
ATOM     18  N   UNL     1       0.490   2.938  20.362  0.00  0.00    +0.000 NA
ATOM     19  C   UNL     1       0.681   2.462  18.974  0.00  0.00    +0.000 C 
ATOM     20  C   UNL     1       2.154   2.452  18.509  0.00  0.00    +0.000 C 
ATOM     21  H   UNL     1      -0.508   3.040  20.539  0.00  0.00    +0.000 HD
ENDBRANCH   9  15
ENDBRANCH   2   5
BRANCH   1  26
ATOM     22  C   UNL     1      10.356  12.287  18.462  0.00  0.00    +0.000 A 
ATOM     23  C   UNL     1      10.472  12.267  19.856  0.00  0.00    +0.000 A 
ATOM     24  C   UNL     1       9.853  11.266  20.597  0.00  0.00    +0.000 A 
ATOM     25  C   UNL     1       9.119  10.268  19.949  0.00  0.00    +0.000 A 
ATOM     26  C   UNL     1       8.940  10.273  18.569  0.00  0.00    +0.000 A 
ATOM     27  C   UNL     1       9.547  11.315  17.832  0.00  0.00    +0.000 A 
BRANCH  22  29
ATOM     28  C   UNL     1      12.332  13.873  18.315  0.00  0.00    +0.000 C 
ATOM     29  C   UNL     1      11.072  13.325  17.597  0.00  0.00    +0.000 C 
BRANCH  29  30
ATOM     30  C   UNL     1      10.106  14.435  17.166  0.00  0.00    +0.000 C 
BRANCH  30  31
ATOM     31  C   UNL     1       9.337  15.043  18.293  0.00  0.00    +0.000 A 
ATOM     32  N   UNL     1       9.787  15.834  19.249  0.00  0.00    +0.000 NA
ATOM     33  N   UNL     1       8.772  16.111  20.105  0.00  0.00    +0.000 NA
ATOM     34  C   UNL     1       7.681  15.503  19.645  0.00  0.00    +0.000 A 
ATOM     35  N   UNL     1       7.991  14.854  18.494  0.00  0.00    +0.000 N 
ATOM     36  C   UNL     1       7.083  14.127  17.653  0.00  0.00    +0.000 C 
ENDBRANCH  30  31
ENDBRANCH  29  30
ENDBRANCH  22  29
ENDBRANCH   1  26
TORSDOF 6
ENDMDL
MODEL 8
REMARK VINA RESULT:      -9.1      0.744      1.350
REMARK  Name = 
REMARK  8 active torsions:
REMARK  status: ('A' for Active; 'I' for Inactive)
REMARK    1  A    between atoms: C_1  and  C_2
REMARK    2  A    between atoms: C_2  and  C_3
REMARK    3  A    between atoms: C_2  and  C_10
REMARK    4  A    between atoms: C_3  and  C_4
REMARK    5  A    between atoms: N_8  and  C_9
REMARK    6  A    between atoms: C_14  and  N_15
REMARK    7  A    between atoms: C_16  and  C_18
REMARK    8  A    between atoms: C_22  and  N_23
REMARK                            x       y       z     vdW  Elec       q    Type
REMARK                         _______ _______ _______ _____ _____    ______ ____
ROOT
ATOM      1  N   UNL     1       8.106   9.279  17.888  0.00  0.00    +0.000 N 
ATOM      2  C   UNL     1       8.125   7.948  18.262  0.00  0.00    +0.000 C 
ATOM      3  O   UNL     1       8.754   7.446  19.183  0.00  0.00    +0.000 OA
ATOM      4  H   UNL     1       7.477   9.529  17.129  0.00  0.00    +0.000 HD
ENDROOT
BRANCH   2   5
ATOM      5  C   UNL     1       7.219   7.026  17.496  0.00  0.00    +0.000 A 
ATOM      6  C   UNL     1       5.872   7.325  17.533  0.00  0.00    +0.000 A 
ATOM      7  C   UNL     1       4.995   6.308  17.204  0.00  0.00    +0.000 A 
ATOM      8  C   UNL     1       3.862   6.064  17.986  0.00  0.00    +0.000 A 
ATOM      9  C   UNL     1       3.127   4.886  17.810  0.00  0.00    +0.000 A 
ATOM     10  C   UNL     1       3.374   4.139  16.649  0.00  0.00    +0.000 A 
ATOM     11  C   UNL     1       4.492   4.384  15.854  0.00  0.00    +0.000 A 
ATOM     12  C   UNL     1       5.405   5.346  16.290  0.00  0.00    +0.000 A 
ATOM     13  C   UNL     1       6.785   5.299  16.044  0.00  0.00    +0.000 A 
ATOM     14  N   UNL     1       7.716   6.035  16.720  0.00  0.00    +0.000 NA
BRANCH   9  15
ATOM     15  N   UNL     1       2.277   4.414  18.781  0.00  0.00    +0.000 N 
ATOM     16  C   UNL     1       1.481   3.194  18.586  0.00  0.00    +0.000 C 
ATOM     17  C   UNL     1       1.714   2.215  19.759  0.00  0.00    +0.000 C 
ATOM     18  N   UNL     1       1.464   2.818  21.084  0.00  0.00    +0.000 NA
ATOM     19  C   UNL     1       2.277   4.044  21.230  0.00  0.00    +0.000 C 
ATOM     20  C   UNL     1       2.097   5.060  20.080  0.00  0.00    +0.000 C 
ATOM     21  H   UNL     1       1.741   2.152  21.804  0.00  0.00    +0.000 HD
ENDBRANCH   9  15
ENDBRANCH   2   5
BRANCH   1  26
ATOM     22  C   UNL     1      10.015  12.455  18.393  0.00  0.00    +0.000 A 
ATOM     23  C   UNL     1      10.337  12.367  19.752  0.00  0.00    +0.000 A 
ATOM     24  C   UNL     1       9.932  11.264  20.497  0.00  0.00    +0.000 A 
ATOM     25  C   UNL     1       9.211  10.234  19.889  0.00  0.00    +0.000 A 
ATOM     26  C   UNL     1       8.830  10.301  18.551  0.00  0.00    +0.000 A 
ATOM     27  C   UNL     1       9.219  11.442  17.814  0.00  0.00    +0.000 A 
BRANCH  22  29
ATOM     28  C   UNL     1      11.435  13.105  16.392  0.00  0.00    +0.000 C 
ATOM     29  C   UNL     1      10.493  13.612  17.514  0.00  0.00    +0.000 C 
BRANCH  29  30
ATOM     30  C   UNL     1      11.126  14.718  18.366  0.00  0.00    +0.000 C 
BRANCH  30  31
ATOM     31  C   UNL     1      10.507  16.063  18.174  0.00  0.00    +0.000 A 
ATOM     32  N   UNL     1      10.634  16.876  17.142  0.00  0.00    +0.000 NA
ATOM     33  N   UNL     1       9.955  18.023  17.398  0.00  0.00    +0.000 NA
ATOM     34  C   UNL     1       9.382  17.891  18.591  0.00  0.00    +0.000 A 
ATOM     35  N   UNL     1       9.677  16.664  19.089  0.00  0.00    +0.000 N 
ATOM     36  C   UNL     1       9.202  16.108  20.325  0.00  0.00    +0.000 C 
ENDBRANCH  30  31
ENDBRANCH  29  30
ENDBRANCH  22  29
ENDBRANCH   1  26
TORSDOF 6
ENDMDL
MODEL 9
REMARK VINA RESULT:      -8.9      4.821     10.002
REMARK  Name = 
REMARK  8 active torsions:
REMARK  status: ('A' for Active; 'I' for Inactive)
REMARK    1  A    between atoms: C_1  and  C_2
REMARK    2  A    between atoms: C_2  and  C_3
REMARK    3  A    between atoms: C_2  and  C_10
REMARK    4  A    between atoms: C_3  and  C_4
REMARK    5  A    between atoms: N_8  and  C_9
REMARK    6  A    between atoms: C_14  and  N_15
REMARK    7  A    between atoms: C_16  and  C_18
REMARK    8  A    between atoms: C_22  and  N_23
REMARK                            x       y       z     vdW  Elec       q    Type
REMARK                         _______ _______ _______ _____ _____    ______ ____
ROOT
ATOM      1  N   UNL     1       2.015   7.565  18.255  0.00  0.00    +0.000 N 
ATOM      2  C   UNL     1       1.701   7.995  19.530  0.00  0.00    +0.000 C 
ATOM      3  O   UNL     1       1.893   7.400  20.582  0.00  0.00    +0.000 OA
ATOM      4  H   UNL     1       1.834   8.219  17.497  0.00  0.00    +0.000 HD
ENDROOT
BRANCH   2   5
ATOM      5  C   UNL     1       1.122   9.376  19.646  0.00  0.00    +0.000 A 
ATOM      6  C   UNL     1       1.347  10.223  18.580  0.00  0.00    +0.000 A 
ATOM      7  C   UNL     1       1.198  11.578  18.813  0.00  0.00    +0.000 A 
ATOM      8  C   UNL     1       2.152  12.489  18.347  0.00  0.00    +0.000 A 
ATOM      9  C   UNL     1       2.141  13.812  18.804  0.00  0.00    +0.000 A 
ATOM     10  C   UNL     1       0.992  14.254  19.474  0.00  0.00    +0.000 A 
ATOM     11  C   UNL     1       0.027  13.356  19.928  0.00  0.00    +0.000 A 
ATOM     12  C   UNL     1       0.278  11.992  19.766  0.00  0.00    +0.000 A 
ATOM     13  C   UNL     1      -0.169  10.993  20.644  0.00  0.00    +0.000 A 
ATOM     14  N   UNL     1       0.325   9.721  20.684  0.00  0.00    +0.000 NA
BRANCH   9  15
ATOM     15  N   UNL     1       3.249  14.619  18.703  0.00  0.00    +0.000 N 
ATOM     16  C   UNL     1       3.519  15.414  17.496  0.00  0.00    +0.000 C 
ATOM     17  C   UNL     1       3.742  16.896  17.877  0.00  0.00    +0.000 C 
ATOM     18  N   UNL     1       4.793  17.087  18.896  0.00  0.00    +0.000 NA
ATOM     19  C   UNL     1       4.484  16.262  20.084  0.00  0.00    +0.000 C 
ATOM     20  C   UNL     1       4.239  14.769  19.768  0.00  0.00    +0.000 C 
ATOM     21  H   UNL     1       4.806  18.068  19.172  0.00  0.00    +0.000 HD
ENDBRANCH   9  15
ENDBRANCH   2   5
BRANCH   1  26
ATOM     22  C   UNL     1       4.498   5.141  16.859  0.00  0.00    +0.000 A 
ATOM     23  C   UNL     1       3.950   3.922  17.270  0.00  0.00    +0.000 A 
ATOM     24  C   UNL     1       2.765   3.896  17.999  0.00  0.00    +0.000 A 
ATOM     25  C   UNL     1       2.112   5.090  18.315  0.00  0.00    +0.000 A 
ATOM     26  C   UNL     1       2.644   6.328  17.966  0.00  0.00    +0.000 A 
ATOM     27  C   UNL     1       3.865   6.341  17.254  0.00  0.00    +0.000 A 
BRANCH  22  29
ATOM     28  C   UNL     1       5.737   4.152  14.877  0.00  0.00    +0.000 C 
ATOM     29  C   UNL     1       5.761   5.221  15.999  0.00  0.00    +0.000 C 
BRANCH  29  30
ATOM     30  C   UNL     1       7.019   5.138  16.870  0.00  0.00    +0.000 C 
BRANCH  30  31
ATOM     31  C   UNL     1       7.463   6.452  17.424  0.00  0.00    +0.000 A 
ATOM     32  N   UNL     1       7.427   7.634  16.838  0.00  0.00    +0.000 NA
ATOM     33  N   UNL     1       7.982   8.554  17.667  0.00  0.00    +0.000 NA
ATOM     34  C   UNL     1       8.333   7.925  18.786  0.00  0.00    +0.000 A 
ATOM     35  N   UNL     1       7.990   6.616  18.682  0.00  0.00    +0.000 N 
ATOM     36  C   UNL     1       8.143   5.611  19.696  0.00  0.00    +0.000 C 
ENDBRANCH  30  31
ENDBRANCH  29  30
ENDBRANCH  22  29
ENDBRANCH   1  26
TORSDOF 6
ENDMDL
