MODEL 1
REMARK VINA RESULT:      -8.5      0.000      0.000
REMARK  Name = 
REMARK  7 active torsions:
REMARK  status: ('A' for Active; 'I' for Inactive)
REMARK    1  A    between atoms: C_1  and  C_2
REMARK    2  A    between atoms: N_4  and  C_5
REMARK    3  A    between atoms: C_6  and  S_7
REMARK    4  A    between atoms: S_7  and  C_8
REMARK    5  A    between atoms: C_8  and  C_9
REMARK    6  A    between atoms: C_8  and  C_10
REMARK    7  A    between atoms: C_16  and  C_18
REMARK                            x       y       z     vdW  Elec       q    Type
REMARK                         _______ _______ _______ _____ _____    ______ ____
ROOT
ATOM      1  C   UNL     1       0.004  10.854  20.488  0.00  0.00    +0.000 A 
ATOM      2  C   UNL     1      -0.486  10.353  21.697  0.00  0.00    +0.000 A 
ATOM      3  C   UNL     1      -0.167   9.056  22.049  0.00  0.00    +0.000 A 
ATOM      4  N   UNL     1       0.598   8.252  21.292  0.00  0.00    +0.000 NA
ATOM      5  C   UNL     1       1.087   8.724  20.135  0.00  0.00    +0.000 A 
ATOM      6  N   UNL     1       1.921   7.912  19.355  0.00  0.00    +0.000 N 
ATOM      7  C   UNL     1       2.336   6.650  19.728  0.00  0.00    +0.000 C 
ATOM      8  O   UNL     1       2.077   6.053  20.765  0.00  0.00    +0.000 OA
ATOM      9  C   UNL     1       0.795  10.013  19.688  0.00  0.00    +0.000 A 
ATOM     10  H   UNL     1       2.282   8.240  18.470  0.00  0.00    +0.000 HD
ENDROOT
BRANCH   7  11
ATOM     11  C   UNL     1       3.152   5.936  18.706  0.00  0.00    +0.000 A 
ATOM     12  C   UNL     1       2.761   4.649  18.363  0.00  0.00    +0.000 A 
ATOM     13  C   UNL     1       3.405   4.022  17.314  0.00  0.00    +0.000 A 
ATOM     14  C   UNL     1       4.488   4.649  16.719  0.00  0.00    +0.000 A 
ATOM     15  C   UNL     1       5.188   4.003  15.691  0.00  0.00    +0.000 A 
ATOM     16  C   UNL     1       6.530   4.275  15.514  0.00  0.00    +0.000 A 
ATOM     17  C   UNL     1       7.044   5.443  16.057  0.00  0.00    +0.000 A 
ATOM     18  C   UNL     1       6.200   6.292  16.803  0.00  0.00    +0.000 A 
ATOM     19  C   UNL     1       4.953   5.885  17.241  0.00  0.00    +0.000 A 
ATOM     20  N   UNL     1       4.229   6.577  18.162  0.00  0.00    +0.000 NA
ENDBRANCH   7  11
BRANCH   1  21
ATOM     21  C   UNL     1      -0.356  12.274  20.088  0.00  0.00    +0.000 C 
ATOM     22  C   UNL     1       0.401  13.276  20.968  0.00  0.00    +0.000 C 
BRANCH  21  23
ATOM     23  S   UNL     1      -2.133  12.645  20.217  0.00  0.00    +0.000 S 
BRANCH  23  29
ATOM     24  C   UNL     1      -2.751  10.549  15.504  0.00  0.00    +0.000 C 
ATOM     25  C   UNL     1      -3.105  11.108  16.829  0.00  0.00    +0.000 A 
ATOM     26  C   UNL     1      -4.363  11.326  17.349  0.00  0.00    +0.000 A 
ATOM     27  N   UNL     1      -4.150  11.861  18.590  0.00  0.00    +0.000 N 
ATOM     28  C   UNL     1      -5.187  12.251  19.513  0.00  0.00    +0.000 C 
ATOM     29  C   UNL     1      -2.796  11.951  18.776  0.00  0.00    +0.000 A 
ATOM     30  N   UNL     1      -2.135  11.510  17.728  0.00  0.00    +0.000 NA
ENDBRANCH  23  29
ENDBRANCH  21  23
ENDBRANCH   1  21
TORSDOF 4
ENDMDL
MODEL 2
REMARK VINA RESULT:      -8.2      3.169      4.836
REMARK  Name = 
REMARK  7 active torsions:
REMARK  status: ('A' for Active; 'I' for Inactive)
REMARK    1  A    between atoms: C_1  and  C_2
REMARK    2  A    between atoms: N_4  and  C_5
REMARK    3  A    between atoms: C_6  and  S_7
REMARK    4  A    between atoms: S_7  and  C_8
REMARK    5  A    between atoms: C_8  and  C_9
REMARK    6  A    between atoms: C_8  and  C_10
REMARK    7  A    between atoms: C_16  and  C_18
REMARK                            x       y       z     vdW  Elec       q    Type
REMARK                         _______ _______ _______ _____ _____    ______ ____
ROOT
ATOM      1  C   UNL     1      -0.033  11.512  21.215  0.00  0.00    +0.000 A 
ATOM      2  C   UNL     1       0.136  12.547  20.293  0.00  0.00    +0.000 A 
ATOM      3  C   UNL     1       0.805  12.277  19.115  0.00  0.00    +0.000 A 
ATOM      4  N   UNL     1       1.295  11.066  18.806  0.00  0.00    +0.000 NA
ATOM      5  C   UNL     1       1.128  10.058  19.676  0.00  0.00    +0.000 A 
ATOM      6  N   UNL     1       1.597   8.778  19.349  0.00  0.00    +0.000 N 
ATOM      7  C   UNL     1       2.181   8.457  18.141  0.00  0.00    +0.000 C 
ATOM      8  O   UNL     1       2.366   9.193  17.180  0.00  0.00    +0.000 OA
ATOM      9  C   UNL     1       0.488  10.246  20.901  0.00  0.00    +0.000 A 
ATOM     10  H   UNL     1       1.501   8.010  19.999  0.00  0.00    +0.000 HD
ENDROOT
BRANCH   7  11
ATOM     11  C   UNL     1       2.680   7.056  18.044  0.00  0.00    +0.000 A 
ATOM     12  C   UNL     1       3.956   6.867  17.530  0.00  0.00    +0.000 A 
ATOM     13  C   UNL     1       4.500   5.598  17.569  0.00  0.00    +0.000 A 
ATOM     14  C   UNL     1       3.717   4.543  18.010  0.00  0.00    +0.000 A 
ATOM     15  C   UNL     1       4.235   3.242  18.002  0.00  0.00    +0.000 A 
ATOM     16  C   UNL     1       3.374   2.174  17.842  0.00  0.00    +0.000 A 
ATOM     17  C   UNL     1       2.026   2.368  18.102  0.00  0.00    +0.000 A 
ATOM     18  C   UNL     1       1.569   3.648  18.479  0.00  0.00    +0.000 A 
ATOM     19  C   UNL     1       2.357   4.777  18.346  0.00  0.00    +0.000 A 
ATOM     20  N   UNL     1       1.867   6.041  18.462  0.00  0.00    +0.000 NA
ENDBRANCH   7  11
BRANCH   1  21
ATOM     21  C   UNL     1      -0.755  11.806  22.519  0.00  0.00    +0.000 C 
ATOM     22  C   UNL     1      -1.092  10.497  23.242  0.00  0.00    +0.000 C 
BRANCH  21  23
ATOM     23  S   UNL     1      -2.301  12.744  22.306  0.00  0.00    +0.000 S 
BRANCH  23  29
ATOM     24  C   UNL     1      -0.755  15.962  26.080  0.00  0.00    +0.000 C 
ATOM     25  C   UNL     1      -1.666  15.222  25.178  0.00  0.00    +0.000 A 
ATOM     26  C   UNL     1      -3.045  15.221  25.179  0.00  0.00    +0.000 A 
ATOM     27  N   UNL     1      -3.404  14.377  24.164  0.00  0.00    +0.000 N 
ATOM     28  C   UNL     1      -4.759  14.064  23.786  0.00  0.00    +0.000 C 
ATOM     29  C   UNL     1      -2.252  13.900  23.595  0.00  0.00    +0.000 A 
ATOM     30  N   UNL     1      -1.184  14.386  24.188  0.00  0.00    +0.000 NA
ENDBRANCH  23  29
ENDBRANCH  21  23
ENDBRANCH   1  21
TORSDOF 4
ENDMDL
MODEL 3
REMARK VINA RESULT:      -8.0      2.638      3.524
REMARK  Name = 
REMARK  7 active torsions:
REMARK  status: ('A' for Active; 'I' for Inactive)
REMARK    1  A    between atoms: C_1  and  C_2
REMARK    2  A    between atoms: N_4  and  C_5
REMARK    3  A    between atoms: C_6  and  S_7
REMARK    4  A    between atoms: S_7  and  C_8
REMARK    5  A    between atoms: C_8  and  C_9
REMARK    6  A    between atoms: C_8  and  C_10
REMARK    7  A    between atoms: C_16  and  C_18
REMARK                            x       y       z     vdW  Elec       q    Type
REMARK                         _______ _______ _______ _____ _____    ______ ____
ROOT
ATOM      1  C   UNL     1       0.316  10.868  20.827  0.00  0.00    +0.000 A 
ATOM      2  C   UNL     1      -0.360  10.340  21.930  0.00  0.00    +0.000 A 
ATOM      3  C   UNL     1      -0.230   8.991  22.198  0.00  0.00    +0.000 A 
ATOM      4  N   UNL     1       0.520   8.160  21.456  0.00  0.00    +0.000 NA
ATOM      5  C   UNL     1       1.186   8.655  20.401  0.00  0.00    +0.000 A 
ATOM      6  N   UNL     1       2.006   7.809  19.642  0.00  0.00    +0.000 N 
ATOM      7  C   UNL     1       2.231   6.482  19.943  0.00  0.00    +0.000 C 
ATOM      8  O   UNL     1       1.792   5.844  20.891  0.00  0.00    +0.000 OA
ATOM      9  C   UNL     1       1.092  10.000  20.041  0.00  0.00    +0.000 A 
ATOM     10  H   UNL     1       2.498   8.157  18.831  0.00  0.00    +0.000 HD
ENDROOT
BRANCH   7  11
ATOM     11  C   UNL     1       3.071   5.753  18.951  0.00  0.00    +0.000 A 
ATOM     12  C   UNL     1       3.281   4.398  19.166  0.00  0.00    +0.000 A 
ATOM     13  C   UNL     1       3.927   3.668  18.187  0.00  0.00    +0.000 A 
ATOM     14  C   UNL     1       4.441   4.330  17.083  0.00  0.00    +0.000 A 
ATOM     15  C   UNL     1       5.148   3.613  16.109  0.00  0.00    +0.000 A 
ATOM     16  C   UNL     1       6.135   4.252  15.384  0.00  0.00    +0.000 A 
ATOM     17  C   UNL     1       6.126   5.638  15.336  0.00  0.00    +0.000 A 
ATOM     18  C   UNL     1       5.145   6.351  16.055  0.00  0.00    +0.000 A 
ATOM     19  C   UNL     1       4.354   5.746  17.015  0.00  0.00    +0.000 A 
ATOM     20  N   UNL     1       3.584   6.446  17.891  0.00  0.00    +0.000 NA
ENDBRANCH   7  11
BRANCH   1  21
ATOM     21  C   UNL     1       0.166  12.347  20.520  0.00  0.00    +0.000 C 
ATOM     22  C   UNL     1      -1.134  12.883  21.130  0.00  0.00    +0.000 C 
BRANCH  21  23
ATOM     23  S   UNL     1       0.148  12.729  18.740  0.00  0.00    +0.000 S 
BRANCH  23  29
ATOM     24  C   UNL     1       4.903  14.679  17.986  0.00  0.00    +0.000 C 
ATOM     25  C   UNL     1       3.449  14.643  18.261  0.00  0.00    +0.000 A 
ATOM     26  C   UNL     1       2.616  15.698  18.562  0.00  0.00    +0.000 A 
ATOM     27  N   UNL     1       1.378  15.141  18.736  0.00  0.00    +0.000 N 
ATOM     28  C   UNL     1       0.179  15.870  19.066  0.00  0.00    +0.000 C 
ATOM     29  C   UNL     1       1.502  13.790  18.541  0.00  0.00    +0.000 A 
ATOM     30  N   UNL     1       2.742  13.455  18.258  0.00  0.00    +0.000 NA
ENDBRANCH  23  29
ENDBRANCH  21  23
ENDBRANCH   1  21
TORSDOF 4
ENDMDL
MODEL 4
REMARK VINA RESULT:      -8.0      3.157     10.032
REMARK  Name = 
REMARK  7 active torsions:
REMARK  status: ('A' for Active; 'I' for Inactive)
REMARK    1  A    between atoms: C_1  and  C_2
REMARK    2  A    between atoms: N_4  and  C_5
REMARK    3  A    between atoms: C_6  and  S_7
REMARK    4  A    between atoms: S_7  and  C_8
REMARK    5  A    between atoms: C_8  and  C_9
REMARK    6  A    between atoms: C_8  and  C_10
REMARK    7  A    between atoms: C_16  and  C_18
REMARK                            x       y       z     vdW  Elec       q    Type
REMARK                         _______ _______ _______ _____ _____    ______ ____
ROOT
ATOM      1  C   UNL     1       2.691   6.647  18.850  0.00  0.00    +0.000 A 
ATOM      2  C   UNL     1       3.248   7.329  17.766  0.00  0.00    +0.000 A 
ATOM      3  C   UNL     1       2.869   8.639  17.547  0.00  0.00    +0.000 A 
ATOM      4  N   UNL     1       1.996   9.296  18.329  0.00  0.00    +0.000 NA
ATOM      5  C   UNL     1       1.463   8.658  19.383  0.00  0.00    +0.000 A 
ATOM      6  N   UNL     1       0.584   9.343  20.232  0.00  0.00    +0.000 N 
ATOM      7  C   UNL     1       0.263  10.677  20.095  0.00  0.00    +0.000 C 
ATOM      8  O   UNL     1       0.684  11.467  19.259  0.00  0.00    +0.000 OA
ATOM      9  C   UNL     1       1.769   7.326  19.664  0.00  0.00    +0.000 A 
ATOM     10  H   UNL     1       0.155   8.874  21.018  0.00  0.00    +0.000 HD
ENDROOT
BRANCH   7  11
ATOM     11  C   UNL     1      -0.757  11.174  21.061  0.00  0.00    +0.000 A 
ATOM     12  C   UNL     1      -0.678  10.711  22.367  0.00  0.00    +0.000 A 
ATOM     13  C   UNL     1      -1.514  11.268  23.316  0.00  0.00    +0.000 A 
ATOM     14  C   UNL     1      -2.475  12.182  22.912  0.00  0.00    +0.000 A 
ATOM     15  C   UNL     1      -3.366  12.714  23.852  0.00  0.00    +0.000 A 
ATOM     16  C   UNL     1      -4.627  13.102  23.442  0.00  0.00    +0.000 A 
ATOM     17  C   UNL     1      -4.838  13.342  22.092  0.00  0.00    +0.000 A 
ATOM     18  C   UNL     1      -3.781  13.145  21.180  0.00  0.00    +0.000 A 
ATOM     19  C   UNL     1      -2.623  12.474  21.530  0.00  0.00    +0.000 A 
ATOM     20  N   UNL     1      -1.705  12.053  20.619  0.00  0.00    +0.000 NA
ENDBRANCH   7  11
BRANCH   1  21
ATOM     21  C   UNL     1       3.094   5.202  19.088  0.00  0.00    +0.000 C 
ATOM     22  C   UNL     1       2.227   4.589  20.194  0.00  0.00    +0.000 C 
BRANCH  21  23
ATOM     23  S   UNL     1       4.839   4.994  19.562  0.00  0.00    +0.000 S 
BRANCH  23  29
ATOM     24  C   UNL     1       6.038   3.832  14.643  0.00  0.00    +0.000 C 
ATOM     25  C   UNL     1       6.202   4.327  16.028  0.00  0.00    +0.000 A 
ATOM     26  C   UNL     1       7.339   4.833  16.620  0.00  0.00    +0.000 A 
ATOM     27  N   UNL     1       6.973   5.138  17.902  0.00  0.00    +0.000 N 
ATOM     28  C   UNL     1       7.845   5.702  18.902  0.00  0.00    +0.000 C 
ATOM     29  C   UNL     1       5.650   4.810  18.043  0.00  0.00    +0.000 A 
ATOM     30  N   UNL     1       5.155   4.311  16.931  0.00  0.00    +0.000 NA
ENDBRANCH  23  29
ENDBRANCH  21  23
ENDBRANCH   1  21
TORSDOF 4
ENDMDL
MODEL 5
REMARK VINA RESULT:      -8.0      2.240      3.229
REMARK  Name = 
REMARK  7 active torsions:
REMARK  status: ('A' for Active; 'I' for Inactive)
REMARK    1  A    between atoms: C_1  and  C_2
REMARK    2  A    between atoms: N_4  and  C_5
REMARK    3  A    between atoms: C_6  and  S_7
REMARK    4  A    between atoms: S_7  and  C_8
REMARK    5  A    between atoms: C_8  and  C_9
REMARK    6  A    between atoms: C_8  and  C_10
REMARK    7  A    between atoms: C_16  and  C_18
REMARK                            x       y       z     vdW  Elec       q    Type
REMARK                         _______ _______ _______ _____ _____    ______ ____
ROOT
ATOM      1  C   UNL     1      -1.810  12.329  21.174  0.00  0.00    +0.000 A 
ATOM      2  C   UNL     1      -1.910  12.098  22.548  0.00  0.00    +0.000 A 
ATOM      3  C   UNL     1      -1.228  11.023  23.086  0.00  0.00    +0.000 A 
ATOM      4  N   UNL     1      -0.466  10.192  22.356  0.00  0.00    +0.000 NA
ATOM      5  C   UNL     1      -0.350  10.410  21.036  0.00  0.00    +0.000 A 
ATOM      6  N   UNL     1       0.475   9.576  20.269  0.00  0.00    +0.000 N 
ATOM      7  C   UNL     1       1.242   8.558  20.793  0.00  0.00    +0.000 C 
ATOM      8  O   UNL     1       1.350   8.230  21.968  0.00  0.00    +0.000 OA
ATOM      9  C   UNL     1      -1.024  11.456  20.404  0.00  0.00    +0.000 A 
ATOM     10  H   UNL     1       0.558   9.710  19.270  0.00  0.00    +0.000 HD
ENDROOT
BRANCH   7  11
ATOM     11  C   UNL     1       1.977   7.748  19.781  0.00  0.00    +0.000 A 
ATOM     12  C   UNL     1       2.310   8.370  18.585  0.00  0.00    +0.000 A 
ATOM     13  C   UNL     1       3.119   7.693  17.693  0.00  0.00    +0.000 A 
ATOM     14  C   UNL     1       3.475   6.382  17.969  0.00  0.00    +0.000 A 
ATOM     15  C   UNL     1       4.248   5.664  17.048  0.00  0.00    +0.000 A 
ATOM     16  C   UNL     1       4.110   4.291  16.977  0.00  0.00    +0.000 A 
ATOM     17  C   UNL     1       3.545   3.627  18.056  0.00  0.00    +0.000 A 
ATOM     18  C   UNL     1       3.094   4.369  19.168  0.00  0.00    +0.000 A 
ATOM     19  C   UNL     1       2.947   5.744  19.122  0.00  0.00    +0.000 A 
ATOM     20  N   UNL     1       2.285   6.451  20.078  0.00  0.00    +0.000 NA
ENDBRANCH   7  11
BRANCH   1  21
ATOM     21  C   UNL     1      -2.569  13.500  20.575  0.00  0.00    +0.000 C 
ATOM     22  C   UNL     1      -1.663  14.734  20.503  0.00  0.00    +0.000 C 
BRANCH  21  23
ATOM     23  S   UNL     1      -4.066  13.958  21.504  0.00  0.00    +0.000 S 
BRANCH  23  29
ATOM     24  C   UNL     1      -6.771  10.573  18.638  0.00  0.00    +0.000 C 
ATOM     25  C   UNL     1      -6.423  11.463  19.769  0.00  0.00    +0.000 A 
ATOM     26  C   UNL     1      -7.173  11.743  20.891  0.00  0.00    +0.000 A 
ATOM     27  N   UNL     1      -6.418  12.621  21.619  0.00  0.00    +0.000 N 
ATOM     28  C   UNL     1      -6.802  13.194  22.885  0.00  0.00    +0.000 C 
ATOM     29  C   UNL     1      -5.258  12.843  20.924  0.00  0.00    +0.000 A 
ATOM     30  N   UNL     1      -5.231  12.163  19.799  0.00  0.00    +0.000 NA
ENDBRANCH  23  29
ENDBRANCH  21  23
ENDBRANCH   1  21
TORSDOF 4
ENDMDL
MODEL 6
REMARK VINA RESULT:      -7.9      2.394      3.666
REMARK  Name = 
REMARK  7 active torsions:
REMARK  status: ('A' for Active; 'I' for Inactive)
REMARK    1  A    between atoms: C_1  and  C_2
REMARK    2  A    between atoms: N_4  and  C_5
REMARK    3  A    between atoms: C_6  and  S_7
REMARK    4  A    between atoms: S_7  and  C_8
REMARK    5  A    between atoms: C_8  and  C_9
REMARK    6  A    between atoms: C_8  and  C_10
REMARK    7  A    between atoms: C_16  and  C_18
REMARK                            x       y       z     vdW  Elec       q    Type
REMARK                         _______ _______ _______ _____ _____    ______ ____
ROOT
ATOM      1  C   UNL     1      -0.207  12.144  21.063  0.00  0.00    +0.000 A 
ATOM      2  C   UNL     1      -0.114  12.961  19.934  0.00  0.00    +0.000 A 
ATOM      3  C   UNL     1       0.512  12.462  18.809  0.00  0.00    +0.000 A 
ATOM      4  N   UNL     1       1.032  11.225  18.741  0.00  0.00    +0.000 NA
ATOM      5  C   UNL     1       0.938  10.423  19.813  0.00  0.00    +0.000 A 
ATOM      6  N   UNL     1       1.437   9.115  19.743  0.00  0.00    +0.000 N 
ATOM      7  C   UNL     1       1.979   8.558  18.604  0.00  0.00    +0.000 C 
ATOM      8  O   UNL     1       2.097   9.075  17.500  0.00  0.00    +0.000 OA
ATOM      9  C   UNL     1       0.345  10.853  21.000  0.00  0.00    +0.000 A 
ATOM     10  H   UNL     1       1.396   8.503  20.546  0.00  0.00    +0.000 HD
ENDROOT
BRANCH   7  11
ATOM     11  C   UNL     1       2.522   7.182  18.782  0.00  0.00    +0.000 A 
ATOM     12  C   UNL     1       3.342   6.684  17.779  0.00  0.00    +0.000 A 
ATOM     13  C   UNL     1       3.979   5.475  17.986  0.00  0.00    +0.000 A 
ATOM     14  C   UNL     1       3.690   4.752  19.133  0.00  0.00    +0.000 A 
ATOM     15  C   UNL     1       4.285   3.499  19.332  0.00  0.00    +0.000 A 
ATOM     16  C   UNL     1       3.613   2.543  20.069  0.00  0.00    +0.000 A 
ATOM     17  C   UNL     1       2.598   2.957  20.918  0.00  0.00    +0.000 A 
ATOM     18  C   UNL     1       2.254   4.324  20.974  0.00  0.00    +0.000 A 
ATOM     19  C   UNL     1       2.701   5.232  20.031  0.00  0.00    +0.000 A 
ATOM     20  N   UNL     1       2.193   6.489  19.913  0.00  0.00    +0.000 NA
ENDBRANCH   7  11
BRANCH   1  21
ATOM     21  C   UNL     1      -0.882  12.692  22.308  0.00  0.00    +0.000 C 
ATOM     22  C   UNL     1      -1.707  11.593  22.988  0.00  0.00    +0.000 C 
BRANCH  21  23
ATOM     23  S   UNL     1      -1.986  14.102  21.983  0.00  0.00    +0.000 S 
BRANCH  23  29
ATOM     24  C   UNL     1      -5.637  11.756  19.127  0.00  0.00    +0.000 C 
ATOM     25  C   UNL     1      -4.996  12.409  20.292  0.00  0.00    +0.000 A 
ATOM     26  C   UNL     1      -5.561  12.712  21.512  0.00  0.00    +0.000 A 
ATOM     27  N   UNL     1      -4.564  13.310  22.231  0.00  0.00    +0.000 N 
ATOM     28  C   UNL     1      -4.694  13.800  23.581  0.00  0.00    +0.000 C 
ATOM     29  C   UNL     1      -3.448  13.352  21.436  0.00  0.00    +0.000 A 
ATOM     30  N   UNL     1      -3.677  12.821  20.255  0.00  0.00    +0.000 NA
ENDBRANCH  23  29
ENDBRANCH  21  23
ENDBRANCH   1  21
TORSDOF 4
ENDMDL
MODEL 7
REMARK VINA RESULT:      -7.9      3.430      9.324
REMARK  Name = 
REMARK  7 active torsions:
REMARK  status: ('A' for Active; 'I' for Inactive)
REMARK    1  A    between atoms: C_1  and  C_2
REMARK    2  A    between atoms: N_4  and  C_5
REMARK    3  A    between atoms: C_6  and  S_7
REMARK    4  A    between atoms: S_7  and  C_8
REMARK    5  A    between atoms: C_8  and  C_9
REMARK    6  A    between atoms: C_8  and  C_10
REMARK    7  A    between atoms: C_16  and  C_18
REMARK                            x       y       z     vdW  Elec       q    Type
REMARK                         _______ _______ _______ _____ _____    ______ ____
ROOT
ATOM      1  C   UNL     1       2.320   6.483  18.911  0.00  0.00    +0.000 A 
ATOM      2  C   UNL     1       1.871   6.035  20.155  0.00  0.00    +0.000 A 
ATOM      3  C   UNL     1       1.366   6.963  21.046  0.00  0.00    +0.000 A 
ATOM      4  N   UNL     1       1.277   8.275  20.773  0.00  0.00    +0.000 NA
ATOM      5  C   UNL     1       1.692   8.718  19.576  0.00  0.00    +0.000 A 
ATOM      6  N   UNL     1       1.565  10.078  19.261  0.00  0.00    +0.000 N 
ATOM      7  C   UNL     1       0.976  11.009  20.091  0.00  0.00    +0.000 C 
ATOM      8  O   UNL     1       0.466  10.819  21.187  0.00  0.00    +0.000 OA
ATOM      9  C   UNL     1       2.240   7.856  18.625  0.00  0.00    +0.000 A 
ATOM     10  H   UNL     1       1.892  10.435  18.374  0.00  0.00    +0.000 HD
ENDROOT
BRANCH   7  11
ATOM     11  C   UNL     1       1.027  12.411  19.587  0.00  0.00    +0.000 A 
ATOM     12  C   UNL     1      -0.182  13.033  19.309  0.00  0.00    +0.000 A 
ATOM     13  C   UNL     1      -0.173  14.377  18.986  0.00  0.00    +0.000 A 
ATOM     14  C   UNL     1       1.044  15.025  18.840  0.00  0.00    +0.000 A 
ATOM     15  C   UNL     1       1.072  16.373  18.459  0.00  0.00    +0.000 A 
ATOM     16  C   UNL     1       2.155  16.850  17.746  0.00  0.00    +0.000 A 
ATOM     17  C   UNL     1       3.339  16.128  17.782  0.00  0.00    +0.000 A 
ATOM     18  C   UNL     1       3.391  14.917  18.504  0.00  0.00    +0.000 A 
ATOM     19  C   UNL     1       2.249  14.283  18.958  0.00  0.00    +0.000 A 
ATOM     20  N   UNL     1       2.247  13.007  19.430  0.00  0.00    +0.000 NA
ENDBRANCH   7  11
BRANCH   1  21
ATOM     21  C   UNL     1       2.890   5.470  17.933  0.00  0.00    +0.000 C 
ATOM     22  C   UNL     1       1.863   4.365  17.661  0.00  0.00    +0.000 C 
BRANCH  21  23
ATOM     23  S   UNL     1       4.425   4.678  18.508  0.00  0.00    +0.000 S 
BRANCH  23  29
ATOM     24  C   UNL     1       6.070   3.815  13.657  0.00  0.00    +0.000 C 
ATOM     25  C   UNL     1       6.114   4.194  15.087  0.00  0.00    +0.000 A 
ATOM     26  C   UNL     1       7.209   4.584  15.829  0.00  0.00    +0.000 A 
ATOM     27  N   UNL     1       6.727   4.814  17.088  0.00  0.00    +0.000 N 
ATOM     28  C   UNL     1       7.518   5.247  18.213  0.00  0.00    +0.000 C 
ATOM     29  C   UNL     1       5.381   4.558  17.069  0.00  0.00    +0.000 A 
ATOM     30  N   UNL     1       4.979   4.175  15.876  0.00  0.00    +0.000 NA
ENDBRANCH  23  29
ENDBRANCH  21  23
ENDBRANCH   1  21
TORSDOF 4
ENDMDL
MODEL 8
REMARK VINA RESULT:      -7.9      3.334      9.334
REMARK  Name = 
REMARK  7 active torsions:
REMARK  status: ('A' for Active; 'I' for Inactive)
REMARK    1  A    between atoms: C_1  and  C_2
REMARK    2  A    between atoms: N_4  and  C_5
REMARK    3  A    between atoms: C_6  and  S_7
REMARK    4  A    between atoms: S_7  and  C_8
REMARK    5  A    between atoms: C_8  and  C_9
REMARK    6  A    between atoms: C_8  and  C_10
REMARK    7  A    between atoms: C_16  and  C_18
REMARK                            x       y       z     vdW  Elec       q    Type
REMARK                         _______ _______ _______ _____ _____    ______ ____
ROOT
ATOM      1  C   UNL     1       2.584   5.714  18.652  0.00  0.00    +0.000 A 
ATOM      2  C   UNL     1       2.277   5.158  19.896  0.00  0.00    +0.000 A 
ATOM      3  C   UNL     1       1.741   5.978  20.870  0.00  0.00    +0.000 A 
ATOM      4  N   UNL     1       1.490   7.284  20.679  0.00  0.00    +0.000 NA
ATOM      5  C   UNL     1       1.767   7.829  19.484  0.00  0.00    +0.000 A 
ATOM      6  N   UNL     1       1.473   9.180  19.257  0.00  0.00    +0.000 N 
ATOM      7  C   UNL     1       0.849   9.998  20.176  0.00  0.00    +0.000 C 
ATOM      8  O   UNL     1       0.443   9.698  21.292  0.00  0.00    +0.000 OA
ATOM      9  C   UNL     1       2.335   7.082  18.452  0.00  0.00    +0.000 A 
ATOM     10  H   UNL     1       1.694   9.616  18.372  0.00  0.00    +0.000 HD
ENDROOT
BRANCH   7  11
ATOM     11  C   UNL     1       0.712  11.420  19.752  0.00  0.00    +0.000 A 
ATOM     12  C   UNL     1      -0.394  11.752  18.981  0.00  0.00    +0.000 A 
ATOM     13  C   UNL     1      -0.626  13.085  18.702  0.00  0.00    +0.000 A 
ATOM     14  C   UNL     1       0.309  14.028  19.099  0.00  0.00    +0.000 A 
ATOM     15  C   UNL     1       0.117  15.377  18.775  0.00  0.00    +0.000 A 
ATOM     16  C   UNL     1       1.218  16.193  18.603  0.00  0.00    +0.000 A 
ATOM     17  C   UNL     1       2.430  15.789  19.143  0.00  0.00    +0.000 A 
ATOM     18  C   UNL     1       2.513  14.549  19.810  0.00  0.00    +0.000 A 
ATOM     19  C   UNL     1       1.511  13.600  19.722  0.00  0.00    +0.000 A 
ATOM     20  N   UNL     1       1.669  12.315  20.140  0.00  0.00    +0.000 NA
ENDBRANCH   7  11
BRANCH   1  21
ATOM     21  C   UNL     1       3.187   4.820  17.582  0.00  0.00    +0.000 C 
ATOM     22  C   UNL     1       2.367   3.532  17.448  0.00  0.00    +0.000 C 
BRANCH  21  23
ATOM     23  S   UNL     1       4.916   4.354  17.906  0.00  0.00    +0.000 S 
BRANCH  23  29
ATOM     24  C   UNL     1       6.274   3.595  12.949  0.00  0.00    +0.000 C 
ATOM     25  C   UNL     1       6.276   4.172  14.313  0.00  0.00    +0.000 A 
ATOM     26  C   UNL     1       7.119   5.133  14.827  0.00  0.00    +0.000 A 
ATOM     27  N   UNL     1       6.715   5.310  16.122  0.00  0.00    +0.000 N 
ATOM     28  C   UNL     1       7.312   6.229  17.059  0.00  0.00    +0.000 C 
ATOM     29  C   UNL     1       5.662   4.462  16.346  0.00  0.00    +0.000 A 
ATOM     30  N   UNL     1       5.374   3.756  15.275  0.00  0.00    +0.000 NA
ENDBRANCH  23  29
ENDBRANCH  21  23
ENDBRANCH   1  21
TORSDOF 4
ENDMDL
MODEL 9
REMARK VINA RESULT:      -7.9      1.546      2.431
REMARK  Name = 
REMARK  7 active torsions:
REMARK  status: ('A' for Active; 'I' for Inactive)
REMARK    1  A    between atoms: C_1  and  C_2
REMARK    2  A    between atoms: N_4  and  C_5
REMARK    3  A    between atoms: C_6  and  S_7
REMARK    4  A    between atoms: S_7  and  C_8
REMARK    5  A    between atoms: C_8  and  C_9
REMARK    6  A    between atoms: C_8  and  C_10
REMARK    7  A    between atoms: C_16  and  C_18
REMARK                            x       y       z     vdW  Elec       q    Type
REMARK                         _______ _______ _______ _____ _____    ______ ____
ROOT
ATOM      1  C   UNL     1      -0.498  11.996  22.008  0.00  0.00    +0.000 A 
ATOM      2  C   UNL     1      -1.120  11.293  23.042  0.00  0.00    +0.000 A 
ATOM      3  C   UNL     1      -0.931   9.926  23.117  0.00  0.00    +0.000 A 
ATOM      4  N   UNL     1      -0.171   9.238  22.249  0.00  0.00    +0.000 NA
ATOM      5  C   UNL     1       0.444   9.902  21.258  0.00  0.00    +0.000 A 
ATOM      6  N   UNL     1       1.273   9.203  20.369  0.00  0.00    +0.000 N 
ATOM      7  C   UNL     1       1.558   7.859  20.478  0.00  0.00    +0.000 C 
ATOM      8  O   UNL     1       1.171   7.078  21.338  0.00  0.00    +0.000 OA
ATOM      9  C   UNL     1       0.288  11.278  21.091  0.00  0.00    +0.000 A 
ATOM     10  H   UNL     1       1.728   9.681  19.603  0.00  0.00    +0.000 HD
ENDROOT
BRANCH   7  11
ATOM     11  C   UNL     1       2.396   7.309  19.374  0.00  0.00    +0.000 A 
ATOM     12  C   UNL     1       2.579   8.108  18.254  0.00  0.00    +0.000 A 
ATOM     13  C   UNL     1       3.471   7.689  17.284  0.00  0.00    +0.000 A 
ATOM     14  C   UNL     1       4.061   6.441  17.408  0.00  0.00    +0.000 A 
ATOM     15  C   UNL     1       4.924   5.979  16.406  0.00  0.00    +0.000 A 
ATOM     16  C   UNL     1       5.029   4.620  16.181  0.00  0.00    +0.000 A 
ATOM     17  C   UNL     1       4.622   3.751  17.183  0.00  0.00    +0.000 A 
ATOM     18  C   UNL     1       4.077   4.274  18.375  0.00  0.00    +0.000 A 
ATOM     19  C   UNL     1       3.687   5.596  18.486  0.00  0.00    +0.000 A 
ATOM     20  N   UNL     1       2.938   6.064  19.521  0.00  0.00    +0.000 NA
ENDBRANCH   7  11
BRANCH   1  21
ATOM     21  C   UNL     1      -0.714  13.496  21.913  0.00  0.00    +0.000 C 
ATOM     22  C   UNL     1      -0.879  14.095  23.314  0.00  0.00    +0.000 C 
BRANCH  21  23
ATOM     23  S   UNL     1      -2.169  13.967  20.926  0.00  0.00    +0.000 S 
BRANCH  23  29
ATOM     24  C   UNL     1      -3.063  10.029  17.658  0.00  0.00    +0.000 C 
ATOM     25  C   UNL     1      -2.437  11.247  18.221  0.00  0.00    +0.000 A 
ATOM     26  C   UNL     1      -1.354  11.947  17.734  0.00  0.00    +0.000 A 
ATOM     27  N   UNL     1      -1.167  12.978  18.614  0.00  0.00    +0.000 N 
ATOM     28  C   UNL     1      -0.139  13.983  18.507  0.00  0.00    +0.000 C 
ATOM     29  C   UNL     1      -2.123  12.868  19.589  0.00  0.00    +0.000 A 
ATOM     30  N   UNL     1      -2.903  11.828  19.385  0.00  0.00    +0.000 NA
ENDBRANCH  23  29
ENDBRANCH  21  23
ENDBRANCH   1  21
TORSDOF 4
ENDMDL
