MODEL 1
REMARK VINA RESULT:      -8.8      0.000      0.000
REMARK  Name = 
REMARK  6 active torsions:
REMARK  status: ('A' for Active; 'I' for Inactive)
REMARK    1  A    between atoms: C_1  and  C_2
REMARK    2  A    between atoms: C_2  and  C_3
REMARK    3  A    between atoms: C_2  and  C_10
REMARK    4  A    between atoms: C_3  and  C_4
REMARK    5  A    between atoms: N_8  and  C_9
REMARK    6  A    between atoms: C_22  and  C_23
REMARK                            x       y       z     vdW  Elec       q    Type
REMARK                         _______ _______ _______ _____ _____    ______ ____
ROOT
ATOM      1  C   UNL     1       0.498  10.391  19.793  0.00  0.00    +0.000 A 
ATOM      2  C   UNL     1       0.535  10.388  21.191  0.00  0.00    +0.000 A 
ATOM      3  C   UNL     1       1.120   9.322  21.845  0.00  0.00    +0.000 A 
ATOM      4  N   UNL     1       1.604   8.238  21.212  0.00  0.00    +0.000 NA
ATOM      5  C   UNL     1       1.637   8.264  19.862  0.00  0.00    +0.000 A 
ATOM      6  N   UNL     1       2.118   7.111  19.238  0.00  0.00    +0.000 N 
ATOM      7  C   UNL     1       1.853   5.818  19.824  0.00  0.00    +0.000 C 
ATOM      8  C   UNL     1       2.607   4.884  18.932  0.00  0.00    +0.000 A 
ATOM      9  C   UNL     1       3.354   5.631  18.017  0.00  0.00    +0.000 A 
ATOM     10  C   UNL     1       4.238   5.040  17.132  0.00  0.00    +0.000 A 
ATOM     11  C   UNL     1       4.332   3.647  17.149  0.00  0.00    +0.000 A 
ATOM     12  C   UNL     1       3.533   2.883  18.023  0.00  0.00    +0.000 A 
ATOM     13  C   UNL     1       2.650   3.495  18.933  0.00  0.00    +0.000 A 
ATOM     14  C   UNL     1       3.011   7.058  18.184  0.00  0.00    +0.000 C 
ATOM     15  O   UNL     1       3.479   7.955  17.504  0.00  0.00    +0.000 OA
ATOM     16  C   UNL     1       1.114   9.321  19.120  0.00  0.00    +0.000 A 
ENDROOT
BRANCH  13  17
ATOM     17  C   UNL     1       1.781   2.651  19.829  0.00  0.00    +0.000 C 
ATOM     18  F   UNL     1       0.466   3.003  19.810  0.00  0.00    +0.000 F 
ATOM     19  F   UNL     1       1.812   1.335  19.479  0.00  0.00    +0.000 F 
ATOM     20  F   UNL     1       2.164   2.704  21.132  0.00  0.00    +0.000 F 
ENDBRANCH  13  17
BRANCH   1  22
ATOM     21  C   UNL     1       0.293  12.901  19.377  0.00  0.00    +0.000 C 
ATOM     22  C   UNL     1      -0.214  11.495  19.015  0.00  0.00    +0.000 C 
BRANCH  22  23
ATOM     23  C   UNL     1      -1.763  11.410  19.090  0.00  0.00    +0.000 C 
BRANCH  23  24
ATOM     24  C   UNL     1      -2.393  10.928  17.824  0.00  0.00    +0.000 A 
ATOM     25  N   UNL     1      -1.814  10.192  16.896  0.00  0.00    +0.000 NA
ATOM     26  N   UNL     1      -2.653  10.136  15.809  0.00  0.00    +0.000 NA
ATOM     27  C   UNL     1      -3.739  10.805  16.112  0.00  0.00    +0.000 A 
ATOM     28  N   UNL     1      -3.658  11.240  17.398  0.00  0.00    +0.000 N 
ATOM     29  C   UNL     1      -4.704  11.886  18.140  0.00  0.00    +0.000 C 
ENDBRANCH  23  24
ENDBRANCH  22  23
ENDBRANCH   1  22
TORSDOF 4
ENDMDL
MODEL 2
REMARK VINA RESULT:      -8.8      0.953      1.198
REMARK  Name = 
REMARK  6 active torsions:
REMARK  status: ('A' for Active; 'I' for Inactive)
REMARK    1  A    between atoms: C_1  and  C_2
REMARK    2  A    between atoms: C_2  and  C_3
REMARK    3  A    between atoms: C_2  and  C_10
REMARK    4  A    between atoms: C_3  and  C_4
REMARK    5  A    between atoms: N_8  and  C_9
REMARK    6  A    between atoms: C_22  and  C_23
REMARK                            x       y       z     vdW  Elec       q    Type
REMARK                         _______ _______ _______ _____ _____    ______ ____
ROOT
ATOM      1  C   UNL     1      -0.221  10.903  19.813  0.00  0.00    +0.000 A 
ATOM      2  C   UNL     1      -0.093  11.129  21.188  0.00  0.00    +0.000 A 
ATOM      3  C   UNL     1       0.665  10.257  21.944  0.00  0.00    +0.000 A 
ATOM      4  N   UNL     1       1.241   9.148  21.443  0.00  0.00    +0.000 NA
ATOM      5  C   UNL     1       1.183   8.960  20.107  0.00  0.00    +0.000 A 
ATOM      6  N   UNL     1       1.764   7.786  19.626  0.00  0.00    +0.000 N 
ATOM      7  C   UNL     1       1.706   6.581  20.421  0.00  0.00    +0.000 C 
ATOM      8  C   UNL     1       2.513   5.610  19.620  0.00  0.00    +0.000 A 
ATOM      9  C   UNL     1       3.097   6.282  18.543  0.00  0.00    +0.000 A 
ATOM     10  C   UNL     1       3.990   5.663  17.687  0.00  0.00    +0.000 A 
ATOM     11  C   UNL     1       4.261   4.312  17.906  0.00  0.00    +0.000 A 
ATOM     12  C   UNL     1       3.625   3.610  18.949  0.00  0.00    +0.000 A 
ATOM     13  C   UNL     1       2.732   4.254  19.828  0.00  0.00    +0.000 A 
ATOM     14  C   UNL     1       2.586   7.668  18.520  0.00  0.00    +0.000 C 
ATOM     15  O   UNL     1       2.891   8.493  17.676  0.00  0.00    +0.000 OA
ATOM     16  C   UNL     1       0.482   9.817  19.260  0.00  0.00    +0.000 A 
ENDROOT
BRANCH  13  17
ATOM     17  C   UNL     1       2.039   3.470  20.912  0.00  0.00    +0.000 C 
ATOM     18  F   UNL     1       2.334   3.895  22.171  0.00  0.00    +0.000 F 
ATOM     19  F   UNL     1       0.683   3.542  20.809  0.00  0.00    +0.000 F 
ATOM     20  F   UNL     1       2.349   2.147  20.882  0.00  0.00    +0.000 F 
ENDBRANCH  13  17
BRANCH   1  22
ATOM     21  C   UNL     1      -1.111  13.253  19.371  0.00  0.00    +0.000 C 
ATOM     22  C   UNL     1      -1.117  11.777  18.940  0.00  0.00    +0.000 C 
BRANCH  22  23
ATOM     23  C   UNL     1      -2.564  11.232  18.790  0.00  0.00    +0.000 C 
BRANCH  23  24
ATOM     24  C   UNL     1      -2.891  10.791  17.402  0.00  0.00    +0.000 A 
ATOM     25  N   UNL     1      -2.160   9.999  16.643  0.00  0.00    +0.000 NA
ATOM     26  N   UNL     1      -2.698  10.001  15.378  0.00  0.00    +0.000 NA
ATOM     27  C   UNL     1      -3.766  10.763  15.403  0.00  0.00    +0.000 A 
ATOM     28  N   UNL     1      -3.977  11.203  16.673  0.00  0.00    +0.000 N 
ATOM     29  C   UNL     1      -5.118  11.943  17.133  0.00  0.00    +0.000 C 
ENDBRANCH  23  24
ENDBRANCH  22  23
ENDBRANCH   1  22
TORSDOF 4
ENDMDL
MODEL 3
REMARK VINA RESULT:      -8.7      3.733      8.049
REMARK  Name = 
REMARK  6 active torsions:
REMARK  status: ('A' for Active; 'I' for Inactive)
REMARK    1  A    between atoms: C_1  and  C_2
REMARK    2  A    between atoms: C_2  and  C_3
REMARK    3  A    between atoms: C_2  and  C_10
REMARK    4  A    between atoms: C_3  and  C_4
REMARK    5  A    between atoms: N_8  and  C_9
REMARK    6  A    between atoms: C_22  and  C_23
REMARK                            x       y       z     vdW  Elec       q    Type
REMARK                         _______ _______ _______ _____ _____    ______ ____
ROOT
ATOM      1  C   UNL     1       4.796   5.315  18.893  0.00  0.00    +0.000 A 
ATOM      2  C   UNL     1       4.192   4.171  19.427  0.00  0.00    +0.000 A 
ATOM      3  C   UNL     1       2.917   4.267  19.949  0.00  0.00    +0.000 A 
ATOM      4  N   UNL     1       2.236   5.424  20.039  0.00  0.00    +0.000 NA
ATOM      5  C   UNL     1       2.781   6.518  19.463  0.00  0.00    +0.000 A 
ATOM      6  N   UNL     1       2.062   7.707  19.601  0.00  0.00    +0.000 N 
ATOM      7  C   UNL     1       1.317   7.954  20.813  0.00  0.00    +0.000 C 
ATOM      8  C   UNL     1       0.625   9.248  20.524  0.00  0.00    +0.000 A 
ATOM      9  C   UNL     1       0.857   9.601  19.191  0.00  0.00    +0.000 A 
ATOM     10  C   UNL     1       0.252  10.699  18.605  0.00  0.00    +0.000 A 
ATOM     11  C   UNL     1      -0.576  11.483  19.409  0.00  0.00    +0.000 A 
ATOM     12  C   UNL     1      -0.762  11.172  20.770  0.00  0.00    +0.000 A 
ATOM     13  C   UNL     1      -0.157  10.042  21.353  0.00  0.00    +0.000 A 
ATOM     14  C   UNL     1       1.812   8.636  18.609  0.00  0.00    +0.000 C 
ATOM     15  O   UNL     1       2.233   8.699  17.466  0.00  0.00    +0.000 OA
ATOM     16  C   UNL     1       4.042   6.502  18.869  0.00  0.00    +0.000 A 
ENDROOT
BRANCH  13  17
ATOM     17  C   UNL     1      -0.345   9.755  22.821  0.00  0.00    +0.000 C 
ATOM     18  F   UNL     1      -1.022  10.730  23.488  0.00  0.00    +0.000 F 
ATOM     19  F   UNL     1      -1.050   8.610  23.033  0.00  0.00    +0.000 F 
ATOM     20  F   UNL     1       0.833   9.600  23.480  0.00  0.00    +0.000 F 
ENDBRANCH  13  17
BRANCH   1  22
ATOM     21  C   UNL     1       7.264   5.528  19.503  0.00  0.00    +0.000 C 
ATOM     22  C   UNL     1       6.235   5.295  18.385  0.00  0.00    +0.000 C 
BRANCH  22  23
ATOM     23  C   UNL     1       6.481   6.238  17.176  0.00  0.00    +0.000 C 
BRANCH  23  24
ATOM     24  C   UNL     1       6.749   5.509  15.899  0.00  0.00    +0.000 A 
ATOM     25  N   UNL     1       7.791   5.677  15.110  0.00  0.00    +0.000 NA
ATOM     26  N   UNL     1       7.566   4.977  13.949  0.00  0.00    +0.000 NA
ATOM     27  C   UNL     1       6.411   4.368  14.072  0.00  0.00    +0.000 A 
ATOM     28  N   UNL     1       5.908   4.599  15.314  0.00  0.00    +0.000 N 
ATOM     29  C   UNL     1       4.734   3.992  15.878  0.00  0.00    +0.000 C 
ENDBRANCH  23  24
ENDBRANCH  22  23
ENDBRANCH   1  22
TORSDOF 4
ENDMDL
MODEL 4
REMARK VINA RESULT:      -8.6      3.656      8.013
REMARK  Name = 
REMARK  6 active torsions:
REMARK  status: ('A' for Active; 'I' for Inactive)
REMARK    1  A    between atoms: C_1  and  C_2
REMARK    2  A    between atoms: C_2  and  C_3
REMARK    3  A    between atoms: C_2  and  C_10
REMARK    4  A    between atoms: C_3  and  C_4
REMARK    5  A    between atoms: N_8  and  C_9
REMARK    6  A    between atoms: C_22  and  C_23
REMARK                            x       y       z     vdW  Elec       q    Type
REMARK                         _______ _______ _______ _____ _____    ______ ____
ROOT
ATOM      1  C   UNL     1       5.330   5.615  18.787  0.00  0.00    +0.000 A 
ATOM      2  C   UNL     1       4.831   4.422  19.321  0.00  0.00    +0.000 A 
ATOM      3  C   UNL     1       3.539   4.392  19.808  0.00  0.00    +0.000 A 
ATOM      4  N   UNL     1       2.740   5.474  19.861  0.00  0.00    +0.000 NA
ATOM      5  C   UNL     1       3.186   6.611  19.284  0.00  0.00    +0.000 A 
ATOM      6  N   UNL     1       2.345   7.721  19.384  0.00  0.00    +0.000 N 
ATOM      7  C   UNL     1       1.544   7.905  20.572  0.00  0.00    +0.000 C 
ATOM      8  C   UNL     1       0.732   9.117  20.244  0.00  0.00    +0.000 A 
ATOM      9  C   UNL     1       0.964   9.476  18.913  0.00  0.00    +0.000 A 
ATOM     10  C   UNL     1       0.267  10.497  18.294  0.00  0.00    +0.000 A 
ATOM     11  C   UNL     1      -0.660  11.203  19.063  0.00  0.00    +0.000 A 
ATOM     12  C   UNL     1      -0.852  10.891  20.423  0.00  0.00    +0.000 A 
ATOM     13  C   UNL     1      -0.151   9.836  21.040  0.00  0.00    +0.000 A 
ATOM     14  C   UNL     1       2.029   8.607  18.371  0.00  0.00    +0.000 C 
ATOM     15  O   UNL     1       2.474   8.699  17.240  0.00  0.00    +0.000 OA
ATOM     16  C   UNL     1       4.458   6.718  18.724  0.00  0.00    +0.000 A 
ENDROOT
BRANCH  13  17
ATOM     17  C   UNL     1      -0.350   9.550  22.506  0.00  0.00    +0.000 C 
ATOM     18  F   UNL     1      -0.958   8.357  22.755  0.00  0.00    +0.000 F 
ATOM     19  F   UNL     1       0.831   9.507  23.184  0.00  0.00    +0.000 F 
ATOM     20  F   UNL     1      -1.107  10.493  23.126  0.00  0.00    +0.000 F 
ENDBRANCH  13  17
BRANCH   1  22
ATOM     21  C   UNL     1       7.053   7.056  17.576  0.00  0.00    +0.000 C 
ATOM     22  C   UNL     1       6.777   5.737  18.318  0.00  0.00    +0.000 C 
BRANCH  22  23
ATOM     23  C   UNL     1       7.274   4.511  17.505  0.00  0.00    +0.000 C 
BRANCH  23  24
ATOM     24  C   UNL     1       6.927   4.580  16.054  0.00  0.00    +0.000 A 
ATOM     25  N   UNL     1       7.674   5.095  15.098  0.00  0.00    +0.000 NA
ATOM     26  N   UNL     1       6.921   5.151  13.949  0.00  0.00    +0.000 NA
ATOM     27  C   UNL     1       5.747   4.634  14.221  0.00  0.00    +0.000 A 
ATOM     28  N   UNL     1       5.738   4.179  15.502  0.00  0.00    +0.000 N 
ATOM     29  C   UNL     1       4.686   3.425  16.125  0.00  0.00    +0.000 C 
ENDBRANCH  23  24
ENDBRANCH  22  23
ENDBRANCH   1  22
TORSDOF 4
ENDMDL
MODEL 5
REMARK VINA RESULT:      -8.4      3.809      4.868
REMARK  Name = 
REMARK  6 active torsions:
REMARK  status: ('A' for Active; 'I' for Inactive)
REMARK    1  A    between atoms: C_1  and  C_2
REMARK    2  A    between atoms: C_2  and  C_3
REMARK    3  A    between atoms: C_2  and  C_10
REMARK    4  A    between atoms: C_3  and  C_4
REMARK    5  A    between atoms: N_8  and  C_9
REMARK    6  A    between atoms: C_22  and  C_23
REMARK                            x       y       z     vdW  Elec       q    Type
REMARK                         _______ _______ _______ _____ _____    ______ ____
ROOT
ATOM      1  C   UNL     1       0.260  10.074  20.842  0.00  0.00    +0.000 A 
ATOM      2  C   UNL     1      -0.199  10.693  19.674  0.00  0.00    +0.000 A 
ATOM      3  C   UNL     1       0.166  10.171  18.449  0.00  0.00    +0.000 A 
ATOM      4  N   UNL     1       1.003   9.126  18.306  0.00  0.00    +0.000 NA
ATOM      5  C   UNL     1       1.393   8.479  19.426  0.00  0.00    +0.000 A 
ATOM      6  N   UNL     1       2.284   7.420  19.244  0.00  0.00    +0.000 N 
ATOM      7  C   UNL     1       3.276   7.492  18.197  0.00  0.00    +0.000 C 
ATOM      8  C   UNL     1       3.939   6.154  18.268  0.00  0.00    +0.000 A 
ATOM      9  C   UNL     1       3.254   5.354  19.187  0.00  0.00    +0.000 A 
ATOM     10  C   UNL     1       3.573   4.023  19.386  0.00  0.00    +0.000 A 
ATOM     11  C   UNL     1       4.647   3.503  18.661  0.00  0.00    +0.000 A 
ATOM     12  C   UNL     1       5.384   4.320  17.783  0.00  0.00    +0.000 A 
ATOM     13  C   UNL     1       5.040   5.670  17.573  0.00  0.00    +0.000 A 
ATOM     14  C   UNL     1       2.217   6.176  19.845  0.00  0.00    +0.000 C 
ATOM     15  O   UNL     1       1.474   5.765  20.720  0.00  0.00    +0.000 OA
ATOM     16  C   UNL     1       1.032   8.907  20.703  0.00  0.00    +0.000 A 
ENDROOT
BRANCH  13  17
ATOM     17  C   UNL     1       5.870   6.529  16.655  0.00  0.00    +0.000 C 
ATOM     18  F   UNL     1       6.945   5.885  16.123  0.00  0.00    +0.000 F 
ATOM     19  F   UNL     1       5.152   6.982  15.589  0.00  0.00    +0.000 F 
ATOM     20  F   UNL     1       6.364   7.633  17.274  0.00  0.00    +0.000 F 
ENDBRANCH  13  17
BRANCH   1  22
ATOM     21  C   UNL     1      -0.040   9.588  23.329  0.00  0.00    +0.000 C 
ATOM     22  C   UNL     1      -0.033  10.656  22.222  0.00  0.00    +0.000 C 
BRANCH  22  23
ATOM     23  C   UNL     1      -1.312  11.535  22.269  0.00  0.00    +0.000 C 
BRANCH  23  24
ATOM     24  C   UNL     1      -1.052  12.939  22.706  0.00  0.00    +0.000 A 
ATOM     25  N   UNL     1       0.032  13.646  22.453  0.00  0.00    +0.000 NA
ATOM     26  N   UNL     1      -0.029  14.802  23.194  0.00  0.00    +0.000 NA
ATOM     27  C   UNL     1      -1.164  14.792  23.851  0.00  0.00    +0.000 A 
ATOM     28  N   UNL     1      -1.878  13.688  23.503  0.00  0.00    +0.000 N 
ATOM     29  C   UNL     1      -3.227  13.394  23.899  0.00  0.00    +0.000 C 
ENDBRANCH  23  24
ENDBRANCH  22  23
ENDBRANCH   1  22
TORSDOF 4
ENDMDL
MODEL 6
REMARK VINA RESULT:      -8.3      2.225      3.317
REMARK  Name = 
REMARK  6 active torsions:
REMARK  status: ('A' for Active; 'I' for Inactive)
REMARK    1  A    between atoms: C_1  and  C_2
REMARK    2  A    between atoms: C_2  and  C_3
REMARK    3  A    between atoms: C_2  and  C_10
REMARK    4  A    between atoms: C_3  and  C_4
REMARK    5  A    between atoms: N_8  and  C_9
REMARK    6  A    between atoms: C_22  and  C_23
REMARK                            x       y       z     vdW  Elec       q    Type
REMARK                         _______ _______ _______ _____ _____    ______ ____
ROOT
ATOM      1  C   UNL     1       0.416  10.376  20.328  0.00  0.00    +0.000 A 
ATOM      2  C   UNL     1       0.487  10.269  21.721  0.00  0.00    +0.000 A 
ATOM      3  C   UNL     1       1.087   9.158  22.280  0.00  0.00    +0.000 A 
ATOM      4  N   UNL     1       1.555   8.124  21.557  0.00  0.00    +0.000 NA
ATOM      5  C   UNL     1       1.555   8.250  20.212  0.00  0.00    +0.000 A 
ATOM      6  N   UNL     1       2.019   7.147  19.492  0.00  0.00    +0.000 N 
ATOM      7  C   UNL     1       1.767   5.814  19.987  0.00  0.00    +0.000 C 
ATOM      8  C   UNL     1       2.499   4.949  19.010  0.00  0.00    +0.000 A 
ATOM      9  C   UNL     1       3.224   5.763  18.135  0.00  0.00    +0.000 A 
ATOM     10  C   UNL     1       4.086   5.240  17.188  0.00  0.00    +0.000 A 
ATOM     11  C   UNL     1       4.179   3.850  17.099  0.00  0.00    +0.000 A 
ATOM     12  C   UNL     1       3.401   3.023  17.933  0.00  0.00    +0.000 A 
ATOM     13  C   UNL     1       2.540   3.565  18.907  0.00  0.00    +0.000 A 
ATOM     14  C   UNL     1       2.886   7.173  18.415  0.00  0.00    +0.000 C 
ATOM     15  O   UNL     1       3.339   8.119  17.793  0.00  0.00    +0.000 OA
ATOM     16  C   UNL     1       1.015   9.359  19.562  0.00  0.00    +0.000 A 
ENDROOT
BRANCH  13  17
ATOM     17  C   UNL     1       1.693   2.655  19.759  0.00  0.00    +0.000 C 
ATOM     18  F   UNL     1       2.003   2.698  21.084  0.00  0.00    +0.000 F 
ATOM     19  F   UNL     1       0.369   2.968  19.682  0.00  0.00    +0.000 F 
ATOM     20  F   UNL     1       1.794   1.350  19.394  0.00  0.00    +0.000 F 
ENDBRANCH  13  17
BRANCH   1  22
ATOM     21  C   UNL     1      -1.244  11.070  18.519  0.00  0.00    +0.000 C 
ATOM     22  C   UNL     1      -0.314  11.534  19.651  0.00  0.00    +0.000 C 
BRANCH  22  23
ATOM     23  C   UNL     1       0.629  12.676  19.184  0.00  0.00    +0.000 C 
BRANCH  23  24
ATOM     24  C   UNL     1       1.032  13.600  20.286  0.00  0.00    +0.000 A 
ATOM     25  N   UNL     1       2.112  13.495  21.036  0.00  0.00    +0.000 NA
ATOM     26  N   UNL     1       2.015  14.411  22.056  0.00  0.00    +0.000 NA
ATOM     27  C   UNL     1       0.900  15.079  21.884  0.00  0.00    +0.000 A 
ATOM     28  N   UNL     1       0.299  14.667  20.736  0.00  0.00    +0.000 N 
ATOM     29  C   UNL     1      -0.865  15.254  20.133  0.00  0.00    +0.000 C 
ENDBRANCH  23  24
ENDBRANCH  22  23
ENDBRANCH   1  22
TORSDOF 4
ENDMDL
MODEL 7
REMARK VINA RESULT:      -8.3      3.868      8.328
REMARK  Name = 
REMARK  6 active torsions:
REMARK  status: ('A' for Active; 'I' for Inactive)
REMARK    1  A    between atoms: C_1  and  C_2
REMARK    2  A    between atoms: C_2  and  C_3
REMARK    3  A    between atoms: C_2  and  C_10
REMARK    4  A    between atoms: C_3  and  C_4
REMARK    5  A    between atoms: N_8  and  C_9
REMARK    6  A    between atoms: C_22  and  C_23
REMARK                            x       y       z     vdW  Elec       q    Type
REMARK                         _______ _______ _______ _____ _____    ______ ____
ROOT
ATOM      1  C   UNL     1       4.311   5.235  17.718  0.00  0.00    +0.000 A 
ATOM      2  C   UNL     1       3.568   4.109  18.091  0.00  0.00    +0.000 A 
ATOM      3  C   UNL     1       2.350   4.285  18.716  0.00  0.00    +0.000 A 
ATOM      4  N   UNL     1       1.856   5.490  19.056  0.00  0.00    +0.000 NA
ATOM      5  C   UNL     1       2.531   6.583  18.638  0.00  0.00    +0.000 A 
ATOM      6  N   UNL     1       2.007   7.816  19.033  0.00  0.00    +0.000 N 
ATOM      7  C   UNL     1       1.368   7.940  20.322  0.00  0.00    +0.000 C 
ATOM      8  C   UNL     1       0.867   9.349  20.314  0.00  0.00    +0.000 A 
ATOM      9  C   UNL     1       1.083   9.903  19.048  0.00  0.00    +0.000 A 
ATOM     10  C   UNL     1       0.622  11.162  18.708  0.00  0.00    +0.000 A 
ATOM     11  C   UNL     1      -0.037  11.895  19.695  0.00  0.00    +0.000 A 
ATOM     12  C   UNL     1      -0.200  11.371  20.992  0.00  0.00    +0.000 A 
ATOM     13  C   UNL     1       0.255  10.080  21.324  0.00  0.00    +0.000 A 
ATOM     14  C   UNL     1       1.851   8.936  18.237  0.00  0.00    +0.000 C 
ATOM     15  O   UNL     1       2.219   9.146  17.094  0.00  0.00    +0.000 OA
ATOM     16  C   UNL     1       3.744   6.500  17.956  0.00  0.00    +0.000 A 
ENDROOT
BRANCH  13  17
ATOM     17  C   UNL     1       0.099   9.561  22.730  0.00  0.00    +0.000 C 
ATOM     18  F   UNL     1       1.278   9.235  23.329  0.00  0.00    +0.000 F 
ATOM     19  F   UNL     1      -0.488  10.475  23.552  0.00  0.00    +0.000 F 
ATOM     20  F   UNL     1      -0.674   8.445  22.794  0.00  0.00    +0.000 F 
ENDBRANCH  13  17
BRANCH   1  22
ATOM     21  C   UNL     1       6.314   6.466  16.727  0.00  0.00    +0.000 C 
ATOM     22  C   UNL     1       5.703   5.107  17.107  0.00  0.00    +0.000 C 
BRANCH  22  23
ATOM     23  C   UNL     1       5.775   4.099  15.927  0.00  0.00    +0.000 C 
BRANCH  23  24
ATOM     24  C   UNL     1       6.688   4.536  14.828  0.00  0.00    +0.000 A 
ATOM     25  N   UNL     1       7.774   5.271  14.964  0.00  0.00    +0.000 NA
ATOM     26  N   UNL     1       8.213   5.621  13.709  0.00  0.00    +0.000 NA
ATOM     27  C   UNL     1       7.409   5.060  12.838  0.00  0.00    +0.000 A 
ATOM     28  N   UNL     1       6.495   4.296  13.493  0.00  0.00    +0.000 N 
ATOM     29  C   UNL     1       5.536   3.416  12.884  0.00  0.00    +0.000 C 
ENDBRANCH  23  24
ENDBRANCH  22  23
ENDBRANCH   1  22
TORSDOF 4
ENDMDL
MODEL 8
REMARK VINA RESULT:      -8.3      2.051      2.631
REMARK  Name = 
REMARK  6 active torsions:
REMARK  status: ('A' for Active; 'I' for Inactive)
REMARK    1  A    between atoms: C_1  and  C_2
REMARK    2  A    between atoms: C_2  and  C_3
REMARK    3  A    between atoms: C_2  and  C_10
REMARK    4  A    between atoms: C_3  and  C_4
REMARK    5  A    between atoms: N_8  and  C_9
REMARK    6  A    between atoms: C_22  and  C_23
REMARK                            x       y       z     vdW  Elec       q    Type
REMARK                         _______ _______ _______ _____ _____    ______ ____
ROOT
ATOM      1  C   UNL     1      -0.241  10.663  20.609  0.00  0.00    +0.000 A 
ATOM      2  C   UNL     1      -0.053  10.669  21.996  0.00  0.00    +0.000 A 
ATOM      3  C   UNL     1       0.732   9.689  22.571  0.00  0.00    +0.000 A 
ATOM      4  N   UNL     1       1.279   8.673  21.877  0.00  0.00    +0.000 NA
ATOM      5  C   UNL     1       1.162   8.699  20.532  0.00  0.00    +0.000 A 
ATOM      6  N   UNL     1       1.716   7.616  19.847  0.00  0.00    +0.000 N 
ATOM      7  C   UNL     1       1.684   6.301  20.444  0.00  0.00    +0.000 C 
ATOM      8  C   UNL     1       2.450   5.469  19.466  0.00  0.00    +0.000 A 
ATOM      9  C   UNL     1       2.992   6.303  18.483  0.00  0.00    +0.000 A 
ATOM     10  C   UNL     1       3.843   5.828  17.502  0.00  0.00    +0.000 A 
ATOM     11  C   UNL     1       4.116   4.459  17.494  0.00  0.00    +0.000 A 
ATOM     12  C   UNL     1       3.521   3.602  18.440  0.00  0.00    +0.000 A 
ATOM     13  C   UNL     1       2.671   4.098  19.447  0.00  0.00    +0.000 A 
ATOM     14  C   UNL     1       2.488   7.675  18.702  0.00  0.00    +0.000 C 
ATOM     15  O   UNL     1       2.761   8.623  17.985  0.00  0.00    +0.000 OA
ATOM     16  C   UNL     1       0.430   9.678  19.862  0.00  0.00    +0.000 A 
ENDROOT
BRANCH  13  17
ATOM     17  C   UNL     1       2.020   3.151  20.423  0.00  0.00    +0.000 C 
ATOM     18  F   UNL     1       0.667   3.286  20.499  0.00  0.00    +0.000 F 
ATOM     19  F   UNL     1       2.240   1.847  20.095  0.00  0.00    +0.000 F 
ATOM     20  F   UNL     1       2.483   3.305  21.691  0.00  0.00    +0.000 F 
ENDBRANCH  13  17
BRANCH   1  22
ATOM     21  C   UNL     1      -0.560  12.263  18.647  0.00  0.00    +0.000 C 
ATOM     22  C   UNL     1      -1.169  11.663  19.925  0.00  0.00    +0.000 C 
BRANCH  22  23
ATOM     23  C   UNL     1      -1.703  12.768  20.876  0.00  0.00    +0.000 C 
BRANCH  23  24
ATOM     24  C   UNL     1      -3.182  12.714  21.078  0.00  0.00    +0.000 A 
ATOM     25  N   UNL     1      -4.101  12.814  20.138  0.00  0.00    +0.000 NA
ATOM     26  N   UNL     1      -5.328  12.922  20.748  0.00  0.00    +0.000 NA
ATOM     27  C   UNL     1      -5.134  12.846  22.043  0.00  0.00    +0.000 A 
ATOM     28  N   UNL     1      -3.815  12.623  22.290  0.00  0.00    +0.000 N 
ATOM     29  C   UNL     1      -3.230  12.343  23.572  0.00  0.00    +0.000 C 
ENDBRANCH  23  24
ENDBRANCH  22  23
ENDBRANCH   1  22
TORSDOF 4
ENDMDL
MODEL 9
REMARK VINA RESULT:      -8.3      2.292      3.577
REMARK  Name = 
REMARK  6 active torsions:
REMARK  status: ('A' for Active; 'I' for Inactive)
REMARK    1  A    between atoms: C_1  and  C_2
REMARK    2  A    between atoms: C_2  and  C_3
REMARK    3  A    between atoms: C_2  and  C_10
REMARK    4  A    between atoms: C_3  and  C_4
REMARK    5  A    between atoms: N_8  and  C_9
REMARK    6  A    between atoms: C_22  and  C_23
REMARK                            x       y       z     vdW  Elec       q    Type
REMARK                         _______ _______ _______ _____ _____    ______ ____
ROOT
ATOM      1  C   UNL     1       0.540  10.303  20.337  0.00  0.00    +0.000 A 
ATOM      2  C   UNL     1       0.600  10.166  21.729  0.00  0.00    +0.000 A 
ATOM      3  C   UNL     1       1.171   9.031  22.268  0.00  0.00    +0.000 A 
ATOM      4  N   UNL     1       1.620   8.001  21.526  0.00  0.00    +0.000 NA
ATOM      5  C   UNL     1       1.631   8.155  20.184  0.00  0.00    +0.000 A 
ATOM      6  N   UNL     1       2.075   7.057  19.444  0.00  0.00    +0.000 N 
ATOM      7  C   UNL     1       1.790   5.720  19.910  0.00  0.00    +0.000 C 
ATOM      8  C   UNL     1       2.508   4.859  18.920  0.00  0.00    +0.000 A 
ATOM      9  C   UNL     1       3.257   5.674  18.066  0.00  0.00    +0.000 A 
ATOM     10  C   UNL     1       4.113   5.151  17.113  0.00  0.00    +0.000 A 
ATOM     11  C   UNL     1       4.175   3.761  16.997  0.00  0.00    +0.000 A 
ATOM     12  C   UNL     1       3.373   2.935  17.808  0.00  0.00    +0.000 A 
ATOM     13  C   UNL     1       2.519   3.476  18.789  0.00  0.00    +0.000 A 
ATOM     14  C   UNL     1       2.949   7.086  18.374  0.00  0.00    +0.000 C 
ATOM     15  O   UNL     1       3.427   8.033  17.774  0.00  0.00    +0.000 OA
ATOM     16  C   UNL     1       1.121   9.289  19.555  0.00  0.00    +0.000 A 
ENDROOT
BRANCH  13  17
ATOM     17  C   UNL     1       1.646   2.569  19.617  0.00  0.00    +0.000 C 
ATOM     18  F   UNL     1       0.317   2.850  19.523  0.00  0.00    +0.000 F 
ATOM     19  F   UNL     1       1.770   1.263  19.248  0.00  0.00    +0.000 F 
ATOM     20  F   UNL     1       1.947   2.617  20.941  0.00  0.00    +0.000 F 
ENDBRANCH  13  17
BRANCH   1  22
ATOM     21  C   UNL     1      -1.219  11.063  18.652  0.00  0.00    +0.000 C 
ATOM     22  C   UNL     1      -0.159  11.491  19.681  0.00  0.00    +0.000 C 
BRANCH  22  23
ATOM     23  C   UNL     1       0.820  12.541  19.089  0.00  0.00    +0.000 C 
BRANCH  23  24
ATOM     24  C   UNL     1       1.527  13.346  20.129  0.00  0.00    +0.000 A 
ATOM     25  N   UNL     1       1.160  13.487  21.388  0.00  0.00    +0.000 NA
ATOM     26  N   UNL     1       1.949  14.458  21.957  0.00  0.00    +0.000 NA
ATOM     27  C   UNL     1       2.802  14.860  21.046  0.00  0.00    +0.000 A 
ATOM     28  N   UNL     1       2.634  14.124  19.914  0.00  0.00    +0.000 N 
ATOM     29  C   UNL     1       3.469  14.167  18.746  0.00  0.00    +0.000 C 
ENDBRANCH  23  24
ENDBRANCH  22  23
ENDBRANCH   1  22
TORSDOF 4
ENDMDL
