MODEL 1
REMARK VINA RESULT:      -9.0      0.000      0.000
REMARK  Name = 
REMARK  9 active torsions:
REMARK  status: ('A' for Active; 'I' for Inactive)
REMARK    1  A    between atoms: C_1  and  C_2
REMARK    2  A    between atoms: C_2  and  C_3
REMARK    3  A    between atoms: C_2  and  C_10
REMARK    4  A    between atoms: C_3  and  C_4
REMARK    5  A    between atoms: N_8  and  C_9
REMARK    6  A    between atoms: C_14  and  N_15
REMARK    7  A    between atoms: C_16  and  C_18
REMARK    8  A    between atoms: C_20  and  C_21
REMARK    9  A    between atoms: C_26  and  C_27
REMARK                            x       y       z     vdW  Elec       q    Type
REMARK                         _______ _______ _______ _____ _____    ______ ____
ROOT
ATOM      1  N   UNL     1       7.793   8.832  17.789  0.00  0.00    +0.000 N 
ATOM      2  C   UNL     1       7.839   7.485  18.095  0.00  0.00    +0.000 C 
ATOM      3  O   UNL     1       8.529   6.955  18.963  0.00  0.00    +0.000 OA
ATOM      4  H   UNL     1       7.060   9.113  17.143  0.00  0.00    +0.000 HD
ENDROOT
BRANCH   1   9
ATOM      5  C   UNL     1       9.749  11.983  18.152  0.00  0.00    +0.000 A 
ATOM      6  C   UNL     1      10.173  11.858  19.487  0.00  0.00    +0.000 A 
ATOM      7  C   UNL     1       9.828  10.744  20.248  0.00  0.00    +0.000 A 
ATOM      8  C   UNL     1       9.039   9.745  19.703  0.00  0.00    +0.000 A 
ATOM      9  C   UNL     1       8.598   9.827  18.380  0.00  0.00    +0.000 A 
ATOM     10  C   UNL     1       8.980  10.932  17.605  0.00  0.00    +0.000 A 
BRANCH   5  12
ATOM     11  C   UNL     1      11.620  13.294  16.986  0.00  0.00    +0.000 C 
ATOM     12  C   UNL     1      10.112  13.189  17.270  0.00  0.00    +0.000 C 
BRANCH  12  13
ATOM     13  C   UNL     1       9.552  14.509  17.868  0.00  0.00    +0.000 C 
BRANCH  13  14
ATOM     14  C   UNL     1      10.543  15.633  17.877  0.00  0.00    +0.000 A 
ATOM     15  N   UNL     1      10.779  16.480  16.895  0.00  0.00    +0.000 NA
ATOM     16  N   UNL     1      11.798  17.319  17.284  0.00  0.00    +0.000 NA
ATOM     17  C   UNL     1      12.153  16.979  18.498  0.00  0.00    +0.000 A 
ATOM     18  N   UNL     1      11.365  15.956  18.929  0.00  0.00    +0.000 N 
ATOM     19  C   UNL     1      11.385  15.369  20.240  0.00  0.00    +0.000 C 
ENDBRANCH  13  14
ENDBRANCH  12  13
ENDBRANCH   5  12
ENDBRANCH   1   9
BRANCH   2  20
ATOM     20  C   UNL     1       6.903   6.619  17.322  0.00  0.00    +0.000 A 
ATOM     21  C   UNL     1       5.641   6.416  17.852  0.00  0.00    +0.000 A 
ATOM     22  C   UNL     1       4.713   5.707  17.104  0.00  0.00    +0.000 A 
ATOM     23  C   UNL     1       5.097   5.174  15.875  0.00  0.00    +0.000 A 
ATOM     24  C   UNL     1       6.400   5.392  15.445  0.00  0.00    +0.000 A 
ATOM     25  N   UNL     1       7.317   6.116  16.132  0.00  0.00    +0.000 NA
BRANCH  22  26
ATOM     26  C   UNL     1       3.358   5.432  17.650  0.00  0.00    +0.000 C 
ATOM     27  O   UNL     1       2.675   6.378  18.026  0.00  0.00    +0.000 OA
ATOM     28  N   UNL     1       2.902   4.118  17.663  0.00  0.00    +0.000 N 
ATOM     29  C   UNL     1       1.508   3.836  17.969  0.00  0.00    +0.000 C 
ATOM     30  C   UNL     1       1.479   2.362  18.361  0.00  0.00    +0.000 C 
ATOM     31  C   UNL     1       2.886   2.099  18.895  0.00  0.00    +0.000 C 
ATOM     32  C   UNL     1       3.740   2.957  17.970  0.00  0.00    +0.000 C 
BRANCH  31  33
ATOM     33  C   UNL     1       3.040   2.530  20.293  0.00  0.00    +0.000 C 
ATOM     34  N   UNL     1       3.174   2.863  21.393  0.00  0.00    +0.000 NA
ENDBRANCH  31  33
ENDBRANCH  22  26
ENDBRANCH   2  20
TORSDOF 7
ENDMDL
MODEL 2
REMARK VINA RESULT:      -8.8      1.300      1.527
REMARK  Name = 
REMARK  9 active torsions:
REMARK  status: ('A' for Active; 'I' for Inactive)
REMARK    1  A    between atoms: C_1  and  C_2
REMARK    2  A    between atoms: C_2  and  C_3
REMARK    3  A    between atoms: C_2  and  C_10
REMARK    4  A    between atoms: C_3  and  C_4
REMARK    5  A    between atoms: N_8  and  C_9
REMARK    6  A    between atoms: C_14  and  N_15
REMARK    7  A    between atoms: C_16  and  C_18
REMARK    8  A    between atoms: C_20  and  C_21
REMARK    9  A    between atoms: C_26  and  C_27
REMARK                            x       y       z     vdW  Elec       q    Type
REMARK                         _______ _______ _______ _____ _____    ______ ____
ROOT
ATOM      1  N   UNL     1       7.889   8.953  17.839  0.00  0.00    +0.000 N 
ATOM      2  C   UNL     1       7.908   7.605  18.144  0.00  0.00    +0.000 C 
ATOM      3  O   UNL     1       8.556   7.067  19.040  0.00  0.00    +0.000 OA
ATOM      4  H   UNL     1       7.186   9.242  17.163  0.00  0.00    +0.000 HD
ENDROOT
BRANCH   1   9
ATOM      5  C   UNL     1       9.749  12.144  18.334  0.00  0.00    +0.000 A 
ATOM      6  C   UNL     1      10.220  11.955  19.646  0.00  0.00    +0.000 A 
ATOM      7  C   UNL     1       9.937  10.785  20.348  0.00  0.00    +0.000 A 
ATOM      8  C   UNL     1       9.166   9.793  19.766  0.00  0.00    +0.000 A 
ATOM      9  C   UNL     1       8.679   9.939  18.465  0.00  0.00    +0.000 A 
ATOM     10  C   UNL     1       8.998  11.102  17.748  0.00  0.00    +0.000 A 
BRANCH   5  12
ATOM     11  C   UNL     1      11.203  13.234  16.525  0.00  0.00    +0.000 C 
ATOM     12  C   UNL     1      10.041  13.414  17.518  0.00  0.00    +0.000 C 
BRANCH  12  13
ATOM     13  C   UNL     1      10.269  14.638  18.446  0.00  0.00    +0.000 C 
BRANCH  13  14
ATOM     14  C   UNL     1       9.048  15.483  18.636  0.00  0.00    +0.000 A 
ATOM     15  N   UNL     1       8.561  16.364  17.785  0.00  0.00    +0.000 NA
ATOM     16  N   UNL     1       7.464  16.963  18.362  0.00  0.00    +0.000 NA
ATOM     17  C   UNL     1       7.295  16.428  19.546  0.00  0.00    +0.000 A 
ATOM     18  N   UNL     1       8.236  15.464  19.744  0.00  0.00    +0.000 N 
ATOM     19  C   UNL     1       8.322  14.591  20.882  0.00  0.00    +0.000 C 
ENDBRANCH  13  14
ENDBRANCH  12  13
ENDBRANCH   5  12
ENDBRANCH   1   9
BRANCH   2  20
ATOM     20  C   UNL     1       6.996   6.751  17.331  0.00  0.00    +0.000 A 
ATOM     21  C   UNL     1       5.735   6.501  17.843  0.00  0.00    +0.000 A 
ATOM     22  C   UNL     1       4.827   5.802  17.061  0.00  0.00    +0.000 A 
ATOM     23  C   UNL     1       5.232   5.325  15.816  0.00  0.00    +0.000 A 
ATOM     24  C   UNL     1       6.533   5.585  15.405  0.00  0.00    +0.000 A 
ATOM     25  N   UNL     1       7.430   6.301  16.127  0.00  0.00    +0.000 NA
BRANCH  22  26
ATOM     26  C   UNL     1       3.475   5.478  17.586  0.00  0.00    +0.000 C 
ATOM     27  O   UNL     1       2.761   6.397  17.972  0.00  0.00    +0.000 OA
ATOM     28  N   UNL     1       3.055   4.152  17.566  0.00  0.00    +0.000 N 
ATOM     29  C   UNL     1       1.666   3.826  17.849  0.00  0.00    +0.000 C 
ATOM     30  C   UNL     1       1.675   2.343  18.211  0.00  0.00    +0.000 C 
ATOM     31  C   UNL     1       3.083   2.108  18.756  0.00  0.00    +0.000 C 
ATOM     32  C   UNL     1       3.922   3.009  17.859  0.00  0.00    +0.000 C 
BRANCH  31  33
ATOM     33  C   UNL     1       3.208   2.515  20.165  0.00  0.00    +0.000 C 
ATOM     34  N   UNL     1       3.318   2.844  21.269  0.00  0.00    +0.000 NA
ENDBRANCH  31  33
ENDBRANCH  22  26
ENDBRANCH   2  20
TORSDOF 7
ENDMDL
MODEL 3
REMARK VINA RESULT:      -8.7      6.119      7.654
REMARK  Name = 
REMARK  9 active torsions:
REMARK  status: ('A' for Active; 'I' for Inactive)
REMARK    1  A    between atoms: C_1  and  C_2
REMARK    2  A    between atoms: C_2  and  C_3
REMARK    3  A    between atoms: C_2  and  C_10
REMARK    4  A    between atoms: C_3  and  C_4
REMARK    5  A    between atoms: N_8  and  C_9
REMARK    6  A    between atoms: C_14  and  N_15
REMARK    7  A    between atoms: C_16  and  C_18
REMARK    8  A    between atoms: C_20  and  C_21
REMARK    9  A    between atoms: C_26  and  C_27
REMARK                            x       y       z     vdW  Elec       q    Type
REMARK                         _______ _______ _______ _____ _____    ______ ____
ROOT
ATOM      1  N   UNL     1       1.039   9.850  19.464  0.00  0.00    +0.000 N 
ATOM      2  C   UNL     1       1.673   9.055  18.528  0.00  0.00    +0.000 C 
ATOM      3  O   UNL     1       2.004   9.385  17.391  0.00  0.00    +0.000 OA
ATOM      4  H   UNL     1       0.972   9.461  20.401  0.00  0.00    +0.000 HD
ENDROOT
BRANCH   1   9
ATOM      5  C   UNL     1       1.132  13.560  19.120  0.00  0.00    +0.000 A 
ATOM      6  C   UNL     1      -0.211  13.811  18.786  0.00  0.00    +0.000 A 
ATOM      7  C   UNL     1      -1.133  12.771  18.690  0.00  0.00    +0.000 A 
ATOM      8  C   UNL     1      -0.732  11.463  18.904  0.00  0.00    +0.000 A 
ATOM      9  C   UNL     1       0.592  11.168  19.240  0.00  0.00    +0.000 A 
ATOM     10  C   UNL     1       1.508  12.222  19.373  0.00  0.00    +0.000 A 
BRANCH   5  12
ATOM     11  C   UNL     1       3.258  14.370  20.305  0.00  0.00    +0.000 C 
ATOM     12  C   UNL     1       2.183  14.675  19.246  0.00  0.00    +0.000 C 
BRANCH  12  13
ATOM     13  C   UNL     1       1.512  16.053  19.496  0.00  0.00    +0.000 C 
BRANCH  13  14
ATOM     14  C   UNL     1       1.486  16.937  18.287  0.00  0.00    +0.000 A 
ATOM     15  N   UNL     1       2.506  17.227  17.503  0.00  0.00    +0.000 NA
ATOM     16  N   UNL     1       2.074  18.112  16.542  0.00  0.00    +0.000 NA
ATOM     17  C   UNL     1       0.799  18.333  16.748  0.00  0.00    +0.000 A 
ATOM     18  N   UNL     1       0.376  17.584  17.802  0.00  0.00    +0.000 N 
ATOM     19  C   UNL     1      -0.977  17.483  18.276  0.00  0.00    +0.000 C 
ENDBRANCH  13  14
ENDBRANCH  12  13
ENDBRANCH   5  12
ENDBRANCH   1   9
BRANCH   2  20
ATOM     20  C   UNL     1       2.036   7.685  18.991  0.00  0.00    +0.000 A 
ATOM     21  C   UNL     1       2.655   6.849  18.078  0.00  0.00    +0.000 A 
ATOM     22  C   UNL     1       3.102   5.609  18.510  0.00  0.00    +0.000 A 
ATOM     23  C   UNL     1       2.864   5.224  19.828  0.00  0.00    +0.000 A 
ATOM     24  C   UNL     1       2.195   6.112  20.660  0.00  0.00    +0.000 A 
ATOM     25  N   UNL     1       1.782   7.347  20.280  0.00  0.00    +0.000 NA
BRANCH  22  26
ATOM     26  C   UNL     1       3.737   4.663  17.555  0.00  0.00    +0.000 C 
ATOM     27  O   UNL     1       3.399   3.485  17.586  0.00  0.00    +0.000 OA
ATOM     28  N   UNL     1       4.648   5.165  16.631  0.00  0.00    +0.000 N 
ATOM     29  C   UNL     1       5.111   4.324  15.538  0.00  0.00    +0.000 C 
ATOM     30  C   UNL     1       6.396   4.986  15.048  0.00  0.00    +0.000 C 
ATOM     31  C   UNL     1       6.919   5.725  16.279  0.00  0.00    +0.000 C 
ATOM     32  C   UNL     1       5.629   6.212  16.926  0.00  0.00    +0.000 C 
BRANCH  31  33
ATOM     33  C   UNL     1       7.654   4.834  17.191  0.00  0.00    +0.000 C 
ATOM     34  N   UNL     1       8.218   4.125  17.912  0.00  0.00    +0.000 NA
ENDBRANCH  31  33
ENDBRANCH  22  26
ENDBRANCH   2  20
TORSDOF 7
ENDMDL
MODEL 4
REMARK VINA RESULT:      -8.5      7.044     10.346
REMARK  Name = 
REMARK  9 active torsions:
REMARK  status: ('A' for Active; 'I' for Inactive)
REMARK    1  A    between atoms: C_1  and  C_2
REMARK    2  A    between atoms: C_2  and  C_3
REMARK    3  A    between atoms: C_2  and  C_10
REMARK    4  A    between atoms: C_3  and  C_4
REMARK    5  A    between atoms: N_8  and  C_9
REMARK    6  A    between atoms: C_14  and  N_15
REMARK    7  A    between atoms: C_16  and  C_18
REMARK    8  A    between atoms: C_20  and  C_21
REMARK    9  A    between atoms: C_26  and  C_27
REMARK                            x       y       z     vdW  Elec       q    Type
REMARK                         _______ _______ _______ _____ _____    ______ ____
ROOT
ATOM      1  N   UNL     1       1.305   6.235  21.010  0.00  0.00    +0.000 N 
ATOM      2  C   UNL     1       1.720   7.434  20.462  0.00  0.00    +0.000 C 
ATOM      3  O   UNL     1       2.588   7.586  19.605  0.00  0.00    +0.000 OA
ATOM      4  H   UNL     1       0.477   6.281  21.598  0.00  0.00    +0.000 HD
ENDROOT
BRANCH   1   9
ATOM      5  C   UNL     1       2.834   3.450  19.062  0.00  0.00    +0.000 A 
ATOM      6  C   UNL     1       3.022   2.505  20.087  0.00  0.00    +0.000 A 
ATOM      7  C   UNL     1       2.637   2.782  21.397  0.00  0.00    +0.000 A 
ATOM      8  C   UNL     1       2.076   4.008  21.714  0.00  0.00    +0.000 A 
ATOM      9  C   UNL     1       1.870   4.975  20.727  0.00  0.00    +0.000 A 
ATOM     10  C   UNL     1       2.224   4.678  19.403  0.00  0.00    +0.000 A 
BRANCH   5  12
ATOM     11  C   UNL     1       4.014   1.872  17.420  0.00  0.00    +0.000 C 
ATOM     12  C   UNL     1       3.235   3.187  17.602  0.00  0.00    +0.000 C 
BRANCH  12  13
ATOM     13  C   UNL     1       4.010   4.394  17.006  0.00  0.00    +0.000 C 
BRANCH  13  14
ATOM     14  C   UNL     1       5.463   4.414  17.369  0.00  0.00    +0.000 A 
ATOM     15  N   UNL     1       5.969   4.464  18.586  0.00  0.00    +0.000 NA
ATOM     16  N   UNL     1       7.340   4.521  18.481  0.00  0.00    +0.000 NA
ATOM     17  C   UNL     1       7.644   4.490  17.207  0.00  0.00    +0.000 A 
ATOM     18  N   UNL     1       6.504   4.377  16.473  0.00  0.00    +0.000 N 
ATOM     19  C   UNL     1       6.430   4.220  15.047  0.00  0.00    +0.000 C 
ENDBRANCH  13  14
ENDBRANCH  12  13
ENDBRANCH   5  12
ENDBRANCH   1   9
BRANCH   2  20
ATOM     20  C   UNL     1       0.981   8.642  20.930  0.00  0.00    +0.000 A 
ATOM     21  C   UNL     1       0.465   9.486  19.962  0.00  0.00    +0.000 A 
ATOM     22  C   UNL     1      -0.319  10.557  20.364  0.00  0.00    +0.000 A 
ATOM     23  C   UNL     1      -0.513  10.782  21.725  0.00  0.00    +0.000 A 
ATOM     24  C   UNL     1       0.082   9.907  22.625  0.00  0.00    +0.000 A 
ATOM     25  N   UNL     1       0.819   8.828  22.263  0.00  0.00    +0.000 NA
BRANCH  22  26
ATOM     26  C   UNL     1      -0.861  11.511  19.361  0.00  0.00    +0.000 C 
ATOM     27  O   UNL     1      -0.753  12.713  19.578  0.00  0.00    +0.000 OA
ATOM     28  N   UNL     1      -1.420  11.000  18.194  0.00  0.00    +0.000 N 
ATOM     29  C   UNL     1      -1.747  11.894  17.094  0.00  0.00    +0.000 C 
ATOM     30  C   UNL     1      -2.739  11.117  16.234  0.00  0.00    +0.000 C 
ATOM     31  C   UNL     1      -3.405  10.159  17.221  0.00  0.00    +0.000 C 
ATOM     32  C   UNL     1      -2.244   9.791  18.135  0.00  0.00    +0.000 C 
BRANCH  31  33
ATOM     33  C   UNL     1      -4.483  10.808  17.984  0.00  0.00    +0.000 C 
ATOM     34  N   UNL     1      -5.335  11.326  18.571  0.00  0.00    +0.000 NA
ENDBRANCH  31  33
ENDBRANCH  22  26
ENDBRANCH   2  20
TORSDOF 7
ENDMDL
MODEL 5
REMARK VINA RESULT:      -8.5      4.993      9.402
REMARK  Name = 
REMARK  9 active torsions:
REMARK  status: ('A' for Active; 'I' for Inactive)
REMARK    1  A    between atoms: C_1  and  C_2
REMARK    2  A    between atoms: C_2  and  C_3
REMARK    3  A    between atoms: C_2  and  C_10
REMARK    4  A    between atoms: C_3  and  C_4
REMARK    5  A    between atoms: N_8  and  C_9
REMARK    6  A    between atoms: C_14  and  N_15
REMARK    7  A    between atoms: C_16  and  C_18
REMARK    8  A    between atoms: C_20  and  C_21
REMARK    9  A    between atoms: C_26  and  C_27
REMARK                            x       y       z     vdW  Elec       q    Type
REMARK                         _______ _______ _______ _____ _____    ______ ____
ROOT
ATOM      1  N   UNL     1       2.152   7.008  18.897  0.00  0.00    +0.000 N 
ATOM      2  C   UNL     1       1.782   7.022  20.229  0.00  0.00    +0.000 C 
ATOM      3  O   UNL     1       1.872   6.087  21.023  0.00  0.00    +0.000 OA
ATOM      4  H   UNL     1       2.144   7.910  18.428  0.00  0.00    +0.000 HD
ENDROOT
BRANCH   1   9
ATOM      5  C   UNL     1       4.360   4.902  16.758  0.00  0.00    +0.000 A 
ATOM      6  C   UNL     1       3.660   3.683  16.804  0.00  0.00    +0.000 A 
ATOM      7  C   UNL     1       2.471   3.566  17.521  0.00  0.00    +0.000 A 
ATOM      8  C   UNL     1       1.968   4.651  18.219  0.00  0.00    +0.000 A 
ATOM      9  C   UNL     1       2.630   5.881  18.198  0.00  0.00    +0.000 A 
ATOM     10  C   UNL     1       3.806   6.005  17.444  0.00  0.00    +0.000 A 
BRANCH   5  12
ATOM     11  C   UNL     1       5.796   4.114  14.784  0.00  0.00    +0.000 C 
ATOM     12  C   UNL     1       5.670   5.082  15.974  0.00  0.00    +0.000 C 
BRANCH  12  13
ATOM     13  C   UNL     1       6.903   4.993  16.914  0.00  0.00    +0.000 C 
BRANCH  13  14
ATOM     14  C   UNL     1       7.382   6.324  17.405  0.00  0.00    +0.000 A 
ATOM     15  N   UNL     1       7.349   7.465  16.744  0.00  0.00    +0.000 NA
ATOM     16  N   UNL     1       7.934   8.434  17.526  0.00  0.00    +0.000 NA
ATOM     17  C   UNL     1       8.298   7.873  18.652  0.00  0.00    +0.000 A 
ATOM     18  N   UNL     1       7.933   6.562  18.641  0.00  0.00    +0.000 N 
ATOM     19  C   UNL     1       8.077   5.636  19.731  0.00  0.00    +0.000 C 
ENDBRANCH  13  14
ENDBRANCH  12  13
ENDBRANCH   5  12
ENDBRANCH   1   9
BRANCH   2  20
ATOM     20  C   UNL     1       1.286   8.330  20.743  0.00  0.00    +0.000 A 
ATOM     21  C   UNL     1       1.043   9.327  19.815  0.00  0.00    +0.000 A 
ATOM     22  C   UNL     1       0.478  10.517  20.251  0.00  0.00    +0.000 A 
ATOM     23  C   UNL     1       0.228  10.690  21.611  0.00  0.00    +0.000 A 
ATOM     24  C   UNL     1       0.547   9.650  22.474  0.00  0.00    +0.000 A 
ATOM     25  N   UNL     1       1.061   8.460  22.075  0.00  0.00    +0.000 NA
BRANCH  22  26
ATOM     26  C   UNL     1       0.236  11.629  19.295  0.00  0.00    +0.000 C 
ATOM     27  O   UNL     1      -0.202  11.359  18.181  0.00  0.00    +0.000 OA
ATOM     28  N   UNL     1       0.464  12.933  19.722  0.00  0.00    +0.000 N 
ATOM     29  C   UNL     1       0.022  14.052  18.906  0.00  0.00    +0.000 C 
ATOM     30  C   UNL     1       0.831  15.247  19.403  0.00  0.00    +0.000 C 
ATOM     31  C   UNL     1       2.107  14.618  19.961  0.00  0.00    +0.000 C 
ATOM     32  C   UNL     1       1.577  13.334  20.585  0.00  0.00    +0.000 C 
BRANCH  31  33
ATOM     33  C   UNL     1       3.086  14.318  18.904  0.00  0.00    +0.000 C 
ATOM     34  N   UNL     1       3.845  14.085  18.062  0.00  0.00    +0.000 NA
ENDBRANCH  31  33
ENDBRANCH  22  26
ENDBRANCH   2  20
TORSDOF 7
ENDMDL
MODEL 6
REMARK VINA RESULT:      -8.5      5.674      9.132
REMARK  Name = 
REMARK  9 active torsions:
REMARK  status: ('A' for Active; 'I' for Inactive)
REMARK    1  A    between atoms: C_1  and  C_2
REMARK    2  A    between atoms: C_2  and  C_3
REMARK    3  A    between atoms: C_2  and  C_10
REMARK    4  A    between atoms: C_3  and  C_4
REMARK    5  A    between atoms: N_8  and  C_9
REMARK    6  A    between atoms: C_14  and  N_15
REMARK    7  A    between atoms: C_16  and  C_18
REMARK    8  A    between atoms: C_20  and  C_21
REMARK    9  A    between atoms: C_26  and  C_27
REMARK                            x       y       z     vdW  Elec       q    Type
REMARK                         _______ _______ _______ _____ _____    ______ ____
ROOT
ATOM      1  N   UNL     1       2.165   7.665  18.865  0.00  0.00    +0.000 N 
ATOM      2  C   UNL     1       1.576   7.840  20.103  0.00  0.00    +0.000 C 
ATOM      3  O   UNL     1       1.561   7.030  21.028  0.00  0.00    +0.000 OA
ATOM      4  H   UNL     1       2.208   8.492  18.275  0.00  0.00    +0.000 HD
ENDROOT
BRANCH   1   9
ATOM      5  C   UNL     1       4.498   5.427  17.011  0.00  0.00    +0.000 A 
ATOM      6  C   UNL     1       4.093   4.177  17.513  0.00  0.00    +0.000 A 
ATOM      7  C   UNL     1       3.056   4.077  18.437  0.00  0.00    +0.000 A 
ATOM      8  C   UNL     1       2.418   5.218  18.895  0.00  0.00    +0.000 A 
ATOM      9  C   UNL     1       2.788   6.480  18.422  0.00  0.00    +0.000 A 
ATOM     10  C   UNL     1       3.806   6.573  17.462  0.00  0.00    +0.000 A 
BRANCH   5  12
ATOM     11  C   UNL     1       5.470   4.661  14.765  0.00  0.00    +0.000 C 
ATOM     12  C   UNL     1       5.631   5.587  15.984  0.00  0.00    +0.000 C 
BRANCH  12  13
ATOM     13  C   UNL     1       7.022   5.413  16.651  0.00  0.00    +0.000 C 
BRANCH  13  14
ATOM     14  C   UNL     1       7.503   6.638  17.368  0.00  0.00    +0.000 A 
ATOM     15  N   UNL     1       7.522   7.868  16.894  0.00  0.00    +0.000 NA
ATOM     16  N   UNL     1       8.087   8.688  17.844  0.00  0.00    +0.000 NA
ATOM     17  C   UNL     1       8.387   7.947  18.882  0.00  0.00    +0.000 A 
ATOM     18  N   UNL     1       7.999   6.664  18.648  0.00  0.00    +0.000 N 
ATOM     19  C   UNL     1       8.073   5.575  19.583  0.00  0.00    +0.000 C 
ENDBRANCH  13  14
ENDBRANCH  12  13
ENDBRANCH   5  12
ENDBRANCH   1   9
BRANCH   2  20
ATOM     20  C   UNL     1       0.961   9.178  20.337  0.00  0.00    +0.000 A 
ATOM     21  C   UNL     1       0.328   9.783  19.265  0.00  0.00    +0.000 A 
ATOM     22  C   UNL     1      -0.348  10.975  19.478  0.00  0.00    +0.000 A 
ATOM     23  C   UNL     1      -0.318  11.553  20.746  0.00  0.00    +0.000 A 
ATOM     24  C   UNL     1       0.381  10.896  21.750  0.00  0.00    +0.000 A 
ATOM     25  N   UNL     1       1.016   9.709  21.584  0.00  0.00    +0.000 NA
BRANCH  22  26
ATOM     26  C   UNL     1      -1.009  11.678  18.348  0.00  0.00    +0.000 C 
ATOM     27  O   UNL     1      -0.618  12.802  18.049  0.00  0.00    +0.000 OA
ATOM     28  N   UNL     1      -2.005  11.011  17.643  0.00  0.00    +0.000 N 
ATOM     29  C   UNL     1      -2.509  11.567  16.397  0.00  0.00    +0.000 C 
ATOM     30  C   UNL     1      -3.854  10.881  16.174  0.00  0.00    +0.000 C 
ATOM     31  C   UNL     1      -4.318  10.519  17.584  0.00  0.00    +0.000 C 
ATOM     32  C   UNL     1      -3.006  10.138  18.258  0.00  0.00    +0.000 C 
BRANCH  31  33
ATOM     33  C   UNL     1      -4.945  11.659  18.272  0.00  0.00    +0.000 C 
ATOM     34  N   UNL     1      -5.445  12.560  18.799  0.00  0.00    +0.000 NA
ENDBRANCH  31  33
ENDBRANCH  22  26
ENDBRANCH   2  20
TORSDOF 7
ENDMDL
MODEL 7
REMARK VINA RESULT:      -8.5      6.937     10.201
REMARK  Name = 
REMARK  9 active torsions:
REMARK  status: ('A' for Active; 'I' for Inactive)
REMARK    1  A    between atoms: C_1  and  C_2
REMARK    2  A    between atoms: C_2  and  C_3
REMARK    3  A    between atoms: C_2  and  C_10
REMARK    4  A    between atoms: C_3  and  C_4
REMARK    5  A    between atoms: N_8  and  C_9
REMARK    6  A    between atoms: C_14  and  N_15
REMARK    7  A    between atoms: C_16  and  C_18
REMARK    8  A    between atoms: C_20  and  C_21
REMARK    9  A    between atoms: C_26  and  C_27
REMARK                            x       y       z     vdW  Elec       q    Type
REMARK                         _______ _______ _______ _____ _____    ______ ____
ROOT
ATOM      1  N   UNL     1       1.365   6.244  20.965  0.00  0.00    +0.000 N 
ATOM      2  C   UNL     1       1.722   7.455  20.402  0.00  0.00    +0.000 C 
ATOM      3  O   UNL     1       2.539   7.630  19.500  0.00  0.00    +0.000 OA
ATOM      4  H   UNL     1       0.569   6.269  21.597  0.00  0.00    +0.000 HD
ENDROOT
BRANCH   1   9
ATOM      5  C   UNL     1       2.951   3.544  18.945  0.00  0.00    +0.000 A 
ATOM      6  C   UNL     1       3.122   2.561  19.937  0.00  0.00    +0.000 A 
ATOM      7  C   UNL     1       2.707   2.785  21.248  0.00  0.00    +0.000 A 
ATOM      8  C   UNL     1       2.134   3.995  21.600  0.00  0.00    +0.000 A 
ATOM      9  C   UNL     1       1.943   4.999  20.647  0.00  0.00    +0.000 A 
ATOM     10  C   UNL     1       2.327   4.755  19.320  0.00  0.00    +0.000 A 
BRANCH   5  12
ATOM     11  C   UNL     1       4.278   2.101  17.291  0.00  0.00    +0.000 C 
ATOM     12  C   UNL     1       3.385   3.339  17.485  0.00  0.00    +0.000 C 
BRANCH  12  13
ATOM     13  C   UNL     1       4.054   4.619  16.914  0.00  0.00    +0.000 C 
BRANCH  13  14
ATOM     14  C   UNL     1       5.552   4.577  16.939  0.00  0.00    +0.000 A 
ATOM     15  N   UNL     1       6.347   4.282  15.930  0.00  0.00    +0.000 NA
ATOM     16  N   UNL     1       7.646   4.302  16.384  0.00  0.00    +0.000 NA
ATOM     17  C   UNL     1       7.620   4.622  17.654  0.00  0.00    +0.000 A 
ATOM     18  N   UNL     1       6.333   4.848  18.036  0.00  0.00    +0.000 N 
ATOM     19  C   UNL     1       5.905   5.310  19.328  0.00  0.00    +0.000 C 
ENDBRANCH  13  14
ENDBRANCH  12  13
ENDBRANCH   5  12
ENDBRANCH   1   9
BRANCH   2  20
ATOM     20  C   UNL     1       0.983   8.643  20.915  0.00  0.00    +0.000 A 
ATOM     21  C   UNL     1       0.431   9.501  19.979  0.00  0.00    +0.000 A 
ATOM     22  C   UNL     1      -0.355  10.553  20.424  0.00  0.00    +0.000 A 
ATOM     23  C   UNL     1      -0.514  10.747  21.795  0.00  0.00    +0.000 A 
ATOM     24  C   UNL     1       0.115   9.862  22.660  0.00  0.00    +0.000 A 
ATOM     25  N   UNL     1       0.854   8.799  22.256  0.00  0.00    +0.000 NA
BRANCH  22  26
ATOM     26  C   UNL     1      -0.936  11.521  19.457  0.00  0.00    +0.000 C 
ATOM     27  O   UNL     1      -0.900  12.716  19.731  0.00  0.00    +0.000 OA
ATOM     28  N   UNL     1      -1.446  11.035  18.257  0.00  0.00    +0.000 N 
ATOM     29  C   UNL     1      -1.806  11.960  17.194  0.00  0.00    +0.000 C 
ATOM     30  C   UNL     1      -2.738  11.168  16.281  0.00  0.00    +0.000 C 
ATOM     31  C   UNL     1      -3.363  10.129  17.210  0.00  0.00    +0.000 C 
ATOM     32  C   UNL     1      -2.197   9.785  18.128  0.00  0.00    +0.000 C 
BRANCH  31  33
ATOM     33  C   UNL     1      -4.488  10.679  17.983  0.00  0.00    +0.000 C 
ATOM     34  N   UNL     1      -5.366  11.108  18.604  0.00  0.00    +0.000 NA
ENDBRANCH  31  33
ENDBRANCH  22  26
ENDBRANCH   2  20
TORSDOF 7
ENDMDL
MODEL 8
REMARK VINA RESULT:      -8.4      5.230      6.841
REMARK  Name = 
REMARK  9 active torsions:
REMARK  status: ('A' for Active; 'I' for Inactive)
REMARK    1  A    between atoms: C_1  and  C_2
REMARK    2  A    between atoms: C_2  and  C_3
REMARK    3  A    between atoms: C_2  and  C_10
REMARK    4  A    between atoms: C_3  and  C_4
REMARK    5  A    between atoms: N_8  and  C_9
REMARK    6  A    between atoms: C_14  and  N_15
REMARK    7  A    between atoms: C_16  and  C_18
REMARK    8  A    between atoms: C_20  and  C_21
REMARK    9  A    between atoms: C_26  and  C_27
REMARK                            x       y       z     vdW  Elec       q    Type
REMARK                         _______ _______ _______ _____ _____    ______ ____
ROOT
ATOM      1  N   UNL     1       1.029   9.878  19.379  0.00  0.00    +0.000 N 
ATOM      2  C   UNL     1       1.765   9.106  18.499  0.00  0.00    +0.000 C 
ATOM      3  O   UNL     1       2.220   9.466  17.415  0.00  0.00    +0.000 OA
ATOM      4  H   UNL     1       0.859   9.464  20.292  0.00  0.00    +0.000 HD
ENDROOT
BRANCH   1   9
ATOM      5  C   UNL     1       1.098  13.603  19.292  0.00  0.00    +0.000 A 
ATOM      6  C   UNL     1      -0.143  13.859  18.682  0.00  0.00    +0.000 A 
ATOM      7  C   UNL     1      -0.992  12.817  18.318  0.00  0.00    +0.000 A 
ATOM      8  C   UNL     1      -0.615  11.502  18.536  0.00  0.00    +0.000 A 
ATOM      9  C   UNL     1       0.608  11.202  19.141  0.00  0.00    +0.000 A 
ATOM     10  C   UNL     1       1.443  12.256  19.541  0.00  0.00    +0.000 A 
BRANCH   5  12
ATOM     11  C   UNL     1       1.429  15.721  20.700  0.00  0.00    +0.000 C 
ATOM     12  C   UNL     1       2.064  14.720  19.719  0.00  0.00    +0.000 C 
BRANCH  12  13
ATOM     13  C   UNL     1       2.671  15.439  18.483  0.00  0.00    +0.000 C 
BRANCH  13  14
ATOM     14  C   UNL     1       3.911  16.220  18.792  0.00  0.00    +0.000 A 
ATOM     15  N   UNL     1       3.977  17.371  19.432  0.00  0.00    +0.000 NA
ATOM     16  N   UNL     1       5.291  17.778  19.457  0.00  0.00    +0.000 NA
ATOM     17  C   UNL     1       6.003  16.863  18.846  0.00  0.00    +0.000 A 
ATOM     18  N   UNL     1       5.188  15.846  18.451  0.00  0.00    +0.000 N 
ATOM     19  C   UNL     1       5.609  14.620  17.832  0.00  0.00    +0.000 C 
ENDBRANCH  13  14
ENDBRANCH  12  13
ENDBRANCH   5  12
ENDBRANCH   1   9
BRANCH   2  20
ATOM     20  C   UNL     1       2.075   7.724  18.963  0.00  0.00    +0.000 A 
ATOM     21  C   UNL     1       2.691   6.874  18.061  0.00  0.00    +0.000 A 
ATOM     22  C   UNL     1       3.091   5.620  18.497  0.00  0.00    +0.000 A 
ATOM     23  C   UNL     1       2.808   5.235  19.806  0.00  0.00    +0.000 A 
ATOM     24  C   UNL     1       2.146   6.139  20.626  0.00  0.00    +0.000 A 
ATOM     25  N   UNL     1       1.779   7.387  20.243  0.00  0.00    +0.000 NA
BRANCH  22  26
ATOM     26  C   UNL     1       3.721   4.660  17.552  0.00  0.00    +0.000 C 
ATOM     27  O   UNL     1       3.383   3.482  17.602  0.00  0.00    +0.000 OA
ATOM     28  N   UNL     1       4.627   5.148  16.616  0.00  0.00    +0.000 N 
ATOM     29  C   UNL     1       5.084   4.292  15.533  0.00  0.00    +0.000 C 
ATOM     30  C   UNL     1       6.366   4.946  15.027  0.00  0.00    +0.000 C 
ATOM     31  C   UNL     1       6.896   5.703  16.244  0.00  0.00    +0.000 C 
ATOM     32  C   UNL     1       5.609   6.199  16.890  0.00  0.00    +0.000 C 
BRANCH  31  33
ATOM     33  C   UNL     1       7.636   4.825  17.165  0.00  0.00    +0.000 C 
ATOM     34  N   UNL     1       8.220   4.148  17.899  0.00  0.00    +0.000 NA
ENDBRANCH  31  33
ENDBRANCH  22  26
ENDBRANCH   2  20
TORSDOF 7
ENDMDL
MODEL 9
REMARK VINA RESULT:      -8.4      2.386      2.821
REMARK  Name = 
REMARK  9 active torsions:
REMARK  status: ('A' for Active; 'I' for Inactive)
REMARK    1  A    between atoms: C_1  and  C_2
REMARK    2  A    between atoms: C_2  and  C_3
REMARK    3  A    between atoms: C_2  and  C_10
REMARK    4  A    between atoms: C_3  and  C_4
REMARK    5  A    between atoms: N_8  and  C_9
REMARK    6  A    between atoms: C_14  and  N_15
REMARK    7  A    between atoms: C_16  and  C_18
REMARK    8  A    between atoms: C_20  and  C_21
REMARK    9  A    between atoms: C_26  and  C_27
REMARK                            x       y       z     vdW  Elec       q    Type
REMARK                         _______ _______ _______ _____ _____    ______ ____
ROOT
ATOM      1  N   UNL     1       7.745   9.095  17.625  0.00  0.00    +0.000 N 
ATOM      2  C   UNL     1       7.847   7.770  18.006  0.00  0.00    +0.000 C 
ATOM      3  O   UNL     1       8.547   7.320  18.911  0.00  0.00    +0.000 OA
ATOM      4  H   UNL     1       7.010   9.305  16.955  0.00  0.00    +0.000 HD
ENDROOT
BRANCH   1   9
ATOM      5  C   UNL     1       8.832  12.579  18.376  0.00  0.00    +0.000 A 
ATOM      6  C   UNL     1       9.921  12.320  19.228  0.00  0.00    +0.000 A 
ATOM      7  C   UNL     1      10.296  11.014  19.536  0.00  0.00    +0.000 A 
ATOM      8  C   UNL     1       9.584   9.945  19.020  0.00  0.00    +0.000 A 
ATOM      9  C   UNL     1       8.496  10.156  18.168  0.00  0.00    +0.000 A 
ATOM     10  C   UNL     1       8.146  11.472  17.830  0.00  0.00    +0.000 A 
BRANCH   5  12
ATOM     11  C   UNL     1       9.563  14.922  17.632  0.00  0.00    +0.000 C 
ATOM     12  C   UNL     1       8.386  14.002  18.001  0.00  0.00    +0.000 C 
BRANCH  12  13
ATOM     13  C   UNL     1       7.504  14.626  19.117  0.00  0.00    +0.000 C 
BRANCH  13  14
ATOM     14  C   UNL     1       6.173  15.111  18.629  0.00  0.00    +0.000 A 
ATOM     15  N   UNL     1       5.307  14.433  17.902  0.00  0.00    +0.000 NA
ATOM     16  N   UNL     1       4.240  15.256  17.622  0.00  0.00    +0.000 NA
ATOM     17  C   UNL     1       4.467  16.412  18.196  0.00  0.00    +0.000 A 
ATOM     18  N   UNL     1       5.645  16.355  18.875  0.00  0.00    +0.000 N 
ATOM     19  C   UNL     1       6.191  17.392  19.706  0.00  0.00    +0.000 C 
ENDBRANCH  13  14
ENDBRANCH  12  13
ENDBRANCH   5  12
ENDBRANCH   1   9
BRANCH   2  20
ATOM     20  C   UNL     1       6.962   6.821  17.271  0.00  0.00    +0.000 A 
ATOM     21  C   UNL     1       5.701   6.594  17.794  0.00  0.00    +0.000 A 
ATOM     22  C   UNL     1       4.816   5.804  17.076  0.00  0.00    +0.000 A 
ATOM     23  C   UNL     1       5.243   5.218  15.886  0.00  0.00    +0.000 A 
ATOM     24  C   UNL     1       6.542   5.467  15.463  0.00  0.00    +0.000 A 
ATOM     25  N   UNL     1       7.417   6.268  16.120  0.00  0.00    +0.000 NA
BRANCH  22  26
ATOM     26  C   UNL     1       3.465   5.502  17.618  0.00  0.00    +0.000 C 
ATOM     27  O   UNL     1       2.774   6.432  18.018  0.00  0.00    +0.000 OA
ATOM     28  N   UNL     1       3.022   4.184  17.600  0.00  0.00    +0.000 N 
ATOM     29  C   UNL     1       1.631   3.881  17.901  0.00  0.00    +0.000 C 
ATOM     30  C   UNL     1       1.618   2.397  18.258  0.00  0.00    +0.000 C 
ATOM     31  C   UNL     1       3.029   2.135  18.783  0.00  0.00    +0.000 C 
ATOM     32  C   UNL     1       3.872   3.024  17.877  0.00  0.00    +0.000 C 
BRANCH  31  33
ATOM     33  C   UNL     1       3.181   2.535  20.191  0.00  0.00    +0.000 C 
ATOM     34  N   UNL     1       3.316   2.847  21.298  0.00  0.00    +0.000 NA
ENDBRANCH  31  33
ENDBRANCH  22  26
ENDBRANCH   2  20
TORSDOF 7
ENDMDL
