MODEL 1
REMARK VINA RESULT:      -8.6      0.000      0.000
REMARK  Name = 
REMARK  10 active torsions:
REMARK  status: ('A' for Active; 'I' for Inactive)
REMARK    1  A    between atoms: C_1  and  C_2
REMARK    2  A    between atoms: C_2  and  C_3
REMARK    3  A    between atoms: C_2  and  C_10
REMARK    4  A    between atoms: C_3  and  C_4
REMARK    5  A    between atoms: N_8  and  C_9
REMARK    6  A    between atoms: C_14  and  N_15
REMARK    7  A    between atoms: C_16  and  C_18
REMARK    8  A    between atoms: C_20  and  N_21
REMARK    9  A    between atoms: N_21  and  C_22
REMARK   10  A    between atoms: C_25  and  O_26
REMARK                            x       y       z     vdW  Elec       q    Type
REMARK                         _______ _______ _______ _____ _____    ______ ____
ROOT
ATOM      1  N   UNL     1       1.945   8.653  17.831  0.00  0.00    +0.000 N 
ATOM      2  C   UNL     1       2.395   7.706  18.745  0.00  0.00    +0.000 C 
ATOM      3  O   UNL     1       2.012   7.581  19.903  0.00  0.00    +0.000 OA
ATOM      4  H   UNL     1       2.282   8.543  16.880  0.00  0.00    +0.000 HD
ENDROOT
BRANCH   1   9
ATOM      5  C   UNL     1      -1.294  10.519  17.997  0.00  0.00    +0.000 A 
ATOM      6  C   UNL     1      -0.876  11.695  18.642  0.00  0.00    +0.000 A 
ATOM      7  C   UNL     1       0.456  11.876  18.997  0.00  0.00    +0.000 A 
ATOM      8  C   UNL     1       1.392  10.882  18.731  0.00  0.00    +0.000 A 
ATOM      9  C   UNL     1       1.019   9.687  18.112  0.00  0.00    +0.000 A 
ATOM     10  C   UNL     1      -0.325   9.520  17.738  0.00  0.00    +0.000 A 
BRANCH   5  12
ATOM     11  C   UNL     1      -2.872   9.689  16.142  0.00  0.00    +0.000 C 
ATOM     12  C   UNL     1      -2.745  10.302  17.551  0.00  0.00    +0.000 C 
BRANCH  12  13
ATOM     13  C   UNL     1      -3.557  11.616  17.671  0.00  0.00    +0.000 C 
BRANCH  13  14
ATOM     14  C   UNL     1      -4.777  11.472  18.521  0.00  0.00    +0.000 A 
ATOM     15  N   UNL     1      -5.817  10.701  18.273  0.00  0.00    +0.000 NA
ATOM     16  N   UNL     1      -6.755  10.914  19.257  0.00  0.00    +0.000 NA
ATOM     17  C   UNL     1      -6.263  11.797  20.090  0.00  0.00    +0.000 A 
ATOM     18  N   UNL     1      -5.011  12.147  19.691  0.00  0.00    +0.000 N 
ATOM     19  C   UNL     1      -4.118  13.038  20.380  0.00  0.00    +0.000 C 
ENDBRANCH  13  14
ENDBRANCH  12  13
ENDBRANCH   5  12
ENDBRANCH   1   9
BRANCH   2  20
ATOM     20  C   UNL     1       3.419   6.741  18.234  0.00  0.00    +0.000 A 
ATOM     21  C   UNL     1       3.690   5.608  19.003  0.00  0.00    +0.000 A 
ATOM     22  C   UNL     1       4.643   4.686  18.577  0.00  0.00    +0.000 A 
ATOM     23  C   UNL     1       5.290   4.956  17.374  0.00  0.00    +0.000 A 
ATOM     24  C   UNL     1       4.952   6.108  16.660  0.00  0.00    +0.000 A 
ATOM     25  N   UNL     1       4.029   7.016  17.054  0.00  0.00    +0.000 NA
BRANCH  22  26
ATOM     26  N   UNL     1       4.900   3.594  19.402  0.00  0.00    +0.000 N 
ATOM     27  H   UNL     1       5.346   3.875  20.275  0.00  0.00    +0.000 HD
BRANCH  26  28
ATOM     28  C   UNL     1       4.026   2.428  19.493  0.00  0.00    +0.000 C 
ATOM     29  C   UNL     1       3.375   2.129  18.128  0.00  0.00    +0.000 C 
ATOM     30  C   UNL     1       1.896   2.459  18.264  0.00  0.00    +0.000 C 
ATOM     31  C   UNL     1       1.601   2.277  19.741  0.00  0.00    +0.000 C 
ATOM     32  C   UNL     1       2.866   2.727  20.453  0.00  0.00    +0.000 C 
BRANCH  31  33
ATOM     33  O   UNL     1       0.478   3.048  20.135  0.00  0.00    +0.000 OA
ATOM     34  H   UNL     1      -0.145   2.460  20.599  0.00  0.00    +0.000 HD
ENDBRANCH  31  33
ENDBRANCH  26  28
ENDBRANCH  22  26
ENDBRANCH   2  20
TORSDOF 8
ENDMDL
MODEL 2
REMARK VINA RESULT:      -8.5      0.606      1.121
REMARK  Name = 
REMARK  10 active torsions:
REMARK  status: ('A' for Active; 'I' for Inactive)
REMARK    1  A    between atoms: C_1  and  C_2
REMARK    2  A    between atoms: C_2  and  C_3
REMARK    3  A    between atoms: C_2  and  C_10
REMARK    4  A    between atoms: C_3  and  C_4
REMARK    5  A    between atoms: N_8  and  C_9
REMARK    6  A    between atoms: C_14  and  N_15
REMARK    7  A    between atoms: C_16  and  C_18
REMARK    8  A    between atoms: C_20  and  N_21
REMARK    9  A    between atoms: N_21  and  C_22
REMARK   10  A    between atoms: C_25  and  O_26
REMARK                            x       y       z     vdW  Elec       q    Type
REMARK                         _______ _______ _______ _____ _____    ______ ____
ROOT
ATOM      1  N   UNL     1       2.180   8.683  17.803  0.00  0.00    +0.000 N 
ATOM      2  C   UNL     1       2.535   7.658  18.674  0.00  0.00    +0.000 C 
ATOM      3  O   UNL     1       2.108   7.497  19.811  0.00  0.00    +0.000 OA
ATOM      4  H   UNL     1       2.539   8.603  16.857  0.00  0.00    +0.000 HD
ENDROOT
BRANCH   1   9
ATOM      5  C   UNL     1      -0.976  10.643  18.252  0.00  0.00    +0.000 A 
ATOM      6  C   UNL     1      -0.454  11.859  18.723  0.00  0.00    +0.000 A 
ATOM      7  C   UNL     1       0.917  12.035  18.871  0.00  0.00    +0.000 A 
ATOM      8  C   UNL     1       1.792  10.996  18.567  0.00  0.00    +0.000 A 
ATOM      9  C   UNL     1       1.318   9.763  18.116  0.00  0.00    +0.000 A 
ATOM     10  C   UNL     1      -0.068   9.600  17.950  0.00  0.00    +0.000 A 
BRANCH   5  12
ATOM     11  C   UNL     1      -2.803   9.519  16.830  0.00  0.00    +0.000 C 
ATOM     12  C   UNL     1      -2.479  10.426  18.033  0.00  0.00    +0.000 C 
BRANCH  12  13
ATOM     13  C   UNL     1      -3.218  11.784  17.933  0.00  0.00    +0.000 C 
BRANCH  13  14
ATOM     14  C   UNL     1      -4.129  12.039  19.089  0.00  0.00    +0.000 A 
ATOM     15  N   UNL     1      -3.802  12.606  20.233  0.00  0.00    +0.000 NA
ATOM     16  N   UNL     1      -4.905  12.584  21.055  0.00  0.00    +0.000 NA
ATOM     17  C   UNL     1      -5.884  12.020  20.391  0.00  0.00    +0.000 A 
ATOM     18  N   UNL     1      -5.455  11.696  19.142  0.00  0.00    +0.000 N 
ATOM     19  C   UNL     1      -6.254  11.124  18.093  0.00  0.00    +0.000 C 
ENDBRANCH  13  14
ENDBRANCH  12  13
ENDBRANCH   5  12
ENDBRANCH   1   9
BRANCH   2  20
ATOM     20  C   UNL     1       3.508   6.654  18.138  0.00  0.00    +0.000 A 
ATOM     21  C   UNL     1       3.778   5.528  18.915  0.00  0.00    +0.000 A 
ATOM     22  C   UNL     1       4.683   4.569  18.466  0.00  0.00    +0.000 A 
ATOM     23  C   UNL     1       5.286   4.799  17.233  0.00  0.00    +0.000 A 
ATOM     24  C   UNL     1       4.952   5.948  16.512  0.00  0.00    +0.000 A 
ATOM     25  N   UNL     1       4.074   6.890  16.928  0.00  0.00    +0.000 NA
BRANCH  22  26
ATOM     26  N   UNL     1       4.943   3.485  19.300  0.00  0.00    +0.000 N 
ATOM     27  H   UNL     1       5.437   3.765  20.147  0.00  0.00    +0.000 HD
BRANCH  26  28
ATOM     28  C   UNL     1       4.037   2.349  19.453  0.00  0.00    +0.000 C 
ATOM     29  C   UNL     1       3.326   2.038  18.121  0.00  0.00    +0.000 C 
ATOM     30  C   UNL     1       1.865   2.419  18.302  0.00  0.00    +0.000 C 
ATOM     31  C   UNL     1       1.619   2.282  19.793  0.00  0.00    +0.000 C 
ATOM     32  C   UNL     1       2.924   2.709  20.447  0.00  0.00    +0.000 C 
BRANCH  31  33
ATOM     33  O   UNL     1       0.537   3.098  20.208  0.00  0.00    +0.000 OA
ATOM     34  H   UNL     1       0.798   3.555  21.027  0.00  0.00    +0.000 HD
ENDBRANCH  31  33
ENDBRANCH  26  28
ENDBRANCH  22  26
ENDBRANCH   2  20
TORSDOF 8
ENDMDL
MODEL 3
REMARK VINA RESULT:      -8.3      1.618      2.030
REMARK  Name = 
REMARK  10 active torsions:
REMARK  status: ('A' for Active; 'I' for Inactive)
REMARK    1  A    between atoms: C_1  and  C_2
REMARK    2  A    between atoms: C_2  and  C_3
REMARK    3  A    between atoms: C_2  and  C_10
REMARK    4  A    between atoms: C_3  and  C_4
REMARK    5  A    between atoms: N_8  and  C_9
REMARK    6  A    between atoms: C_14  and  N_15
REMARK    7  A    between atoms: C_16  and  C_18
REMARK    8  A    between atoms: C_20  and  N_21
REMARK    9  A    between atoms: N_21  and  C_22
REMARK   10  A    between atoms: C_25  and  O_26
REMARK                            x       y       z     vdW  Elec       q    Type
REMARK                         _______ _______ _______ _____ _____    ______ ____
ROOT
ATOM      1  N   UNL     1       0.545   9.342  18.860  0.00  0.00    +0.000 N 
ATOM      2  C   UNL     1       1.691   9.401  18.073  0.00  0.00    +0.000 C 
ATOM      3  O   UNL     1       2.039  10.347  17.376  0.00  0.00    +0.000 OA
ATOM      4  H   UNL     1       0.467   8.531  19.465  0.00  0.00    +0.000 HD
ENDROOT
BRANCH   1   9
ATOM      5  C   UNL     1      -2.687  11.122  18.239  0.00  0.00    +0.000 A 
ATOM      6  C   UNL     1      -2.492  12.278  19.012  0.00  0.00    +0.000 A 
ATOM      7  C   UNL     1      -1.306  12.475  19.711  0.00  0.00    +0.000 A 
ATOM      8  C   UNL     1      -0.299  11.516  19.663  0.00  0.00    +0.000 A 
ATOM      9  C   UNL     1      -0.456  10.341  18.926  0.00  0.00    +0.000 A 
ATOM     10  C   UNL     1      -1.650  10.158  18.207  0.00  0.00    +0.000 A 
BRANCH   5  12
ATOM     11  C   UNL     1      -3.732  10.917  15.896  0.00  0.00    +0.000 C 
ATOM     12  C   UNL     1      -3.963  10.890  17.420  0.00  0.00    +0.000 C 
BRANCH  12  13
ATOM     13  C   UNL     1      -5.072  11.885  17.842  0.00  0.00    +0.000 C 
BRANCH  13  14
ATOM     14  C   UNL     1      -5.963  11.347  18.914  0.00  0.00    +0.000 A 
ATOM     15  N   UNL     1      -6.569  10.176  18.913  0.00  0.00    +0.000 NA
ATOM     16  N   UNL     1      -7.351  10.096  20.042  0.00  0.00    +0.000 NA
ATOM     17  C   UNL     1      -7.195  11.210  20.714  0.00  0.00    +0.000 A 
ATOM     18  N   UNL     1      -6.305  12.008  20.065  0.00  0.00    +0.000 N 
ATOM     19  C   UNL     1      -5.819  13.282  20.520  0.00  0.00    +0.000 C 
ENDBRANCH  13  14
ENDBRANCH  12  13
ENDBRANCH   5  12
ENDBRANCH   1   9
BRANCH   2  20
ATOM     20  C   UNL     1       2.581   8.199  18.124  0.00  0.00    +0.000 A 
ATOM     21  C   UNL     1       2.426   7.316  19.192  0.00  0.00    +0.000 A 
ATOM     22  C   UNL     1       3.236   6.188  19.290  0.00  0.00    +0.000 A 
ATOM     23  C   UNL     1       4.184   6.002  18.288  0.00  0.00    +0.000 A 
ATOM     24  C   UNL     1       4.267   6.929  17.246  0.00  0.00    +0.000 A 
ATOM     25  N   UNL     1       3.489   8.029  17.130  0.00  0.00    +0.000 NA
BRANCH  22  26
ATOM     26  N   UNL     1       3.064   5.361  20.398  0.00  0.00    +0.000 N 
ATOM     27  H   UNL     1       3.565   5.710  21.214  0.00  0.00    +0.000 HD
BRANCH  26  28
ATOM     28  C   UNL     1       1.823   4.646  20.685  0.00  0.00    +0.000 C 
ATOM     29  C   UNL     1       2.080   3.484  21.665  0.00  0.00    +0.000 C 
ATOM     30  C   UNL     1       1.900   2.195  20.876  0.00  0.00    +0.000 C 
ATOM     31  C   UNL     1       0.942   2.564  19.759  0.00  0.00    +0.000 C 
ATOM     32  C   UNL     1       1.293   3.998  19.397  0.00  0.00    +0.000 C 
BRANCH  31  33
ATOM     33  O   UNL     1       1.092   1.694  18.651  0.00  0.00    +0.000 OA
ATOM     34  H   UNL     1       0.292   1.764  18.100  0.00  0.00    +0.000 HD
ENDBRANCH  31  33
ENDBRANCH  26  28
ENDBRANCH  22  26
ENDBRANCH   2  20
TORSDOF 8
ENDMDL
MODEL 4
REMARK VINA RESULT:      -8.2      6.622      8.686
REMARK  Name = 
REMARK  10 active torsions:
REMARK  status: ('A' for Active; 'I' for Inactive)
REMARK    1  A    between atoms: C_1  and  C_2
REMARK    2  A    between atoms: C_2  and  C_3
REMARK    3  A    between atoms: C_2  and  C_10
REMARK    4  A    between atoms: C_3  and  C_4
REMARK    5  A    between atoms: N_8  and  C_9
REMARK    6  A    between atoms: C_14  and  N_15
REMARK    7  A    between atoms: C_16  and  C_18
REMARK    8  A    between atoms: C_20  and  N_21
REMARK    9  A    between atoms: N_21  and  C_22
REMARK   10  A    between atoms: C_25  and  O_26
REMARK                            x       y       z     vdW  Elec       q    Type
REMARK                         _______ _______ _______ _____ _____    ______ ____
ROOT
ATOM      1  N   UNL     1       7.765   8.789  17.665  0.00  0.00    +0.000 N 
ATOM      2  C   UNL     1       7.737   7.441  18.009  0.00  0.00    +0.000 C 
ATOM      3  O   UNL     1       8.329   6.924  18.951  0.00  0.00    +0.000 OA
ATOM      4  H   UNL     1       7.126   9.069  16.928  0.00  0.00    +0.000 HD
ENDROOT
BRANCH   1   9
ATOM      5  C   UNL     1       9.604  12.002  18.203  0.00  0.00    +0.000 A 
ATOM      6  C   UNL     1      10.094  11.799  19.504  0.00  0.00    +0.000 A 
ATOM      7  C   UNL     1       9.837  10.614  20.184  0.00  0.00    +0.000 A 
ATOM      8  C   UNL     1       9.075   9.615  19.585  0.00  0.00    +0.000 A 
ATOM      9  C   UNL     1       8.549   9.781  18.302  0.00  0.00    +0.000 A 
ATOM     10  C   UNL     1       8.830  10.974  17.614  0.00  0.00    +0.000 A 
BRANCH   5  12
ATOM     11  C   UNL     1      11.344  13.341  16.860  0.00  0.00    +0.000 C 
ATOM     12  C   UNL     1       9.904  13.278  17.405  0.00  0.00    +0.000 C 
BRANCH  12  13
ATOM     13  C   UNL     1       9.559  14.537  18.239  0.00  0.00    +0.000 C 
BRANCH  13  14
ATOM     14  C   UNL     1       8.090  14.707  18.459  0.00  0.00    +0.000 A 
ATOM     15  N   UNL     1       7.150  14.655  17.537  0.00  0.00    +0.000 NA
ATOM     16  N   UNL     1       5.944  14.936  18.136  0.00  0.00    +0.000 NA
ATOM     17  C   UNL     1       6.171  15.138  19.412  0.00  0.00    +0.000 A 
ATOM     18  N   UNL     1       7.496  14.968  19.667  0.00  0.00    +0.000 N 
ATOM     19  C   UNL     1       8.128  15.035  20.956  0.00  0.00    +0.000 C 
ENDBRANCH  13  14
ENDBRANCH  12  13
ENDBRANCH   5  12
ENDBRANCH   1   9
BRANCH   2  20
ATOM     20  C   UNL     1       6.873   6.567  17.155  0.00  0.00    +0.000 A 
ATOM     21  C   UNL     1       5.573   6.310  17.589  0.00  0.00    +0.000 A 
ATOM     22  C   UNL     1       4.733   5.494  16.835  0.00  0.00    +0.000 A 
ATOM     23  C   UNL     1       5.256   4.963  15.659  0.00  0.00    +0.000 A 
ATOM     24  C   UNL     1       6.566   5.279  15.291  0.00  0.00    +0.000 A 
ATOM     25  N   UNL     1       7.398   6.071  16.006  0.00  0.00    +0.000 NA
BRANCH  22  26
ATOM     26  N   UNL     1       3.458   5.240  17.336  0.00  0.00    +0.000 N 
ATOM     27  H   UNL     1       2.751   5.824  16.888  0.00  0.00    +0.000 HD
BRANCH  26  28
ATOM     28  C   UNL     1       3.004   3.916  17.753  0.00  0.00    +0.000 C 
ATOM     29  C   UNL     1       2.234   4.001  19.085  0.00  0.00    +0.000 C 
ATOM     30  C   UNL     1       3.107   3.339  20.141  0.00  0.00    +0.000 C 
ATOM     31  C   UNL     1       3.954   2.347  19.366  0.00  0.00    +0.000 C 
ATOM     32  C   UNL     1       4.219   3.018  18.028  0.00  0.00    +0.000 C 
BRANCH  31  33
ATOM     33  O   UNL     1       5.160   2.061  20.053  0.00  0.00    +0.000 OA
ATOM     34  H   UNL     1       5.657   1.404  19.533  0.00  0.00    +0.000 HD
ENDBRANCH  31  33
ENDBRANCH  26  28
ENDBRANCH  22  26
ENDBRANCH   2  20
TORSDOF 8
ENDMDL
MODEL 5
REMARK VINA RESULT:      -8.2      2.475      3.983
REMARK  Name = 
REMARK  10 active torsions:
REMARK  status: ('A' for Active; 'I' for Inactive)
REMARK    1  A    between atoms: C_1  and  C_2
REMARK    2  A    between atoms: C_2  and  C_3
REMARK    3  A    between atoms: C_2  and  C_10
REMARK    4  A    between atoms: C_3  and  C_4
REMARK    5  A    between atoms: N_8  and  C_9
REMARK    6  A    between atoms: C_14  and  N_15
REMARK    7  A    between atoms: C_16  and  C_18
REMARK    8  A    between atoms: C_20  and  N_21
REMARK    9  A    between atoms: N_21  and  C_22
REMARK   10  A    between atoms: C_25  and  O_26
REMARK                            x       y       z     vdW  Elec       q    Type
REMARK                         _______ _______ _______ _____ _____    ______ ____
ROOT
ATOM      1  N   UNL     1       1.278   7.505  21.067  0.00  0.00    +0.000 N 
ATOM      2  C   UNL     1       2.040   7.158  19.956  0.00  0.00    +0.000 C 
ATOM      3  O   UNL     1       2.324   7.894  19.018  0.00  0.00    +0.000 OA
ATOM      4  H   UNL     1       1.236   6.811  21.807  0.00  0.00    +0.000 HD
ENDROOT
BRANCH   1   9
ATOM      5  C   UNL     1      -0.430  10.739  20.277  0.00  0.00    +0.000 A 
ATOM      6  C   UNL     1      -0.655  11.230  21.574  0.00  0.00    +0.000 A 
ATOM      7  C   UNL     1      -0.233  10.514  22.688  0.00  0.00    +0.000 A 
ATOM      8  C   UNL     1       0.408   9.289  22.531  0.00  0.00    +0.000 A 
ATOM      9  C   UNL     1       0.634   8.751  21.263  0.00  0.00    +0.000 A 
ATOM     10  C   UNL     1       0.222   9.490  20.141  0.00  0.00    +0.000 A 
BRANCH   5  12
ATOM     11  C   UNL     1      -0.359  12.984  19.021  0.00  0.00    +0.000 C 
ATOM     12  C   UNL     1      -0.842  11.520  19.023  0.00  0.00    +0.000 C 
BRANCH  12  13
ATOM     13  C   UNL     1      -2.372  11.430  18.801  0.00  0.00    +0.000 C 
BRANCH  13  14
ATOM     14  C   UNL     1      -2.735  10.907  17.449  0.00  0.00    +0.000 A 
ATOM     15  N   UNL     1      -1.992  10.132  16.684  0.00  0.00    +0.000 NA
ATOM     16  N   UNL     1      -2.655   9.941  15.493  0.00  0.00    +0.000 NA
ATOM     17  C   UNL     1      -3.793  10.588  15.563  0.00  0.00    +0.000 A 
ATOM     18  N   UNL     1      -3.903  11.178  16.783  0.00  0.00    +0.000 N 
ATOM     19  C   UNL     1      -5.035  11.919  17.268  0.00  0.00    +0.000 C 
ENDBRANCH  13  14
ENDBRANCH  12  13
ENDBRANCH   5  12
ENDBRANCH   1   9
BRANCH   2  20
ATOM     20  C   UNL     1       2.577   5.761  19.942  0.00  0.00    +0.000 A 
ATOM     21  C   UNL     1       3.871   5.564  19.459  0.00  0.00    +0.000 A 
ATOM     22  C   UNL     1       4.412   4.282  19.416  0.00  0.00    +0.000 A 
ATOM     23  C   UNL     1       3.607   3.240  19.868  0.00  0.00    +0.000 A 
ATOM     24  C   UNL     1       2.326   3.525  20.346  0.00  0.00    +0.000 A 
ATOM     25  N   UNL     1       1.781   4.762  20.399  0.00  0.00    +0.000 NA
BRANCH  22  26
ATOM     26  N   UNL     1       5.694   4.138  18.889  0.00  0.00    +0.000 N 
ATOM     27  H   UNL     1       6.302   3.603  19.508  0.00  0.00    +0.000 HD
BRANCH  26  28
ATOM     28  C   UNL     1       5.967   3.990  17.462  0.00  0.00    +0.000 C 
ATOM     29  C   UNL     1       7.345   4.582  17.108  0.00  0.00    +0.000 C 
ATOM     30  C   UNL     1       7.088   5.835  16.284  0.00  0.00    +0.000 C 
ATOM     31  C   UNL     1       5.742   5.588  15.629  0.00  0.00    +0.000 C 
ATOM     32  C   UNL     1       4.943   4.801  16.655  0.00  0.00    +0.000 C 
BRANCH  31  33
ATOM     33  O   UNL     1       5.105   6.810  15.297  0.00  0.00    +0.000 OA
ATOM     34  H   UNL     1       5.459   7.505  15.881  0.00  0.00    +0.000 HD
ENDBRANCH  31  33
ENDBRANCH  26  28
ENDBRANCH  22  26
ENDBRANCH   2  20
TORSDOF 8
ENDMDL
MODEL 6
REMARK VINA RESULT:      -8.2      1.599      2.192
REMARK  Name = 
REMARK  10 active torsions:
REMARK  status: ('A' for Active; 'I' for Inactive)
REMARK    1  A    between atoms: C_1  and  C_2
REMARK    2  A    between atoms: C_2  and  C_3
REMARK    3  A    between atoms: C_2  and  C_10
REMARK    4  A    between atoms: C_3  and  C_4
REMARK    5  A    between atoms: N_8  and  C_9
REMARK    6  A    between atoms: C_14  and  N_15
REMARK    7  A    between atoms: C_16  and  C_18
REMARK    8  A    between atoms: C_20  and  N_21
REMARK    9  A    between atoms: N_21  and  C_22
REMARK   10  A    between atoms: C_25  and  O_26
REMARK                            x       y       z     vdW  Elec       q    Type
REMARK                         _______ _______ _______ _____ _____    ______ ____
ROOT
ATOM      1  N   UNL     1       2.443   7.493  19.755  0.00  0.00    +0.000 N 
ATOM      2  C   UNL     1       2.793   7.453  18.409  0.00  0.00    +0.000 C 
ATOM      3  O   UNL     1       2.397   8.218  17.537  0.00  0.00    +0.000 OA
ATOM      4  H   UNL     1       2.953   6.859  20.362  0.00  0.00    +0.000 HD
ENDROOT
BRANCH   1   9
ATOM      5  C   UNL     1       0.047  10.349  20.073  0.00  0.00    +0.000 A 
ATOM      6  C   UNL     1      -0.369  10.183  21.405  0.00  0.00    +0.000 A 
ATOM      7  C   UNL     1       0.149   9.158  22.189  0.00  0.00    +0.000 A 
ATOM      8  C   UNL     1       1.078   8.271  21.656  0.00  0.00    +0.000 A 
ATOM      9  C   UNL     1       1.504   8.382  20.331  0.00  0.00    +0.000 A 
ATOM     10  C   UNL     1       0.991   9.433  19.551  0.00  0.00    +0.000 A 
BRANCH   5  12
ATOM     11  C   UNL     1       0.610  12.539  18.845  0.00  0.00    +0.000 C 
ATOM     12  C   UNL     1      -0.468  11.493  19.191  0.00  0.00    +0.000 C 
BRANCH  12  13
ATOM     13  C   UNL     1      -1.715  12.156  19.828  0.00  0.00    +0.000 C 
BRANCH  13  14
ATOM     14  C   UNL     1      -2.956  11.962  19.019  0.00  0.00    +0.000 A 
ATOM     15  N   UNL     1      -3.020  11.529  17.776  0.00  0.00    +0.000 NA
ATOM     16  N   UNL     1      -4.336  11.566  17.375  0.00  0.00    +0.000 NA
ATOM     17  C   UNL     1      -5.047  12.005  18.385  0.00  0.00    +0.000 A 
ATOM     18  N   UNL     1      -4.230  12.230  19.449  0.00  0.00    +0.000 N 
ATOM     19  C   UNL     1      -4.641  12.650  20.760  0.00  0.00    +0.000 C 
ENDBRANCH  13  14
ENDBRANCH  12  13
ENDBRANCH   5  12
ENDBRANCH   1   9
BRANCH   2  20
ATOM     20  C   UNL     1       3.769   6.387  18.020  0.00  0.00    +0.000 A 
ATOM     21  C   UNL     1       3.940   5.309  18.888  0.00  0.00    +0.000 A 
ATOM     22  C   UNL     1       4.844   4.297  18.576  0.00  0.00    +0.000 A 
ATOM     23  C   UNL     1       5.548   4.424  17.382  0.00  0.00    +0.000 A 
ATOM     24  C   UNL     1       5.310   5.531  16.563  0.00  0.00    +0.000 A 
ATOM     25  N   UNL     1       4.435   6.524  16.845  0.00  0.00    +0.000 NA
BRANCH  22  26
ATOM     26  N   UNL     1       5.003   3.264  19.497  0.00  0.00    +0.000 N 
ATOM     27  H   UNL     1       5.510   3.569  20.327  0.00  0.00    +0.000 HD
BRANCH  26  28
ATOM     28  C   UNL     1       4.002   2.225  19.724  0.00  0.00    +0.000 C 
ATOM     29  C   UNL     1       3.309   1.840  18.402  0.00  0.00    +0.000 C 
ATOM     30  C   UNL     1       1.879   2.352  18.489  0.00  0.00    +0.000 C 
ATOM     31  C   UNL     1       1.577   2.384  19.976  0.00  0.00    +0.000 C 
ATOM     32  C   UNL     1       2.892   2.769  20.635  0.00  0.00    +0.000 C 
BRANCH  31  33
ATOM     33  O   UNL     1       0.554   3.319  20.268  0.00  0.00    +0.000 OA
ATOM     34  H   UNL     1       0.006   3.429  19.470  0.00  0.00    +0.000 HD
ENDBRANCH  31  33
ENDBRANCH  26  28
ENDBRANCH  22  26
ENDBRANCH   2  20
TORSDOF 8
ENDMDL
MODEL 7
REMARK VINA RESULT:      -8.2      3.895     10.244
REMARK  Name = 
REMARK  10 active torsions:
REMARK  status: ('A' for Active; 'I' for Inactive)
REMARK    1  A    between atoms: C_1  and  C_2
REMARK    2  A    between atoms: C_2  and  C_3
REMARK    3  A    between atoms: C_2  and  C_10
REMARK    4  A    between atoms: C_3  and  C_4
REMARK    5  A    between atoms: N_8  and  C_9
REMARK    6  A    between atoms: C_14  and  N_15
REMARK    7  A    between atoms: C_16  and  C_18
REMARK    8  A    between atoms: C_20  and  N_21
REMARK    9  A    between atoms: N_21  and  C_22
REMARK   10  A    between atoms: C_25  and  O_26
REMARK                            x       y       z     vdW  Elec       q    Type
REMARK                         _______ _______ _______ _____ _____    ______ ____
ROOT
ATOM      1  N   UNL     1       2.091   6.766  18.863  0.00  0.00    +0.000 N 
ATOM      2  C   UNL     1       2.068   8.068  18.375  0.00  0.00    +0.000 C 
ATOM      3  O   UNL     1       2.415   8.425  17.254  0.00  0.00    +0.000 OA
ATOM      4  H   UNL     1       1.659   6.628  19.771  0.00  0.00    +0.000 HD
ENDROOT
BRANCH   1   9
ATOM      5  C   UNL     1       4.384   4.650  16.799  0.00  0.00    +0.000 A 
ATOM      6  C   UNL     1       3.665   3.444  16.777  0.00  0.00    +0.000 A 
ATOM      7  C   UNL     1       2.434   3.338  17.415  0.00  0.00    +0.000 A 
ATOM      8  C   UNL     1       1.906   4.428  18.101  0.00  0.00    +0.000 A 
ATOM      9  C   UNL     1       2.596   5.640  18.169  0.00  0.00    +0.000 A 
ATOM     10  C   UNL     1       3.829   5.745  17.505  0.00  0.00    +0.000 A 
BRANCH   5  12
ATOM     11  C   UNL     1       5.938   3.801  14.932  0.00  0.00    +0.000 C 
ATOM     12  C   UNL     1       5.724   4.818  16.070  0.00  0.00    +0.000 C 
BRANCH  12  13
ATOM     13  C   UNL     1       6.901   4.797  17.077  0.00  0.00    +0.000 C 
BRANCH  13  14
ATOM     14  C   UNL     1       7.353   6.165  17.473  0.00  0.00    +0.000 A 
ATOM     15  N   UNL     1       7.296   7.253  16.732  0.00  0.00    +0.000 NA
ATOM     16  N   UNL     1       7.881   8.282  17.434  0.00  0.00    +0.000 NA
ATOM     17  C   UNL     1       8.269   7.804  18.592  0.00  0.00    +0.000 A 
ATOM     18  N   UNL     1       7.925   6.491  18.676  0.00  0.00    +0.000 N 
ATOM     19  C   UNL     1       8.117   5.635  19.815  0.00  0.00    +0.000 C 
ENDBRANCH  13  14
ENDBRANCH  12  13
ENDBRANCH   5  12
ENDBRANCH   1   9
BRANCH   2  20
ATOM     20  C   UNL     1       1.537   9.108  19.312  0.00  0.00    +0.000 A 
ATOM     21  C   UNL     1       1.469  10.425  18.855  0.00  0.00    +0.000 A 
ATOM     22  C   UNL     1       0.993  11.431  19.692  0.00  0.00    +0.000 A 
ATOM     23  C   UNL     1       0.602  11.054  20.974  0.00  0.00    +0.000 A 
ATOM     24  C   UNL     1       0.692   9.711  21.349  0.00  0.00    +0.000 A 
ATOM     25  N   UNL     1       1.149   8.718  20.552  0.00  0.00    +0.000 NA
BRANCH  22  26
ATOM     26  N   UNL     1       0.984  12.733  19.198  0.00  0.00    +0.000 N 
ATOM     27  H   UNL     1       0.035  13.083  19.067  0.00  0.00    +0.000 HD
BRANCH  26  28
ATOM     28  C   UNL     1       1.978  13.740  19.559  0.00  0.00    +0.000 C 
ATOM     29  C   UNL     1       1.339  15.141  19.610  0.00  0.00    +0.000 C 
ATOM     30  C   UNL     1       1.899  15.924  18.431  0.00  0.00    +0.000 C 
ATOM     31  C   UNL     1       3.250  15.287  18.161  0.00  0.00    +0.000 C 
ATOM     32  C   UNL     1       3.057  13.811  18.469  0.00  0.00    +0.000 C 
BRANCH  31  33
ATOM     33  O   UNL     1       3.649  15.492  16.816  0.00  0.00    +0.000 OA
ATOM     34  H   UNL     1       4.619  15.583  16.799  0.00  0.00    +0.000 HD
ENDBRANCH  31  33
ENDBRANCH  26  28
ENDBRANCH  22  26
ENDBRANCH   2  20
TORSDOF 8
ENDMDL
MODEL 8
REMARK VINA RESULT:      -8.1      2.800      9.746
REMARK  Name = 
REMARK  10 active torsions:
REMARK  status: ('A' for Active; 'I' for Inactive)
REMARK    1  A    between atoms: C_1  and  C_2
REMARK    2  A    between atoms: C_2  and  C_3
REMARK    3  A    between atoms: C_2  and  C_10
REMARK    4  A    between atoms: C_3  and  C_4
REMARK    5  A    between atoms: N_8  and  C_9
REMARK    6  A    between atoms: C_14  and  N_15
REMARK    7  A    between atoms: C_16  and  C_18
REMARK    8  A    between atoms: C_20  and  N_21
REMARK    9  A    between atoms: N_21  and  C_22
REMARK   10  A    between atoms: C_25  and  O_26
REMARK                            x       y       z     vdW  Elec       q    Type
REMARK                         _______ _______ _______ _____ _____    ______ ____
ROOT
ATOM      1  N   UNL     1       1.934   6.494  18.612  0.00  0.00    +0.000 N 
ATOM      2  C   UNL     1       2.261   7.818  18.342  0.00  0.00    +0.000 C 
ATOM      3  O   UNL     1       3.149   8.203  17.589  0.00  0.00    +0.000 OA
ATOM      4  H   UNL     1       1.096   6.351  19.168  0.00  0.00    +0.000 HD
ENDROOT
BRANCH   1   9
ATOM      5  C   UNL     1       4.541   4.457  16.865  0.00  0.00    +0.000 A 
ATOM      6  C   UNL     1       4.059   3.161  17.115  0.00  0.00    +0.000 A 
ATOM      7  C   UNL     1       2.884   2.965  17.832  0.00  0.00    +0.000 A 
ATOM      8  C   UNL     1       2.175   4.056  18.325  0.00  0.00    +0.000 A 
ATOM      9  C   UNL     1       2.627   5.361  18.120  0.00  0.00    +0.000 A 
ATOM     10  C   UNL     1       3.805   5.552  17.378  0.00  0.00    +0.000 A 
BRANCH   5  12
ATOM     11  C   UNL     1       5.993   3.733  14.868  0.00  0.00    +0.000 C 
ATOM     12  C   UNL     1       5.809   4.714  16.042  0.00  0.00    +0.000 C 
BRANCH  12  13
ATOM     13  C   UNL     1       7.059   4.741  16.957  0.00  0.00    +0.000 C 
BRANCH  13  14
ATOM     14  C   UNL     1       7.433   6.120  17.393  0.00  0.00    +0.000 A 
ATOM     15  N   UNL     1       7.390   7.212  16.657  0.00  0.00    +0.000 NA
ATOM     16  N   UNL     1       7.886   8.255  17.405  0.00  0.00    +0.000 NA
ATOM     17  C   UNL     1       8.206   7.781  18.585  0.00  0.00    +0.000 A 
ATOM     18  N   UNL     1       7.904   6.456  18.636  0.00  0.00    +0.000 N 
ATOM     19  C   UNL     1       8.043   5.598  19.781  0.00  0.00    +0.000 C 
ENDBRANCH  13  14
ENDBRANCH  12  13
ENDBRANCH   5  12
ENDBRANCH   1   9
BRANCH   2  20
ATOM     20  C   UNL     1       1.417   8.851  19.021  0.00  0.00    +0.000 A 
ATOM     21  C   UNL     1       0.655   9.702  18.219  0.00  0.00    +0.000 A 
ATOM     22  C   UNL     1      -0.139  10.686  18.802  0.00  0.00    +0.000 A 
ATOM     23  C   UNL     1      -0.123  10.770  20.192  0.00  0.00    +0.000 A 
ATOM     24  C   UNL     1       0.660   9.873  20.921  0.00  0.00    +0.000 A 
ATOM     25  N   UNL     1       1.436   8.907  20.376  0.00  0.00    +0.000 NA
BRANCH  22  26
ATOM     26  N   UNL     1      -0.849  11.531  17.953  0.00  0.00    +0.000 N 
ATOM     27  H   UNL     1      -0.274  11.863  17.178  0.00  0.00    +0.000 HD
BRANCH  26  28
ATOM     28  C   UNL     1      -2.268  11.366  17.652  0.00  0.00    +0.000 C 
ATOM     29  C   UNL     1      -2.708   9.908  17.892  0.00  0.00    +0.000 C 
ATOM     30  C   UNL     1      -2.996   9.304  16.526  0.00  0.00    +0.000 C 
ATOM     31  C   UNL     1      -3.377  10.490  15.659  0.00  0.00    +0.000 C 
ATOM     32  C   UNL     1      -2.513  11.636  16.161  0.00  0.00    +0.000 C 
BRANCH  31  33
ATOM     33  O   UNL     1      -3.138  10.218  14.289  0.00  0.00    +0.000 OA
ATOM     34  H   UNL     1      -2.177  10.254  14.135  0.00  0.00    +0.000 HD
ENDBRANCH  31  33
ENDBRANCH  26  28
ENDBRANCH  22  26
ENDBRANCH   2  20
TORSDOF 8
ENDMDL
MODEL 9
REMARK VINA RESULT:      -8.1      2.775      9.675
REMARK  Name = 
REMARK  10 active torsions:
REMARK  status: ('A' for Active; 'I' for Inactive)
REMARK    1  A    between atoms: C_1  and  C_2
REMARK    2  A    between atoms: C_2  and  C_3
REMARK    3  A    between atoms: C_2  and  C_10
REMARK    4  A    between atoms: C_3  and  C_4
REMARK    5  A    between atoms: N_8  and  C_9
REMARK    6  A    between atoms: C_14  and  N_15
REMARK    7  A    between atoms: C_16  and  C_18
REMARK    8  A    between atoms: C_20  and  N_21
REMARK    9  A    between atoms: N_21  and  C_22
REMARK   10  A    between atoms: C_25  and  O_26
REMARK                            x       y       z     vdW  Elec       q    Type
REMARK                         _______ _______ _______ _____ _____    ______ ____
ROOT
ATOM      1  N   UNL     1       1.596   8.155  19.786  0.00  0.00    +0.000 N 
ATOM      2  C   UNL     1       1.296   8.994  20.853  0.00  0.00    +0.000 C 
ATOM      3  O   UNL     1       1.405   8.718  22.043  0.00  0.00    +0.000 OA
ATOM      4  H   UNL     1       1.560   8.581  18.866  0.00  0.00    +0.000 HD
ENDROOT
BRANCH   1   9
ATOM      5  C   UNL     1       3.283   4.918  18.964  0.00  0.00    +0.000 A 
ATOM      6  C   UNL     1       2.867   4.132  20.051  0.00  0.00    +0.000 A 
ATOM      7  C   UNL     1       2.029   4.656  21.028  0.00  0.00    +0.000 A 
ATOM      8  C   UNL     1       1.602   5.979  20.947  0.00  0.00    +0.000 A 
ATOM      9  C   UNL     1       2.007   6.804  19.897  0.00  0.00    +0.000 A 
ATOM     10  C   UNL     1       2.838   6.260  18.902  0.00  0.00    +0.000 A 
BRANCH   5  12
ATOM     11  C   UNL     1       3.756   2.955  17.368  0.00  0.00    +0.000 C 
ATOM     12  C   UNL     1       4.171   4.361  17.843  0.00  0.00    +0.000 C 
BRANCH  12  13
ATOM     13  C   UNL     1       5.663   4.401  18.259  0.00  0.00    +0.000 C 
BRANCH  13  14
ATOM     14  C   UNL     1       6.328   5.696  17.922  0.00  0.00    +0.000 A 
ATOM     15  N   UNL     1       5.972   6.533  16.969  0.00  0.00    +0.000 NA
ATOM     16  N   UNL     1       6.883   7.564  16.939  0.00  0.00    +0.000 NA
ATOM     17  C   UNL     1       7.766   7.341  17.883  0.00  0.00    +0.000 A 
ATOM     18  N   UNL     1       7.437   6.202  18.549  0.00  0.00    +0.000 N 
ATOM     19  C   UNL     1       8.119   5.661  19.693  0.00  0.00    +0.000 C 
ENDBRANCH  13  14
ENDBRANCH  12  13
ENDBRANCH   5  12
ENDBRANCH   1   9
BRANCH   2  20
ATOM     20  C   UNL     1       0.827  10.369  20.491  0.00  0.00    +0.000 A 
ATOM     21  C   UNL     1      -0.054  10.497  19.417  0.00  0.00    +0.000 A 
ATOM     22  C   UNL     1      -0.511  11.755  19.034  0.00  0.00    +0.000 A 
ATOM     23  C   UNL     1      -0.047  12.845  19.764  0.00  0.00    +0.000 A 
ATOM     24  C   UNL     1       0.826  12.630  20.833  0.00  0.00    +0.000 A 
ATOM     25  N   UNL     1       1.281  11.417  21.224  0.00  0.00    +0.000 NA
BRANCH  22  26
ATOM     26  N   UNL     1      -1.359  11.827  17.931  0.00  0.00    +0.000 N 
ATOM     27  H   UNL     1      -0.888  12.218  17.115  0.00  0.00    +0.000 HD
BRANCH  26  28
ATOM     28  C   UNL     1      -2.393  10.837  17.642  0.00  0.00    +0.000 C 
ATOM     29  C   UNL     1      -2.469  10.556  16.129  0.00  0.00    +0.000 C 
ATOM     30  C   UNL     1      -3.784  11.144  15.638  0.00  0.00    +0.000 C 
ATOM     31  C   UNL     1      -4.688  11.122  16.856  0.00  0.00    +0.000 C 
ATOM     32  C   UNL     1      -3.767  11.399  18.033  0.00  0.00    +0.000 C 
BRANCH  31  33
ATOM     33  O   UNL     1      -5.709  12.100  16.751  0.00  0.00    +0.000 OA
ATOM     34  H   UNL     1      -5.735  12.412  15.829  0.00  0.00    +0.000 HD
ENDBRANCH  31  33
ENDBRANCH  26  28
ENDBRANCH  22  26
ENDBRANCH   2  20
TORSDOF 8
ENDMDL
