MODEL 1
REMARK VINA RESULT:      -9.2      0.000      0.000
REMARK  Name = 
REMARK  6 active torsions:
REMARK  status: ('A' for Active; 'I' for Inactive)
REMARK    1  A    between atoms: C_1  and  C_2
REMARK    2  A    between atoms: C_2  and  C_3
REMARK    3  A    between atoms: C_2  and  C_10
REMARK    4  A    between atoms: C_3  and  C_4
REMARK    5  A    between atoms: N_8  and  C_9
REMARK    6  A    between atoms: C_16  and  C_18
REMARK                            x       y       z     vdW  Elec       q    Type
REMARK                         _______ _______ _______ _____ _____    ______ ____
ROOT
ATOM      1  C   UNL     1       4.755   4.992  16.800  0.00  0.00    +0.000 A 
ATOM      2  C   UNL     1       4.508   3.735  17.338  0.00  0.00    +0.000 A 
ATOM      3  C   UNL     1       3.645   3.648  18.420  0.00  0.00    +0.000 A 
ATOM      4  N   UNL     1       3.065   4.709  19.005  0.00  0.00    +0.000 NA
ATOM      5  C   UNL     1       3.314   5.928  18.505  0.00  0.00    +0.000 A 
ATOM      6  N   UNL     1       2.693   7.056  19.070  0.00  0.00    +0.000 N 
ATOM      7  C   UNL     1       1.835   7.030  20.140  0.00  0.00    +0.000 C 
ATOM      8  O   UNL     1       1.528   6.066  20.798  0.00  0.00    +0.000 OA
ATOM      9  C   UNL     1       4.146   6.099  17.418  0.00  0.00    +0.000 A 
ATOM     10  H   UNL     1       2.859   7.991  18.630  0.00  0.00    +0.000 HD
ENDROOT
BRANCH   7  11
ATOM     11  C   UNL     1       1.200   8.356  20.469  0.00  0.00    +0.000 A 
ATOM     12  C   UNL     1       1.242   9.327  19.476  0.00  0.00    +0.000 A 
ATOM     13  C   UNL     1       0.879  10.615  19.825  0.00  0.00    +0.000 A 
ATOM     14  C   UNL     1       0.378  10.865  21.098  0.00  0.00    +0.000 A 
ATOM     15  C   UNL     1       0.024  12.158  21.476  0.00  0.00    +0.000 A 
ATOM     16  C   UNL     1      -0.989  12.342  22.393  0.00  0.00    +0.000 A 
ATOM     17  C   UNL     1      -1.365  11.266  23.182  0.00  0.00    +0.000 A 
ATOM     18  C   UNL     1      -0.698  10.034  23.044  0.00  0.00    +0.000 A 
ATOM     19  C   UNL     1       0.142   9.777  21.960  0.00  0.00    +0.000 A 
ATOM     20  N   UNL     1       0.655   8.545  21.703  0.00  0.00    +0.000 NA
ENDBRANCH   7  11
BRANCH   1  22
ATOM     21  C   UNL     1       5.223   4.338  14.386  0.00  0.00    +0.000 C 
ATOM     22  C   UNL     1       5.655   5.200  15.586  0.00  0.00    +0.000 C 
BRANCH  22  23
ATOM     23  C   UNL     1       7.139   4.928  15.887  0.00  0.00    +0.000 C 
BRANCH  23  24
ATOM     24  C   UNL     1       7.553   5.251  17.283  0.00  0.00    +0.000 A 
ATOM     25  N   UNL     1       7.822   4.384  18.240  0.00  0.00    +0.000 NA
ATOM     26  N   UNL     1       7.951   5.077  19.422  0.00  0.00    +0.000 NA
ATOM     27  C   UNL     1       7.768   6.350  19.158  0.00  0.00    +0.000 A 
ATOM     28  N   UNL     1       7.599   6.513  17.818  0.00  0.00    +0.000 N 
ATOM     29  C   UNL     1       7.497   7.765  17.121  0.00  0.00    +0.000 C 
ENDBRANCH  23  24
ENDBRANCH  22  23
ENDBRANCH   1  22
TORSDOF 4
ENDMDL
MODEL 2
REMARK VINA RESULT:      -8.8      0.633      1.200
REMARK  Name = 
REMARK  6 active torsions:
REMARK  status: ('A' for Active; 'I' for Inactive)
REMARK    1  A    between atoms: C_1  and  C_2
REMARK    2  A    between atoms: C_2  and  C_3
REMARK    3  A    between atoms: C_2  and  C_10
REMARK    4  A    between atoms: C_3  and  C_4
REMARK    5  A    between atoms: N_8  and  C_9
REMARK    6  A    between atoms: C_16  and  C_18
REMARK                            x       y       z     vdW  Elec       q    Type
REMARK                         _______ _______ _______ _____ _____    ______ ____
ROOT
ATOM      1  C   UNL     1       4.717   4.966  16.715  0.00  0.00    +0.000 A 
ATOM      2  C   UNL     1       4.484   3.711  17.262  0.00  0.00    +0.000 A 
ATOM      3  C   UNL     1       3.640   3.624  18.359  0.00  0.00    +0.000 A 
ATOM      4  N   UNL     1       3.066   4.686  18.950  0.00  0.00    +0.000 NA
ATOM      5  C   UNL     1       3.302   5.903  18.440  0.00  0.00    +0.000 A 
ATOM      6  N   UNL     1       2.686   7.032  19.011  0.00  0.00    +0.000 N 
ATOM      7  C   UNL     1       1.847   7.007  20.096  0.00  0.00    +0.000 C 
ATOM      8  O   UNL     1       1.555   6.044  20.763  0.00  0.00    +0.000 OA
ATOM      9  C   UNL     1       4.114   6.073  17.338  0.00  0.00    +0.000 A 
ATOM     10  H   UNL     1       2.841   7.965  18.564  0.00  0.00    +0.000 HD
ENDROOT
BRANCH   7  11
ATOM     11  C   UNL     1       1.213   8.331  20.430  0.00  0.00    +0.000 A 
ATOM     12  C   UNL     1       1.225   9.296  19.429  0.00  0.00    +0.000 A 
ATOM     13  C   UNL     1       0.862  10.583  19.778  0.00  0.00    +0.000 A 
ATOM     14  C   UNL     1       0.392  10.840  21.060  0.00  0.00    +0.000 A 
ATOM     15  C   UNL     1       0.040  12.135  21.437  0.00  0.00    +0.000 A 
ATOM     16  C   UNL     1      -0.952  12.320  22.377  0.00  0.00    +0.000 A 
ATOM     17  C   UNL     1      -1.302  11.248  23.184  0.00  0.00    +0.000 A 
ATOM     18  C   UNL     1      -0.631  10.019  23.038  0.00  0.00    +0.000 A 
ATOM     19  C   UNL     1       0.184   9.758  21.937  0.00  0.00    +0.000 A 
ATOM     20  N   UNL     1       0.697   8.527  21.676  0.00  0.00    +0.000 NA
ENDBRANCH   7  11
BRANCH   1  22
ATOM     21  C   UNL     1       5.437   4.036  14.458  0.00  0.00    +0.000 C 
ATOM     22  C   UNL     1       5.595   5.172  15.484  0.00  0.00    +0.000 C 
BRANCH  22  23
ATOM     23  C   UNL     1       7.086   5.327  15.832  0.00  0.00    +0.000 C 
BRANCH  23  24
ATOM     24  C   UNL     1       7.368   6.331  16.898  0.00  0.00    +0.000 A 
ATOM     25  N   UNL     1       7.385   7.642  16.753  0.00  0.00    +0.000 NA
ATOM     26  N   UNL     1       7.893   8.194  17.906  0.00  0.00    +0.000 NA
ATOM     27  C   UNL     1       8.163   7.210  18.732  0.00  0.00    +0.000 A 
ATOM     28  N   UNL     1       7.772   6.033  18.173  0.00  0.00    +0.000 N 
ATOM     29  C   UNL     1       7.784   4.745  18.811  0.00  0.00    +0.000 C 
ENDBRANCH  23  24
ENDBRANCH  22  23
ENDBRANCH   1  22
TORSDOF 4
ENDMDL
MODEL 3
REMARK VINA RESULT:      -8.7      0.763      1.515
REMARK  Name = 
REMARK  6 active torsions:
REMARK  status: ('A' for Active; 'I' for Inactive)
REMARK    1  A    between atoms: C_1  and  C_2
REMARK    2  A    between atoms: C_2  and  C_3
REMARK    3  A    between atoms: C_2  and  C_10
REMARK    4  A    between atoms: C_3  and  C_4
REMARK    5  A    between atoms: N_8  and  C_9
REMARK    6  A    between atoms: C_16  and  C_18
REMARK                            x       y       z     vdW  Elec       q    Type
REMARK                         _______ _______ _______ _____ _____    ______ ____
ROOT
ATOM      1  C   UNL     1       4.834   5.029  16.668  0.00  0.00    +0.000 A 
ATOM      2  C   UNL     1       4.591   3.754  17.164  0.00  0.00    +0.000 A 
ATOM      3  C   UNL     1       3.738   3.630  18.250  0.00  0.00    +0.000 A 
ATOM      4  N   UNL     1       3.166   4.670  18.879  0.00  0.00    +0.000 NA
ATOM      5  C   UNL     1       3.412   5.906  18.419  0.00  0.00    +0.000 A 
ATOM      6  N   UNL     1       2.799   7.014  19.030  0.00  0.00    +0.000 N 
ATOM      7  C   UNL     1       1.952   6.951  20.107  0.00  0.00    +0.000 C 
ATOM      8  O   UNL     1       1.650   5.965  20.734  0.00  0.00    +0.000 OA
ATOM      9  C   UNL     1       4.233   6.114  17.331  0.00  0.00    +0.000 A 
ATOM     10  H   UNL     1       2.962   7.964  18.622  0.00  0.00    +0.000 HD
ENDROOT
BRANCH   7  11
ATOM     11  C   UNL     1       1.323   8.265  20.489  0.00  0.00    +0.000 A 
ATOM     12  C   UNL     1       0.781   8.345  21.767  0.00  0.00    +0.000 A 
ATOM     13  C   UNL     1       0.000   9.447  22.063  0.00  0.00    +0.000 A 
ATOM     14  C   UNL     1      -0.116  10.475  21.134  0.00  0.00    +0.000 A 
ATOM     15  C   UNL     1      -0.913  11.585  21.406  0.00  0.00    +0.000 A 
ATOM     16  C   UNL     1      -0.576  12.808  20.865  0.00  0.00    +0.000 A 
ATOM     17  C   UNL     1       0.298  12.834  19.790  0.00  0.00    +0.000 A 
ATOM     18  C   UNL     1       0.799  11.625  19.270  0.00  0.00    +0.000 A 
ATOM     19  C   UNL     1       0.663  10.422  19.962  0.00  0.00    +0.000 A 
ATOM     20  N   UNL     1       1.288   9.277  19.578  0.00  0.00    +0.000 NA
ENDBRANCH   7  11
BRANCH   1  22
ATOM     21  C   UNL     1       5.363   4.361  14.270  0.00  0.00    +0.000 C 
ATOM     22  C   UNL     1       5.722   5.278  15.453  0.00  0.00    +0.000 C 
BRANCH  22  23
ATOM     23  C   UNL     1       7.221   5.125  15.765  0.00  0.00    +0.000 C 
BRANCH  23  24
ATOM     24  C   UNL     1       7.578   5.352  17.195  0.00  0.00    +0.000 A 
ATOM     25  N   UNL     1       7.797   4.421  18.103  0.00  0.00    +0.000 NA
ATOM     26  N   UNL     1       7.881   5.034  19.333  0.00  0.00    +0.000 NA
ATOM     27  C   UNL     1       7.723   6.323  19.146  0.00  0.00    +0.000 A 
ATOM     28  N   UNL     1       7.614   6.575  17.814  0.00  0.00    +0.000 N 
ATOM     29  C   UNL     1       7.554   7.872  17.197  0.00  0.00    +0.000 C 
ENDBRANCH  23  24
ENDBRANCH  22  23
ENDBRANCH   1  22
TORSDOF 4
ENDMDL
MODEL 4
REMARK VINA RESULT:      -8.4      5.581      7.501
REMARK  Name = 
REMARK  6 active torsions:
REMARK  status: ('A' for Active; 'I' for Inactive)
REMARK    1  A    between atoms: C_1  and  C_2
REMARK    2  A    between atoms: C_2  and  C_3
REMARK    3  A    between atoms: C_2  and  C_10
REMARK    4  A    between atoms: C_3  and  C_4
REMARK    5  A    between atoms: N_8  and  C_9
REMARK    6  A    between atoms: C_16  and  C_18
REMARK                            x       y       z     vdW  Elec       q    Type
REMARK                         _______ _______ _______ _____ _____    ______ ____
ROOT
ATOM      1  C   UNL     1       6.533   6.175  17.199  0.00  0.00    +0.000 A 
ATOM      2  C   UNL     1       7.041   5.450  18.270  0.00  0.00    +0.000 A 
ATOM      3  C   UNL     1       7.915   6.091  19.134  0.00  0.00    +0.000 A 
ATOM      4  N   UNL     1       8.333   7.358  18.976  0.00  0.00    +0.000 NA
ATOM      5  C   UNL     1       7.863   8.058  17.934  0.00  0.00    +0.000 A 
ATOM      6  N   UNL     1       8.251   9.399  17.761  0.00  0.00    +0.000 N 
ATOM      7  C   UNL     1       9.113  10.082  18.581  0.00  0.00    +0.000 C 
ATOM      8  O   UNL     1       9.718   9.638  19.526  0.00  0.00    +0.000 OA
ATOM      9  C   UNL     1       6.975   7.500  17.039  0.00  0.00    +0.000 A 
ATOM     10  H   UNL     1       7.830   9.943  16.972  0.00  0.00    +0.000 HD
ENDROOT
BRANCH   7  11
ATOM     11  C   UNL     1       9.262  11.545  18.257  0.00  0.00    +0.000 A 
ATOM     12  C   UNL     1      10.368  11.903  17.494  0.00  0.00    +0.000 A 
ATOM     13  C   UNL     1      10.656  13.250  17.377  0.00  0.00    +0.000 A 
ATOM     14  C   UNL     1       9.780  14.187  17.914  0.00  0.00    +0.000 A 
ATOM     15  C   UNL     1      10.062  15.549  17.823  0.00  0.00    +0.000 A 
ATOM     16  C   UNL     1       9.022  16.452  17.754  0.00  0.00    +0.000 A 
ATOM     17  C   UNL     1       7.761  16.034  18.149  0.00  0.00    +0.000 A 
ATOM     18  C   UNL     1       7.579  14.721  18.623  0.00  0.00    +0.000 A 
ATOM     19  C   UNL     1       8.560  13.743  18.459  0.00  0.00    +0.000 A 
ATOM     20  N   UNL     1       8.346  12.431  18.740  0.00  0.00    +0.000 NA
ENDBRANCH   7  11
BRANCH   1  22
ATOM     21  C   UNL     1       4.210   5.184  16.887  0.00  0.00    +0.000 C 
ATOM     22  C   UNL     1       5.534   5.582  16.210  0.00  0.00    +0.000 C 
BRANCH  22  23
ATOM     23  C   UNL     1       6.092   4.366  15.451  0.00  0.00    +0.000 C 
BRANCH  23  24
ATOM     24  C   UNL     1       6.950   4.711  14.282  0.00  0.00    +0.000 A 
ATOM     25  N   UNL     1       7.977   5.538  14.283  0.00  0.00    +0.000 NA
ATOM     26  N   UNL     1       8.360   5.748  12.979  0.00  0.00    +0.000 NA
ATOM     27  C   UNL     1       7.567   5.037  12.213  0.00  0.00    +0.000 A 
ATOM     28  N   UNL     1       6.723   4.308  12.991  0.00  0.00    +0.000 N 
ATOM     29  C   UNL     1       5.791   3.314  12.535  0.00  0.00    +0.000 C 
ENDBRANCH  23  24
ENDBRANCH  22  23
ENDBRANCH   1  22
TORSDOF 4
ENDMDL
MODEL 5
REMARK VINA RESULT:      -8.4      1.955      3.067
REMARK  Name = 
REMARK  6 active torsions:
REMARK  status: ('A' for Active; 'I' for Inactive)
REMARK    1  A    between atoms: C_1  and  C_2
REMARK    2  A    between atoms: C_2  and  C_3
REMARK    3  A    between atoms: C_2  and  C_10
REMARK    4  A    between atoms: C_3  and  C_4
REMARK    5  A    between atoms: N_8  and  C_9
REMARK    6  A    between atoms: C_16  and  C_18
REMARK                            x       y       z     vdW  Elec       q    Type
REMARK                         _______ _______ _______ _____ _____    ______ ____
ROOT
ATOM      1  C   UNL     1       4.314   5.522  17.344  0.00  0.00    +0.000 A 
ATOM      2  C   UNL     1       3.821   4.251  17.611  0.00  0.00    +0.000 A 
ATOM      3  C   UNL     1       2.832   4.125  18.576  0.00  0.00    +0.000 A 
ATOM      4  N   UNL     1       2.352   5.152  19.296  0.00  0.00    +0.000 NA
ATOM      5  C   UNL     1       2.836   6.379  19.058  0.00  0.00    +0.000 A 
ATOM      6  N   UNL     1       2.327   7.482  19.768  0.00  0.00    +0.000 N 
ATOM      7  C   UNL     1       1.354   7.416  20.733  0.00  0.00    +0.000 C 
ATOM      8  O   UNL     1       0.832   6.419  21.168  0.00  0.00    +0.000 OA
ATOM      9  C   UNL     1       3.806   6.593  18.102  0.00  0.00    +0.000 A 
ATOM     10  H   UNL     1       2.681   8.437  19.528  0.00  0.00    +0.000 HD
ENDROOT
BRANCH   7  11
ATOM     11  C   UNL     1       0.889   8.753  21.248  0.00  0.00    +0.000 A 
ATOM     12  C   UNL     1       0.245   8.753  22.480  0.00  0.00    +0.000 A 
ATOM     13  C   UNL     1      -0.392   9.917  22.869  0.00  0.00    +0.000 A 
ATOM     14  C   UNL     1      -0.269  11.060  22.087  0.00  0.00    +0.000 A 
ATOM     15  C   UNL     1      -0.919  12.238  22.451  0.00  0.00    +0.000 A 
ATOM     16  C   UNL     1      -0.358  13.452  22.114  0.00  0.00    +0.000 A 
ATOM     17  C   UNL     1       0.609  13.477  21.122  0.00  0.00    +0.000 A 
ATOM     18  C   UNL     1       0.977  12.281  20.477  0.00  0.00    +0.000 A 
ATOM     19  C   UNL     1       0.602  11.035  20.980  0.00  0.00    +0.000 A 
ATOM     20  N   UNL     1       1.088   9.866  20.488  0.00  0.00    +0.000 NA
ENDBRANCH   7  11
BRANCH   1  22
ATOM     21  C   UNL     1       4.998   6.961  15.360  0.00  0.00    +0.000 C 
ATOM     22  C   UNL     1       5.371   5.782  16.276  0.00  0.00    +0.000 C 
BRANCH  22  23
ATOM     23  C   UNL     1       5.658   4.546  15.405  0.00  0.00    +0.000 C 
BRANCH  23  24
ATOM     24  C   UNL     1       6.704   4.757  14.363  0.00  0.00    +0.000 A 
ATOM     25  N   UNL     1       7.779   5.512  14.476  0.00  0.00    +0.000 NA
ATOM     26  N   UNL     1       8.365   5.611  13.235  0.00  0.00    +0.000 NA
ATOM     27  C   UNL     1       7.641   4.907  12.396  0.00  0.00    +0.000 A 
ATOM     28  N   UNL     1       6.639   4.288  13.076  0.00  0.00    +0.000 N 
ATOM     29  C   UNL     1       5.712   3.332  12.537  0.00  0.00    +0.000 C 
ENDBRANCH  23  24
ENDBRANCH  22  23
ENDBRANCH   1  22
TORSDOF 4
ENDMDL
MODEL 6
REMARK VINA RESULT:      -8.4      1.800      2.712
REMARK  Name = 
REMARK  6 active torsions:
REMARK  status: ('A' for Active; 'I' for Inactive)
REMARK    1  A    between atoms: C_1  and  C_2
REMARK    2  A    between atoms: C_2  and  C_3
REMARK    3  A    between atoms: C_2  and  C_10
REMARK    4  A    between atoms: C_3  and  C_4
REMARK    5  A    between atoms: N_8  and  C_9
REMARK    6  A    between atoms: C_16  and  C_18
REMARK                            x       y       z     vdW  Elec       q    Type
REMARK                         _______ _______ _______ _____ _____    ______ ____
ROOT
ATOM      1  C   UNL     1       5.120   4.646  17.871  0.00  0.00    +0.000 A 
ATOM      2  C   UNL     1       4.688   3.424  18.371  0.00  0.00    +0.000 A 
ATOM      3  C   UNL     1       3.625   3.425  19.262  0.00  0.00    +0.000 A 
ATOM      4  N   UNL     1       3.016   4.538  19.703  0.00  0.00    +0.000 NA
ATOM      5  C   UNL     1       3.441   5.723  19.240  0.00  0.00    +0.000 A 
ATOM      6  N   UNL     1       2.799   6.904  19.652  0.00  0.00    +0.000 N 
ATOM      7  C   UNL     1       1.749   6.965  20.532  0.00  0.00    +0.000 C 
ATOM      8  O   UNL     1       1.254   6.043  21.133  0.00  0.00    +0.000 OA
ATOM      9  C   UNL     1       4.478   5.807  18.336  0.00  0.00    +0.000 A 
ATOM     10  H   UNL     1       3.111   7.813  19.237  0.00  0.00    +0.000 HD
ENDROOT
BRANCH   7  11
ATOM     11  C   UNL     1       1.153   8.338  20.706  0.00  0.00    +0.000 A 
ATOM     12  C   UNL     1       1.252   9.200  19.620  0.00  0.00    +0.000 A 
ATOM     13  C   UNL     1       0.926  10.528  19.825  0.00  0.00    +0.000 A 
ATOM     14  C   UNL     1       0.407  10.924  21.052  0.00  0.00    +0.000 A 
ATOM     15  C   UNL     1       0.089  12.261  21.285  0.00  0.00    +0.000 A 
ATOM     16  C   UNL     1      -0.938  12.572  22.152  0.00  0.00    +0.000 A 
ATOM     17  C   UNL     1      -1.369  11.596  23.037  0.00  0.00    +0.000 A 
ATOM     18  C   UNL     1      -0.742  10.336  23.044  0.00  0.00    +0.000 A 
ATOM     19  C   UNL     1       0.113   9.940  22.015  0.00  0.00    +0.000 A 
ATOM     20  N   UNL     1       0.587   8.672  21.900  0.00  0.00    +0.000 NA
ENDBRANCH   7  11
BRANCH   1  22
ATOM     21  C   UNL     1       6.891   6.160  16.846  0.00  0.00    +0.000 C 
ATOM     22  C   UNL     1       6.252   4.759  16.854  0.00  0.00    +0.000 C 
BRANCH  22  23
ATOM     23  C   UNL     1       5.810   4.404  15.424  0.00  0.00    +0.000 C 
BRANCH  23  24
ATOM     24  C   UNL     1       6.816   4.728  14.371  0.00  0.00    +0.000 A 
ATOM     25  N   UNL     1       7.849   5.537  14.499  0.00  0.00    +0.000 NA
ATOM     26  N   UNL     1       8.398   5.732  13.253  0.00  0.00    +0.000 NA
ATOM     27  C   UNL     1       7.695   5.029  12.395  0.00  0.00    +0.000 A 
ATOM     28  N   UNL     1       6.747   4.320  13.064  0.00  0.00    +0.000 N 
ATOM     29  C   UNL     1       5.863   3.339  12.497  0.00  0.00    +0.000 C 
ENDBRANCH  23  24
ENDBRANCH  22  23
ENDBRANCH   1  22
TORSDOF 4
ENDMDL
MODEL 7
REMARK VINA RESULT:      -8.4      3.039      9.358
REMARK  Name = 
REMARK  6 active torsions:
REMARK  status: ('A' for Active; 'I' for Inactive)
REMARK    1  A    between atoms: C_1  and  C_2
REMARK    2  A    between atoms: C_2  and  C_3
REMARK    3  A    between atoms: C_2  and  C_10
REMARK    4  A    between atoms: C_3  and  C_4
REMARK    5  A    between atoms: N_8  and  C_9
REMARK    6  A    between atoms: C_16  and  C_18
REMARK                            x       y       z     vdW  Elec       q    Type
REMARK                         _______ _______ _______ _____ _____    ______ ____
ROOT
ATOM      1  C   UNL     1       0.052  10.687  19.720  0.00  0.00    +0.000 A 
ATOM      2  C   UNL     1      -0.468  10.318  20.954  0.00  0.00    +0.000 A 
ATOM      3  C   UNL     1      -0.043   9.119  21.508  0.00  0.00    +0.000 A 
ATOM      4  N   UNL     1       0.810   8.274  20.904  0.00  0.00    +0.000 NA
ATOM      5  C   UNL     1       1.300   8.614  19.703  0.00  0.00    +0.000 A 
ATOM      6  N   UNL     1       2.224   7.770  19.062  0.00  0.00    +0.000 N 
ATOM      7  C   UNL     1       2.677   6.575  19.559  0.00  0.00    +0.000 C 
ATOM      8  O   UNL     1       2.318   6.030  20.575  0.00  0.00    +0.000 OA
ATOM      9  C   UNL     1       0.944   9.798  19.093  0.00  0.00    +0.000 A 
ATOM     10  H   UNL     1       2.636   8.081  18.151  0.00  0.00    +0.000 HD
ENDROOT
BRANCH   7  11
ATOM     11  C   UNL     1       3.764   5.925  18.743  0.00  0.00    +0.000 A 
ATOM     12  C   UNL     1       4.491   4.918  19.368  0.00  0.00    +0.000 A 
ATOM     13  C   UNL     1       5.634   4.468  18.734  0.00  0.00    +0.000 A 
ATOM     14  C   UNL     1       5.946   4.940  17.464  0.00  0.00    +0.000 A 
ATOM     15  C   UNL     1       7.103   4.512  16.816  0.00  0.00    +0.000 A 
ATOM     16  C   UNL     1       7.120   4.440  15.438  0.00  0.00    +0.000 A 
ATOM     17  C   UNL     1       6.150   5.134  14.732  0.00  0.00    +0.000 A 
ATOM     18  C   UNL     1       5.196   5.901  15.427  0.00  0.00    +0.000 A 
ATOM     19  C   UNL     1       5.024   5.776  16.805  0.00  0.00    +0.000 A 
ATOM     20  N   UNL     1       3.997   6.364  17.475  0.00  0.00    +0.000 NA
ENDBRANCH   7  11
BRANCH   1  22
ATOM     21  C   UNL     1       0.394  13.209  19.681  0.00  0.00    +0.000 C 
ATOM     22  C   UNL     1      -0.314  12.002  19.039  0.00  0.00    +0.000 C 
BRANCH  22  23
ATOM     23  C   UNL     1      -1.830  12.265  19.020  0.00  0.00    +0.000 C 
BRANCH  23  24
ATOM     24  C   UNL     1      -2.556  11.600  17.900  0.00  0.00    +0.000 A 
ATOM     25  N   UNL     1      -2.010  11.048  16.833  0.00  0.00    +0.000 NA
ATOM     26  N   UNL     1      -3.017  10.743  15.946  0.00  0.00    +0.000 NA
ATOM     27  C   UNL     1      -4.153  11.104  16.496  0.00  0.00    +0.000 A 
ATOM     28  N   UNL     1      -3.918  11.568  17.752  0.00  0.00    +0.000 N 
ATOM     29  C   UNL     1      -4.914  11.942  18.719  0.00  0.00    +0.000 C 
ENDBRANCH  23  24
ENDBRANCH  22  23
ENDBRANCH   1  22
TORSDOF 4
ENDMDL
MODEL 8
REMARK VINA RESULT:      -8.4      1.349      2.024
REMARK  Name = 
REMARK  6 active torsions:
REMARK  status: ('A' for Active; 'I' for Inactive)
REMARK    1  A    between atoms: C_1  and  C_2
REMARK    2  A    between atoms: C_2  and  C_3
REMARK    3  A    between atoms: C_2  and  C_10
REMARK    4  A    between atoms: C_3  and  C_4
REMARK    5  A    between atoms: N_8  and  C_9
REMARK    6  A    between atoms: C_16  and  C_18
REMARK                            x       y       z     vdW  Elec       q    Type
REMARK                         _______ _______ _______ _____ _____    ______ ____
ROOT
ATOM      1  C   UNL     1       4.446   5.109  17.007  0.00  0.00    +0.000 A 
ATOM      2  C   UNL     1       4.268   4.011  17.839  0.00  0.00    +0.000 A 
ATOM      3  C   UNL     1       3.487   4.174  18.974  0.00  0.00    +0.000 A 
ATOM      4  N   UNL     1       2.927   5.339  19.339  0.00  0.00    +0.000 NA
ATOM      5  C   UNL     1       3.112   6.409  18.552  0.00  0.00    +0.000 A 
ATOM      6  N   UNL     1       2.508   7.635  18.885  0.00  0.00    +0.000 N 
ATOM      7  C   UNL     1       1.730   7.854  19.994  0.00  0.00    +0.000 C 
ATOM      8  O   UNL     1       1.494   7.069  20.879  0.00  0.00    +0.000 OA
ATOM      9  C   UNL     1       3.858   6.326  17.395  0.00  0.00    +0.000 A 
ATOM     10  H   UNL     1       2.620   8.442  18.229  0.00  0.00    +0.000 HD
ENDROOT
BRANCH   7  11
ATOM     11  C   UNL     1       1.091   9.217  20.054  0.00  0.00    +0.000 A 
ATOM     12  C   UNL     1       0.178   9.429  21.080  0.00  0.00    +0.000 A 
ATOM     13  C   UNL     1      -0.590  10.577  21.025  0.00  0.00    +0.000 A 
ATOM     14  C   UNL     1      -0.345  11.520  20.033  0.00  0.00    +0.000 A 
ATOM     15  C   UNL     1      -1.120  12.675  19.950  0.00  0.00    +0.000 A 
ATOM     16  C   UNL     1      -0.558  13.833  19.455  0.00  0.00    +0.000 A 
ATOM     17  C   UNL     1       0.612  13.733  18.719  0.00  0.00    +0.000 A 
ATOM     18  C   UNL     1       1.180  12.468  18.481  0.00  0.00    +0.000 A 
ATOM     19  C   UNL     1       0.761  11.336  19.181  0.00  0.00    +0.000 A 
ATOM     20  N   UNL     1       1.407  10.143  19.106  0.00  0.00    +0.000 NA
ENDBRANCH   7  11
BRANCH   1  22
ATOM     21  C   UNL     1       5.570   3.582  15.310  0.00  0.00    +0.000 C 
ATOM     22  C   UNL     1       5.251   5.033  15.713  0.00  0.00    +0.000 C 
BRANCH  22  23
ATOM     23  C   UNL     1       6.563   5.834  15.776  0.00  0.00    +0.000 C 
BRANCH  23  24
ATOM     24  C   UNL     1       7.305   5.699  17.062  0.00  0.00    +0.000 A 
ATOM     25  N   UNL     1       7.699   4.572  17.622  0.00  0.00    +0.000 NA
ATOM     26  N   UNL     1       8.151   4.859  18.890  0.00  0.00    +0.000 NA
ATOM     27  C   UNL     1       8.034   6.154  19.070  0.00  0.00    +0.000 A 
ATOM     28  N   UNL     1       7.587   6.729  17.922  0.00  0.00    +0.000 N 
ATOM     29  C   UNL     1       7.448   8.138  17.676  0.00  0.00    +0.000 C 
ENDBRANCH  23  24
ENDBRANCH  22  23
ENDBRANCH   1  22
TORSDOF 4
ENDMDL
MODEL 9
REMARK VINA RESULT:      -8.3      1.021      1.980
REMARK  Name = 
REMARK  6 active torsions:
REMARK  status: ('A' for Active; 'I' for Inactive)
REMARK    1  A    between atoms: C_1  and  C_2
REMARK    2  A    between atoms: C_2  and  C_3
REMARK    3  A    between atoms: C_2  and  C_10
REMARK    4  A    between atoms: C_3  and  C_4
REMARK    5  A    between atoms: N_8  and  C_9
REMARK    6  A    between atoms: C_16  and  C_18
REMARK                            x       y       z     vdW  Elec       q    Type
REMARK                         _______ _______ _______ _____ _____    ______ ____
ROOT
ATOM      1  C   UNL     1       4.600   4.870  17.099  0.00  0.00    +0.000 A 
ATOM      2  C   UNL     1       4.104   3.632  17.487  0.00  0.00    +0.000 A 
ATOM      3  C   UNL     1       3.126   3.601  18.470  0.00  0.00    +0.000 A 
ATOM      4  N   UNL     1       2.659   4.692  19.098  0.00  0.00    +0.000 NA
ATOM      5  C   UNL     1       3.148   5.889  18.744  0.00  0.00    +0.000 A 
ATOM      6  N   UNL     1       2.653   7.055  19.355  0.00  0.00    +0.000 N 
ATOM      7  C   UNL     1       1.690   7.085  20.333  0.00  0.00    +0.000 C 
ATOM      8  O   UNL     1       1.168   6.134  20.863  0.00  0.00    +0.000 OA
ATOM      9  C   UNL     1       4.108   6.008  17.762  0.00  0.00    +0.000 A 
ATOM     10  H   UNL     1       3.009   7.982  19.026  0.00  0.00    +0.000 HD
ENDROOT
BRANCH   7  11
ATOM     11  C   UNL     1       1.238   8.466  20.729  0.00  0.00    +0.000 A 
ATOM     12  C   UNL     1       0.979   8.670  22.079  0.00  0.00    +0.000 A 
ATOM     13  C   UNL     1       0.347   9.847  22.438  0.00  0.00    +0.000 A 
ATOM     14  C   UNL     1       0.107  10.818  21.472  0.00  0.00    +0.000 A 
ATOM     15  C   UNL     1      -0.546  12.002  21.810  0.00  0.00    +0.000 A 
ATOM     16  C   UNL     1      -0.251  13.158  21.117  0.00  0.00    +0.000 A 
ATOM     17  C   UNL     1       0.382  13.045  19.889  0.00  0.00    +0.000 A 
ATOM     18  C   UNL     1       0.687  11.770  19.377  0.00  0.00    +0.000 A 
ATOM     19  C   UNL     1       0.621  10.628  20.175  0.00  0.00    +0.000 A 
ATOM     20  N   UNL     1       1.080   9.416  19.766  0.00  0.00    +0.000 NA
ENDBRANCH   7  11
BRANCH   1  22
ATOM     21  C   UNL     1       5.592   3.875  14.977  0.00  0.00    +0.000 C 
ATOM     22  C   UNL     1       5.647   5.023  16.000  0.00  0.00    +0.000 C 
BRANCH  22  23
ATOM     23  C   UNL     1       7.081   5.133  16.550  0.00  0.00    +0.000 C 
BRANCH  23  24
ATOM     24  C   UNL     1       7.384   6.429  17.222  0.00  0.00    +0.000 A 
ATOM     25  N   UNL     1       7.324   7.627  16.674  0.00  0.00    +0.000 NA
ATOM     26  N   UNL     1       7.882   8.528  17.552  0.00  0.00    +0.000 NA
ATOM     27  C   UNL     1       8.259   7.862  18.618  0.00  0.00    +0.000 A 
ATOM     28  N   UNL     1       7.891   6.559  18.489  0.00  0.00    +0.000 N 
ATOM     29  C   UNL     1       8.013   5.539  19.494  0.00  0.00    +0.000 C 
ENDBRANCH  23  24
ENDBRANCH  22  23
ENDBRANCH   1  22
TORSDOF 4
ENDMDL
