MODEL 1
REMARK VINA RESULT:      -9.5      0.000      0.000
REMARK  Name = 
REMARK  7 active torsions:
REMARK  status: ('A' for Active; 'I' for Inactive)
REMARK    1  A    between atoms: C_1  and  N_2
REMARK    2  A    between atoms: C_6  and  C_7
REMARK    3  A    between atoms: C_7  and  C_9
REMARK    4  A    between atoms: C_9  and  C_10
REMARK    5  A    between atoms: C_9  and  C_12
REMARK    6  A    between atoms: C_16  and  N_17
REMARK    7  A    between atoms: C_24  and  C_25
REMARK                            x       y       z     vdW  Elec       q    Type
REMARK                         _______ _______ _______ _____ _____    ______ ____
ROOT
ATOM      1  C   UNL     1       5.169   5.104  18.983  0.00  0.00    +0.000 A 
ATOM      2  C   UNL     1       4.646   3.888  19.428  0.00  0.00    +0.000 A 
ATOM      3  C   UNL     1       3.337   3.821  19.927  0.00  0.00    +0.000 A 
ATOM      4  C   UNL     1       2.521   4.962  19.975  0.00  0.00    +0.000 A 
ATOM      5  C   UNL     1       3.012   6.189  19.541  0.00  0.00    +0.000 A 
ATOM      6  C   UNL     1       4.342   6.232  19.074  0.00  0.00    +0.000 A 
ENDROOT
BRANCH   5   7
ATOM      7  N   UNL     1       2.241   7.378  19.510  0.00  0.00    +0.000 N 
ATOM      8  C   UNL     1       1.501   7.772  20.692  0.00  0.00    +0.000 C 
ATOM      9  C   UNL     1       0.920   9.091  20.344  0.00  0.00    +0.000 A 
ATOM     10  C   UNL     1       1.266   9.419  19.035  0.00  0.00    +0.000 A 
ATOM     11  C   UNL     1       0.848  10.608  18.470  0.00  0.00    +0.000 A 
ATOM     12  C   UNL     1       0.074  11.471  19.261  0.00  0.00    +0.000 A 
ATOM     13  C   UNL     1      -0.264  11.136  20.589  0.00  0.00    +0.000 A 
ATOM     14  C   UNL     1       0.161   9.928  21.157  0.00  0.00    +0.000 A 
ATOM     15  C   UNL     1       2.116   8.328  18.489  0.00  0.00    +0.000 C 
ATOM     16  O   UNL     1       2.583   8.351  17.366  0.00  0.00    +0.000 OA
BRANCH  14  17
ATOM     17  C   UNL     1      -0.174   9.569  22.584  0.00  0.00    +0.000 C 
ATOM     18  F   UNL     1       0.920   9.352  23.367  0.00  0.00    +0.000 F 
ATOM     19  F   UNL     1      -0.882  10.545  23.212  0.00  0.00    +0.000 F 
ATOM     20  F   UNL     1      -0.919   8.436  22.677  0.00  0.00    +0.000 F 
ENDBRANCH  14  17
ENDBRANCH   5   7
BRANCH   1  21
ATOM     21  C   UNL     1       6.568   5.279  18.373  0.00  0.00    +0.000 C 
ATOM     22  C   UNL     1       7.550   5.749  19.450  0.00  0.00    +0.000 C 
ATOM     23  F   UNL     1       7.048   4.058  17.950  0.00  0.00    +0.000 F 
BRANCH  21  24
ATOM     24  C   UNL     1       6.533   6.211  17.138  0.00  0.00    +0.000 C 
ATOM     25  F   UNL     1       7.534   7.138  17.241  0.00  0.00    +0.000 F 
BRANCH  24  31
ATOM     26  C   UNL     1       4.392   4.311  15.864  0.00  0.00    +0.000 C 
ATOM     27  N   UNL     1       5.682   4.636  15.317  0.00  0.00    +0.000 N 
ATOM     28  C   UNL     1       6.189   4.153  14.150  0.00  0.00    +0.000 A 
ATOM     29  N   UNL     1       7.369   4.683  13.935  0.00  0.00    +0.000 NA
ATOM     30  N   UNL     1       7.653   5.510  14.994  0.00  0.00    +0.000 NA
ATOM     31  C   UNL     1       6.635   5.479  15.834  0.00  0.00    +0.000 A 
ENDBRANCH  24  31
ENDBRANCH  21  24
ENDBRANCH   1  21
TORSDOF 5
ENDMDL
MODEL 2
REMARK VINA RESULT:      -9.4      1.403      2.502
REMARK  Name = 
REMARK  7 active torsions:
REMARK  status: ('A' for Active; 'I' for Inactive)
REMARK    1  A    between atoms: C_1  and  N_2
REMARK    2  A    between atoms: C_6  and  C_7
REMARK    3  A    between atoms: C_7  and  C_9
REMARK    4  A    between atoms: C_9  and  C_10
REMARK    5  A    between atoms: C_9  and  C_12
REMARK    6  A    between atoms: C_16  and  N_17
REMARK    7  A    between atoms: C_24  and  C_25
REMARK                            x       y       z     vdW  Elec       q    Type
REMARK                         _______ _______ _______ _____ _____    ______ ____
ROOT
ATOM      1  C   UNL     1       4.205   4.952  18.146  0.00  0.00    +0.000 A 
ATOM      2  C   UNL     1       3.983   3.922  19.062  0.00  0.00    +0.000 A 
ATOM      3  C   UNL     1       3.106   4.113  20.140  0.00  0.00    +0.000 A 
ATOM      4  C   UNL     1       2.422   5.326  20.312  0.00  0.00    +0.000 A 
ATOM      5  C   UNL     1       2.623   6.372  19.417  0.00  0.00    +0.000 A 
ATOM      6  C   UNL     1       3.534   6.163  18.361  0.00  0.00    +0.000 A 
ENDROOT
BRANCH   5   7
ATOM      7  N   UNL     1       1.937   7.611  19.488  0.00  0.00    +0.000 N 
ATOM      8  C   UNL     1       1.224   7.956  20.702  0.00  0.00    +0.000 C 
ATOM      9  C   UNL     1       0.739   9.336  20.468  0.00  0.00    +0.000 A 
ATOM     10  C   UNL     1       1.109   9.748  19.190  0.00  0.00    +0.000 A 
ATOM     11  C   UNL     1       0.777  11.007  18.729  0.00  0.00    +0.000 A 
ATOM     12  C   UNL     1       0.064  11.853  19.593  0.00  0.00    +0.000 A 
ATOM     13  C   UNL     1      -0.298  11.432  20.889  0.00  0.00    +0.000 A 
ATOM     14  C   UNL     1       0.039  10.153  21.352  0.00  0.00    +0.000 A 
ATOM     15  C   UNL     1       1.881   8.650  18.551  0.00  0.00    +0.000 C 
ATOM     16  O   UNL     1       2.351   8.734  17.432  0.00  0.00    +0.000 OA
BRANCH  14  17
ATOM     17  C   UNL     1      -0.323   9.700  22.745  0.00  0.00    +0.000 C 
ATOM     18  F   UNL     1      -1.170  10.548  23.395  0.00  0.00    +0.000 F 
ATOM     19  F   UNL     1      -0.946   8.491  22.751  0.00  0.00    +0.000 F 
ATOM     20  F   UNL     1       0.761   9.576  23.554  0.00  0.00    +0.000 F 
ENDBRANCH  14  17
ENDBRANCH   5   7
BRANCH   1  21
ATOM     21  C   UNL     1       5.104   4.833  16.905  0.00  0.00    +0.000 C 
ATOM     22  C   UNL     1       4.643   3.654  16.042  0.00  0.00    +0.000 C 
ATOM     23  F   UNL     1       4.950   5.948  16.109  0.00  0.00    +0.000 F 
BRANCH  21  24
ATOM     24  C   UNL     1       6.598   4.748  17.295  0.00  0.00    +0.000 C 
ATOM     25  F   UNL     1       7.284   4.067  16.326  0.00  0.00    +0.000 F 
BRANCH  24  31
ATOM     26  C   UNL     1       8.120   5.690  19.867  0.00  0.00    +0.000 C 
ATOM     27  N   UNL     1       7.872   6.471  18.685  0.00  0.00    +0.000 N 
ATOM     28  C   UNL     1       8.252   7.765  18.498  0.00  0.00    +0.000 A 
ATOM     29  N   UNL     1       7.900   8.155  17.297  0.00  0.00    +0.000 NA
ATOM     30  N   UNL     1       7.252   7.105  16.693  0.00  0.00    +0.000 NA
ATOM     31  C   UNL     1       7.230   6.087  17.533  0.00  0.00    +0.000 A 
ENDBRANCH  24  31
ENDBRANCH  21  24
ENDBRANCH   1  21
TORSDOF 5
ENDMDL
MODEL 3
REMARK VINA RESULT:      -9.1      0.921      1.304
REMARK  Name = 
REMARK  7 active torsions:
REMARK  status: ('A' for Active; 'I' for Inactive)
REMARK    1  A    between atoms: C_1  and  N_2
REMARK    2  A    between atoms: C_6  and  C_7
REMARK    3  A    between atoms: C_7  and  C_9
REMARK    4  A    between atoms: C_9  and  C_10
REMARK    5  A    between atoms: C_9  and  C_12
REMARK    6  A    between atoms: C_16  and  N_17
REMARK    7  A    between atoms: C_24  and  C_25
REMARK                            x       y       z     vdW  Elec       q    Type
REMARK                         _______ _______ _______ _____ _____    ______ ____
ROOT
ATOM      1  C   UNL     1       4.723   5.078  18.457  0.00  0.00    +0.000 A 
ATOM      2  C   UNL     1       4.284   3.928  19.116  0.00  0.00    +0.000 A 
ATOM      3  C   UNL     1       3.133   3.966  19.915  0.00  0.00    +0.000 A 
ATOM      4  C   UNL     1       2.387   5.147  20.056  0.00  0.00    +0.000 A 
ATOM      5  C   UNL     1       2.798   6.311  19.414  0.00  0.00    +0.000 A 
ATOM      6  C   UNL     1       3.977   6.250  18.643  0.00  0.00    +0.000 A 
ENDROOT
BRANCH   5   7
ATOM      7  N   UNL     1       2.079   7.531  19.463  0.00  0.00    +0.000 N 
ATOM      8  C   UNL     1       1.386   7.895  20.683  0.00  0.00    +0.000 C 
ATOM      9  C   UNL     1       0.856   9.253  20.417  0.00  0.00    +0.000 A 
ATOM     10  C   UNL     1       1.183   9.634  19.118  0.00  0.00    +0.000 A 
ATOM     11  C   UNL     1       0.804  10.867  18.625  0.00  0.00    +0.000 A 
ATOM     12  C   UNL     1       0.088  11.720  19.480  0.00  0.00    +0.000 A 
ATOM     13  C   UNL     1      -0.231  11.332  20.797  0.00  0.00    +0.000 A 
ATOM     14  C   UNL     1       0.154  10.079  21.292  0.00  0.00    +0.000 A 
ATOM     15  C   UNL     1       1.971   8.537  18.496  0.00  0.00    +0.000 C 
ATOM     16  O   UNL     1       2.411   8.598  17.363  0.00  0.00    +0.000 OA
BRANCH  14  17
ATOM     17  C   UNL     1      -0.162   9.661  22.707  0.00  0.00    +0.000 C 
ATOM     18  F   UNL     1       0.941   9.361  23.450  0.00  0.00    +0.000 F 
ATOM     19  F   UNL     1      -0.814  10.632  23.401  0.00  0.00    +0.000 F 
ATOM     20  F   UNL     1      -0.950   8.555  22.763  0.00  0.00    +0.000 F 
ENDBRANCH  14  17
ENDBRANCH   5   7
BRANCH   1  21
ATOM     21  C   UNL     1       5.939   5.134  17.520  0.00  0.00    +0.000 C 
ATOM     22  C   UNL     1       6.296   6.593  17.220  0.00  0.00    +0.000 C 
ATOM     23  F   UNL     1       7.043   4.612  18.157  0.00  0.00    +0.000 F 
BRANCH  21  24
ATOM     24  C   UNL     1       5.705   4.294  16.241  0.00  0.00    +0.000 C 
ATOM     25  F   UNL     1       4.386   4.364  15.886  0.00  0.00    +0.000 F 
BRANCH  24  31
ATOM     26  C   UNL     1       5.358   3.496  13.231  0.00  0.00    +0.000 C 
ATOM     27  N   UNL     1       6.403   4.316  13.785  0.00  0.00    +0.000 N 
ATOM     28  C   UNL     1       7.427   4.872  13.081  0.00  0.00    +0.000 A 
ATOM     29  N   UNL     1       8.173   5.586  13.888  0.00  0.00    +0.000 NA
ATOM     30  N   UNL     1       7.644   5.476  15.151  0.00  0.00    +0.000 NA
ATOM     31  C   UNL     1       6.575   4.704  15.091  0.00  0.00    +0.000 A 
ENDBRANCH  24  31
ENDBRANCH  21  24
ENDBRANCH   1  21
TORSDOF 5
ENDMDL
MODEL 4
REMARK VINA RESULT:      -8.6      2.525      3.623
REMARK  Name = 
REMARK  7 active torsions:
REMARK  status: ('A' for Active; 'I' for Inactive)
REMARK    1  A    between atoms: C_1  and  N_2
REMARK    2  A    between atoms: C_6  and  C_7
REMARK    3  A    between atoms: C_7  and  C_9
REMARK    4  A    between atoms: C_9  and  C_10
REMARK    5  A    between atoms: C_9  and  C_12
REMARK    6  A    between atoms: C_16  and  N_17
REMARK    7  A    between atoms: C_24  and  C_25
REMARK                            x       y       z     vdW  Elec       q    Type
REMARK                         _______ _______ _______ _____ _____    ______ ____
ROOT
ATOM      1  C   UNL     1       4.283   4.683  16.776  0.00  0.00    +0.000 A 
ATOM      2  C   UNL     1       3.566   3.491  16.658  0.00  0.00    +0.000 A 
ATOM      3  C   UNL     1       2.403   3.288  17.415  0.00  0.00    +0.000 A 
ATOM      4  C   UNL     1       1.925   4.277  18.289  0.00  0.00    +0.000 A 
ATOM      5  C   UNL     1       2.617   5.475  18.430  0.00  0.00    +0.000 A 
ATOM      6  C   UNL     1       3.800   5.639  17.680  0.00  0.00    +0.000 A 
ENDROOT
BRANCH   5   7
ATOM      7  N   UNL     1       2.179   6.544  19.252  0.00  0.00    +0.000 N 
ATOM      8  C   UNL     1       1.985   7.854  18.665  0.00  0.00    +0.000 C 
ATOM      9  C   UNL     1       1.426   8.675  19.764  0.00  0.00    +0.000 A 
ATOM     10  C   UNL     1       1.340   7.905  20.921  0.00  0.00    +0.000 A 
ATOM     11  C   UNL     1       0.843   8.441  22.093  0.00  0.00    +0.000 A 
ATOM     12  C   UNL     1       0.424   9.780  22.073  0.00  0.00    +0.000 A 
ATOM     13  C   UNL     1       0.504  10.551  20.895  0.00  0.00    +0.000 A 
ATOM     14  C   UNL     1       1.011  10.003  19.709  0.00  0.00    +0.000 A 
ATOM     15  C   UNL     1       1.819   6.533  20.605  0.00  0.00    +0.000 C 
ATOM     16  O   UNL     1       1.841   5.633  21.424  0.00  0.00    +0.000 OA
BRANCH  14  17
ATOM     17  C   UNL     1       1.081  10.811  18.436  0.00  0.00    +0.000 C 
ATOM     18  F   UNL     1       2.330  10.871  17.893  0.00  0.00    +0.000 F 
ATOM     19  F   UNL     1       0.283  10.306  17.457  0.00  0.00    +0.000 F 
ATOM     20  F   UNL     1       0.699  12.103  18.614  0.00  0.00    +0.000 F 
ENDBRANCH  14  17
ENDBRANCH   5   7
BRANCH   1  21
ATOM     21  C   UNL     1       5.537   5.029  15.958  0.00  0.00    +0.000 C 
ATOM     22  C   UNL     1       5.563   4.198  14.671  0.00  0.00    +0.000 C 
ATOM     23  F   UNL     1       5.477   6.342  15.544  0.00  0.00    +0.000 F 
BRANCH  21  24
ATOM     24  C   UNL     1       6.824   4.872  16.804  0.00  0.00    +0.000 C 
ATOM     25  F   UNL     1       7.763   4.191  16.080  0.00  0.00    +0.000 F 
BRANCH  24  31
ATOM     26  C   UNL     1       7.806   5.555  19.700  0.00  0.00    +0.000 C 
ATOM     27  N   UNL     1       7.786   6.446  18.571  0.00  0.00    +0.000 N 
ATOM     28  C   UNL     1       8.184   7.747  18.584  0.00  0.00    +0.000 A 
ATOM     29  N   UNL     1       8.068   8.251  17.379  0.00  0.00    +0.000 NA
ATOM     30  N   UNL     1       7.561   7.269  16.565  0.00  0.00    +0.000 NA
ATOM     31  C   UNL     1       7.384   6.177  17.285  0.00  0.00    +0.000 A 
ENDBRANCH  24  31
ENDBRANCH  21  24
ENDBRANCH   1  21
TORSDOF 5
ENDMDL
MODEL 5
REMARK VINA RESULT:      -8.6      2.617      3.697
REMARK  Name = 
REMARK  7 active torsions:
REMARK  status: ('A' for Active; 'I' for Inactive)
REMARK    1  A    between atoms: C_1  and  N_2
REMARK    2  A    between atoms: C_6  and  C_7
REMARK    3  A    between atoms: C_7  and  C_9
REMARK    4  A    between atoms: C_9  and  C_10
REMARK    5  A    between atoms: C_9  and  C_12
REMARK    6  A    between atoms: C_16  and  N_17
REMARK    7  A    between atoms: C_24  and  C_25
REMARK                            x       y       z     vdW  Elec       q    Type
REMARK                         _______ _______ _______ _____ _____    ______ ____
ROOT
ATOM      1  C   UNL     1       4.600   4.539  16.620  0.00  0.00    +0.000 A 
ATOM      2  C   UNL     1       4.222   3.203  16.771  0.00  0.00    +0.000 A 
ATOM      3  C   UNL     1       3.291   2.839  17.755  0.00  0.00    +0.000 A 
ATOM      4  C   UNL     1       2.708   3.802  18.593  0.00  0.00    +0.000 A 
ATOM      5  C   UNL     1       3.065   5.141  18.469  0.00  0.00    +0.000 A 
ATOM      6  C   UNL     1       4.026   5.474  17.493  0.00  0.00    +0.000 A 
ENDROOT
BRANCH   5   7
ATOM      7  N   UNL     1       2.491   6.182  19.240  0.00  0.00    +0.000 N 
ATOM      8  C   UNL     1       2.281   7.481  18.631  0.00  0.00    +0.000 C 
ATOM      9  C   UNL     1       1.573   8.268  19.668  0.00  0.00    +0.000 A 
ATOM     10  C   UNL     1       1.419   7.492  20.815  0.00  0.00    +0.000 A 
ATOM     11  C   UNL     1       0.782   7.998  21.931  0.00  0.00    +0.000 A 
ATOM     12  C   UNL     1       0.292   9.312  21.865  0.00  0.00    +0.000 A 
ATOM     13  C   UNL     1       0.443  10.087  20.697  0.00  0.00    +0.000 A 
ATOM     14  C   UNL     1       1.091   9.570  19.568  0.00  0.00    +0.000 A 
ATOM     15  C   UNL     1       2.002   6.150  20.552  0.00  0.00    +0.000 C 
ATOM     16  O   UNL     1       1.996   5.252  21.373  0.00  0.00    +0.000 OA
BRANCH  14  17
ATOM     17  C   UNL     1       1.239  10.382  18.304  0.00  0.00    +0.000 C 
ATOM     18  F   UNL     1       0.656   9.810  17.213  0.00  0.00    +0.000 F 
ATOM     19  F   UNL     1       0.675  11.615  18.412  0.00  0.00    +0.000 F 
ATOM     20  F   UNL     1       2.538  10.584  17.960  0.00  0.00    +0.000 F 
ENDBRANCH  14  17
ENDBRANCH   5   7
BRANCH   1  21
ATOM     21  C   UNL     1       5.570   5.052  15.545  0.00  0.00    +0.000 C 
ATOM     22  C   UNL     1       5.214   4.436  14.188  0.00  0.00    +0.000 C 
ATOM     23  F   UNL     1       5.409   6.411  15.381  0.00  0.00    +0.000 F 
BRANCH  21  24
ATOM     24  C   UNL     1       7.044   4.809  15.950  0.00  0.00    +0.000 C 
ATOM     25  F   UNL     1       7.868   5.485  15.093  0.00  0.00    +0.000 F 
BRANCH  24  31
ATOM     26  C   UNL     1       7.501   7.699  17.071  0.00  0.00    +0.000 C 
ATOM     27  N   UNL     1       7.559   6.472  17.819  0.00  0.00    +0.000 N 
ATOM     28  C   UNL     1       7.838   6.369  19.147  0.00  0.00    +0.000 A 
ATOM     29  N   UNL     1       7.771   5.111  19.511  0.00  0.00    +0.000 NA
ATOM     30  N   UNL     1       7.467   4.371  18.394  0.00  0.00    +0.000 NA
ATOM     31  C   UNL     1       7.343   5.193  17.368  0.00  0.00    +0.000 A 
ENDBRANCH  24  31
ENDBRANCH  21  24
ENDBRANCH   1  21
TORSDOF 5
ENDMDL
MODEL 6
REMARK VINA RESULT:      -8.5      0.883      1.133
REMARK  Name = 
REMARK  7 active torsions:
REMARK  status: ('A' for Active; 'I' for Inactive)
REMARK    1  A    between atoms: C_1  and  N_2
REMARK    2  A    between atoms: C_6  and  C_7
REMARK    3  A    between atoms: C_7  and  C_9
REMARK    4  A    between atoms: C_9  and  C_10
REMARK    5  A    between atoms: C_9  and  C_12
REMARK    6  A    between atoms: C_16  and  N_17
REMARK    7  A    between atoms: C_24  and  C_25
REMARK                            x       y       z     vdW  Elec       q    Type
REMARK                         _______ _______ _______ _____ _____    ______ ____
ROOT
ATOM      1  C   UNL     1       4.311   4.879  18.820  0.00  0.00    +0.000 A 
ATOM      2  C   UNL     1       3.800   3.781  19.513  0.00  0.00    +0.000 A 
ATOM      3  C   UNL     1       2.661   3.921  20.319  0.00  0.00    +0.000 A 
ATOM      4  C   UNL     1       2.001   5.154  20.432  0.00  0.00    +0.000 A 
ATOM      5  C   UNL     1       2.486   6.268  19.755  0.00  0.00    +0.000 A 
ATOM      6  C   UNL     1       3.651   6.105  18.978  0.00  0.00    +0.000 A 
ENDROOT
BRANCH   5   7
ATOM      7  N   UNL     1       1.854   7.537  19.776  0.00  0.00    +0.000 N 
ATOM      8  C   UNL     1       1.124   7.945  20.960  0.00  0.00    +0.000 C 
ATOM      9  C   UNL     1       0.707   9.338  20.677  0.00  0.00    +0.000 A 
ATOM     10  C   UNL     1       1.129   9.700  19.400  0.00  0.00    +0.000 A 
ATOM     11  C   UNL     1       0.866  10.959  18.897  0.00  0.00    +0.000 A 
ATOM     12  C   UNL     1       0.167  11.858  19.718  0.00  0.00    +0.000 A 
ATOM     13  C   UNL     1      -0.248  11.488  21.014  0.00  0.00    +0.000 A 
ATOM     14  C   UNL     1       0.020  10.209  21.519  0.00  0.00    +0.000 A 
ATOM     15  C   UNL     1       1.869   8.552  18.811  0.00  0.00    +0.000 C 
ATOM     16  O   UNL     1       2.372   8.586  17.704  0.00  0.00    +0.000 OA
BRANCH  14  17
ATOM     17  C   UNL     1      -0.399   9.809  22.912  0.00  0.00    +0.000 C 
ATOM     18  F   UNL     1      -1.140   8.665  22.956  0.00  0.00    +0.000 F 
ATOM     19  F   UNL     1       0.664   9.584  23.730  0.00  0.00    +0.000 F 
ATOM     20  F   UNL     1      -1.158  10.757  23.523  0.00  0.00    +0.000 F 
ENDBRANCH  14  17
ENDBRANCH   5   7
BRANCH   1  21
ATOM     21  C   UNL     1       5.520   4.825  17.872  0.00  0.00    +0.000 C 
ATOM     22  C   UNL     1       6.806   5.112  18.654  0.00  0.00    +0.000 C 
ATOM     23  F   UNL     1       5.671   3.546  17.382  0.00  0.00    +0.000 F 
BRANCH  21  24
ATOM     24  C   UNL     1       5.329   5.764  16.658  0.00  0.00    +0.000 C 
ATOM     25  F   UNL     1       5.463   7.064  17.063  0.00  0.00    +0.000 F 
BRANCH  24  31
ATOM     26  C   UNL     1       4.773   3.961  14.156  0.00  0.00    +0.000 C 
ATOM     27  N   UNL     1       5.995   4.659  14.453  0.00  0.00    +0.000 N 
ATOM     28  C   UNL     1       7.122   4.638  13.692  0.00  0.00    +0.000 A 
ATOM     29  N   UNL     1       8.031   5.412  14.235  0.00  0.00    +0.000 NA
ATOM     30  N   UNL     1       7.498   5.932  15.388  0.00  0.00    +0.000 NA
ATOM     31  C   UNL     1       6.267   5.474  15.525  0.00  0.00    +0.000 A 
ENDBRANCH  24  31
ENDBRANCH  21  24
ENDBRANCH   1  21
TORSDOF 5
ENDMDL
MODEL 7
REMARK VINA RESULT:      -8.3      3.859      8.610
REMARK  Name = 
REMARK  7 active torsions:
REMARK  status: ('A' for Active; 'I' for Inactive)
REMARK    1  A    between atoms: C_1  and  N_2
REMARK    2  A    between atoms: C_6  and  C_7
REMARK    3  A    between atoms: C_7  and  C_9
REMARK    4  A    between atoms: C_9  and  C_10
REMARK    5  A    between atoms: C_9  and  C_12
REMARK    6  A    between atoms: C_16  and  N_17
REMARK    7  A    between atoms: C_24  and  C_25
REMARK                            x       y       z     vdW  Elec       q    Type
REMARK                         _______ _______ _______ _____ _____    ______ ____
ROOT
ATOM      1  C   UNL     1      -0.666  10.878  20.512  0.00  0.00    +0.000 A 
ATOM      2  C   UNL     1      -0.683  11.026  21.900  0.00  0.00    +0.000 A 
ATOM      3  C   UNL     1       0.010  10.120  22.715  0.00  0.00    +0.000 A 
ATOM      4  C   UNL     1       0.747   9.062  22.160  0.00  0.00    +0.000 A 
ATOM      5  C   UNL     1       0.783   8.887  20.781  0.00  0.00    +0.000 A 
ATOM      6  C   UNL     1       0.051   9.794  19.988  0.00  0.00    +0.000 A 
ENDROOT
BRANCH   5   7
ATOM      7  N   UNL     1       1.540   7.876  20.136  0.00  0.00    +0.000 N 
ATOM      8  C   UNL     1       1.553   6.538  20.692  0.00  0.00    +0.000 C 
ATOM      9  C   UNL     1       2.331   5.738  19.718  0.00  0.00    +0.000 A 
ATOM     10  C   UNL     1       2.775   6.565  18.688  0.00  0.00    +0.000 A 
ATOM     11  C   UNL     1       3.524   6.055  17.646  0.00  0.00    +0.000 A 
ATOM     12  C   UNL     1       3.814   4.682  17.658  0.00  0.00    +0.000 A 
ATOM     13  C   UNL     1       3.353   3.850  18.699  0.00  0.00    +0.000 A 
ATOM     14  C   UNL     1       2.594   4.372  19.756  0.00  0.00    +0.000 A 
ATOM     15  C   UNL     1       2.272   7.940  18.944  0.00  0.00    +0.000 C 
ATOM     16  O   UNL     1       2.489   8.875  18.196  0.00  0.00    +0.000 OA
BRANCH  14  17
ATOM     17  C   UNL     1       2.076   3.487  20.863  0.00  0.00    +0.000 C 
ATOM     18  F   UNL     1       2.466   3.882  22.109  0.00  0.00    +0.000 F 
ATOM     19  F   UNL     1       0.717   3.450  20.904  0.00  0.00    +0.000 F 
ATOM     20  F   UNL     1       2.491   2.199  20.743  0.00  0.00    +0.000 F 
ENDBRANCH  14  17
ENDBRANCH   5   7
BRANCH   1  21
ATOM     21  C   UNL     1      -1.348  11.840  19.526  0.00  0.00    +0.000 C 
ATOM     22  C   UNL     1      -2.140  11.042  18.486  0.00  0.00    +0.000 C 
ATOM     23  F   UNL     1      -2.284  12.603  20.190  0.00  0.00    +0.000 F 
BRANCH  21  24
ATOM     24  C   UNL     1      -0.327  12.815  18.891  0.00  0.00    +0.000 C 
ATOM     25  F   UNL     1      -0.782  13.214  17.664  0.00  0.00    +0.000 F 
BRANCH  24  31
ATOM     26  C   UNL     1       2.215  13.284  20.662  0.00  0.00    +0.000 C 
ATOM     27  N   UNL     1       1.089  14.169  20.529  0.00  0.00    +0.000 N 
ATOM     28  C   UNL     1       0.942  15.362  21.168  0.00  0.00    +0.000 A 
ATOM     29  N   UNL     1      -0.180  15.924  20.790  0.00  0.00    +0.000 NA
ATOM     30  N   UNL     1      -0.793  15.073  19.903  0.00  0.00    +0.000 NA
ATOM     31  C   UNL     1      -0.029  14.008  19.748  0.00  0.00    +0.000 A 
ENDBRANCH  24  31
ENDBRANCH  21  24
ENDBRANCH   1  21
TORSDOF 5
ENDMDL
MODEL 8
REMARK VINA RESULT:      -8.2      3.842      8.543
REMARK  Name = 
REMARK  7 active torsions:
REMARK  status: ('A' for Active; 'I' for Inactive)
REMARK    1  A    between atoms: C_1  and  N_2
REMARK    2  A    between atoms: C_6  and  C_7
REMARK    3  A    between atoms: C_7  and  C_9
REMARK    4  A    between atoms: C_9  and  C_10
REMARK    5  A    between atoms: C_9  and  C_12
REMARK    6  A    between atoms: C_16  and  N_17
REMARK    7  A    between atoms: C_24  and  C_25
REMARK                            x       y       z     vdW  Elec       q    Type
REMARK                         _______ _______ _______ _____ _____    ______ ____
ROOT
ATOM      1  C   UNL     1      -0.392  11.035  20.754  0.00  0.00    +0.000 A 
ATOM      2  C   UNL     1      -0.662  10.940  22.120  0.00  0.00    +0.000 A 
ATOM      3  C   UNL     1      -0.239   9.819  22.848  0.00  0.00    +0.000 A 
ATOM      4  C   UNL     1       0.479   8.782  22.230  0.00  0.00    +0.000 A 
ATOM      5  C   UNL     1       0.763   8.847  20.870  0.00  0.00    +0.000 A 
ATOM      6  C   UNL     1       0.298   9.971  20.157  0.00  0.00    +0.000 A 
ENDROOT
BRANCH   5   7
ATOM      7  N   UNL     1       1.522   7.870  20.179  0.00  0.00    +0.000 N 
ATOM      8  C   UNL     1       1.541   6.507  20.674  0.00  0.00    +0.000 C 
ATOM      9  C   UNL     1       2.320   5.755  19.663  0.00  0.00    +0.000 A 
ATOM     10  C   UNL     1       2.759   6.629  18.671  0.00  0.00    +0.000 A 
ATOM     11  C   UNL     1       3.509   6.170  17.605  0.00  0.00    +0.000 A 
ATOM     12  C   UNL     1       3.803   4.799  17.555  0.00  0.00    +0.000 A 
ATOM     13  C   UNL     1       3.346   3.919  18.557  0.00  0.00    +0.000 A 
ATOM     14  C   UNL     1       2.588   4.389  19.637  0.00  0.00    +0.000 A 
ATOM     15  C   UNL     1       2.252   7.990  18.990  0.00  0.00    +0.000 C 
ATOM     16  O   UNL     1       2.465   8.959  18.285  0.00  0.00    +0.000 OA
BRANCH  14  17
ATOM     17  C   UNL     1       2.075   3.454  20.705  0.00  0.00    +0.000 C 
ATOM     18  F   UNL     1       2.434   3.814  21.970  0.00  0.00    +0.000 F 
ATOM     19  F   UNL     1       0.717   3.380  20.720  0.00  0.00    +0.000 F 
ATOM     20  F   UNL     1       2.525   2.181  20.547  0.00  0.00    +0.000 F 
ENDBRANCH  14  17
ENDBRANCH   5   7
BRANCH   1  21
ATOM     21  C   UNL     1      -0.765  12.239  19.875  0.00  0.00    +0.000 C 
ATOM     22  C   UNL     1      -1.691  11.787  18.741  0.00  0.00    +0.000 C 
ATOM     23  F   UNL     1      -1.502  13.142  20.610  0.00  0.00    +0.000 F 
BRANCH  21  24
ATOM     24  C   UNL     1       0.495  12.980  19.367  0.00  0.00    +0.000 C 
ATOM     25  F   UNL     1       0.171  13.728  18.268  0.00  0.00    +0.000 F 
BRANCH  24  31
ATOM     26  C   UNL     1      -0.064  16.012  19.926  0.00  0.00    +0.000 C 
ATOM     27  N   UNL     1       0.885  15.176  20.610  0.00  0.00    +0.000 N 
ATOM     28  C   UNL     1       1.711  15.578  21.614  0.00  0.00    +0.000 A 
ATOM     29  N   UNL     1       2.417  14.556  22.035  0.00  0.00    +0.000 NA
ATOM     30  N   UNL     1       2.065  13.468  21.275  0.00  0.00    +0.000 NA
ATOM     31  C   UNL     1       1.142  13.842  20.409  0.00  0.00    +0.000 A 
ENDBRANCH  24  31
ENDBRANCH  21  24
ENDBRANCH   1  21
TORSDOF 5
ENDMDL
MODEL 9
REMARK VINA RESULT:      -8.2      3.941      9.288
REMARK  Name = 
REMARK  7 active torsions:
REMARK  status: ('A' for Active; 'I' for Inactive)
REMARK    1  A    between atoms: C_1  and  N_2
REMARK    2  A    between atoms: C_6  and  C_7
REMARK    3  A    between atoms: C_7  and  C_9
REMARK    4  A    between atoms: C_9  and  C_10
REMARK    5  A    between atoms: C_9  and  C_12
REMARK    6  A    between atoms: C_16  and  N_17
REMARK    7  A    between atoms: C_24  and  C_25
REMARK                            x       y       z     vdW  Elec       q    Type
REMARK                         _______ _______ _______ _____ _____    ______ ____
ROOT
ATOM      1  C   UNL     1      -0.700  10.878  20.703  0.00  0.00    +0.000 A 
ATOM      2  C   UNL     1      -0.682  10.990  22.095  0.00  0.00    +0.000 A 
ATOM      3  C   UNL     1       0.036  10.068  22.869  0.00  0.00    +0.000 A 
ATOM      4  C   UNL     1       0.764   9.029  22.268  0.00  0.00    +0.000 A 
ATOM      5  C   UNL     1       0.766   8.889  20.884  0.00  0.00    +0.000 A 
ATOM      6  C   UNL     1       0.010   9.812  20.133  0.00  0.00    +0.000 A 
ENDROOT
BRANCH   5   7
ATOM      7  N   UNL     1       1.512   7.900  20.195  0.00  0.00    +0.000 N 
ATOM      8  C   UNL     1       1.547   6.549  20.717  0.00  0.00    +0.000 C 
ATOM      9  C   UNL     1       2.305   5.779  19.703  0.00  0.00    +0.000 A 
ATOM     10  C   UNL     1       2.717   6.633  18.684  0.00  0.00    +0.000 A 
ATOM     11  C   UNL     1       3.442   6.155  17.609  0.00  0.00    +0.000 A 
ATOM     12  C   UNL     1       3.739   4.783  17.580  0.00  0.00    +0.000 A 
ATOM     13  C   UNL     1       3.310   3.923  18.611  0.00  0.00    +0.000 A 
ATOM     14  C   UNL     1       2.576   4.413  19.700  0.00  0.00    +0.000 A 
ATOM     15  C   UNL     1       2.212   7.998  18.987  0.00  0.00    +0.000 C 
ATOM     16  O   UNL     1       2.405   8.953  18.257  0.00  0.00    +0.000 OA
BRANCH  14  17
ATOM     17  C   UNL     1       2.092   3.498  20.798  0.00  0.00    +0.000 C 
ATOM     18  F   UNL     1       2.466   3.894  22.047  0.00  0.00    +0.000 F 
ATOM     19  F   UNL     1       0.735   3.408  20.837  0.00  0.00    +0.000 F 
ATOM     20  F   UNL     1       2.556   2.228  20.665  0.00  0.00    +0.000 F 
ENDBRANCH  14  17
ENDBRANCH   5   7
BRANCH   1  21
ATOM     21  C   UNL     1      -1.410  11.862  19.760  0.00  0.00    +0.000 C 
ATOM     22  C   UNL     1      -0.433  12.346  18.684  0.00  0.00    +0.000 C 
ATOM     23  F   UNL     1      -2.412  11.209  19.075  0.00  0.00    +0.000 F 
BRANCH  21  24
ATOM     24  C   UNL     1      -2.069  13.021  20.544  0.00  0.00    +0.000 C 
ATOM     25  F   UNL     1      -1.754  14.211  19.946  0.00  0.00    +0.000 F 
BRANCH  24  31
ATOM     26  C   UNL     1      -3.702  12.613  23.187  0.00  0.00    +0.000 C 
ATOM     27  N   UNL     1      -4.236  12.684  21.853  0.00  0.00    +0.000 N 
ATOM     28  C   UNL     1      -5.551  12.572  21.522  0.00  0.00    +0.000 A 
ATOM     29  N   UNL     1      -5.689  12.722  20.226  0.00  0.00    +0.000 NA
ATOM     30  N   UNL     1      -4.437  12.911  19.694  0.00  0.00    +0.000 NA
ATOM     31  C   UNL     1      -3.556  12.884  20.676  0.00  0.00    +0.000 A 
ENDBRANCH  24  31
ENDBRANCH  21  24
ENDBRANCH   1  21
TORSDOF 5
ENDMDL
