MODEL 1
REMARK VINA RESULT:      -8.9      0.000      0.000
REMARK  Name = 
REMARK  8 active torsions:
REMARK  status: ('A' for Active; 'I' for Inactive)
REMARK    1  A    between atoms: C_1  and  C_2
REMARK    2  A    between atoms: C_6  and  C_7
REMARK    3  A    between atoms: C_7  and  C_8
REMARK    4  A    between atoms: C_8  and  C_9
REMARK    5  A    between atoms: C_8  and  C_10
REMARK    6  A    between atoms: C_14  and  N_15
REMARK    7  A    between atoms: C_16  and  C_18
REMARK    8  A    between atoms: C_22  and  C_23
REMARK                            x       y       z     vdW  Elec       q    Type
REMARK                         _______ _______ _______ _____ _____    ______ ____
ROOT
ATOM      1  C   UNL     1       4.558   5.260  16.785  0.00  0.00    +0.000 A 
ATOM      2  C   UNL     1       4.179   3.964  17.162  0.00  0.00    +0.000 A 
ATOM      3  C   UNL     1       3.211   3.763  18.142  0.00  0.00    +0.000 A 
ATOM      4  C   UNL     1       2.600   4.851  18.758  0.00  0.00    +0.000 A 
ATOM      5  C   UNL     1       2.945   6.157  18.405  0.00  0.00    +0.000 A 
ATOM      6  C   UNL     1       3.914   6.352  17.407  0.00  0.00    +0.000 A 
ENDROOT
BRANCH   5   7
ATOM      7  N   UNL     1       2.353   7.291  19.005  0.00  0.00    +0.000 N 
ATOM      8  C   UNL     1       2.052   8.493  18.381  0.00  0.00    +0.000 C 
ATOM      9  O   UNL     1       2.230   8.771  17.199  0.00  0.00    +0.000 OA
ATOM     10  H   UNL     1       2.056   7.215  19.973  0.00  0.00    +0.000 HD
BRANCH   8  11
ATOM     11  C   UNL     1       1.417   9.520  19.261  0.00  0.00    +0.000 A 
ATOM     12  C   UNL     1       1.294  10.811  18.792  0.00  0.00    +0.000 A 
ATOM     13  C   UNL     1       0.684  11.691  19.644  0.00  0.00    +0.000 A 
ATOM     14  N   UNL     1       0.229  11.341  20.860  0.00  0.00    +0.000 NA
ATOM     15  C   UNL     1       0.385  10.048  21.247  0.00  0.00    +0.000 A 
ATOM     16  N   UNL     1       0.979   9.105  20.475  0.00  0.00    +0.000 NA
BRANCH  15  17
ATOM     17  C   UNL     1      -0.154   9.627  22.623  0.00  0.00    +0.000 C 
ATOM     18  F   UNL     1      -0.946  10.563  23.224  0.00  0.00    +0.000 F 
ATOM     19  F   UNL     1      -0.913   8.492  22.565  0.00  0.00    +0.000 F 
ATOM     20  F   UNL     1       0.841   9.358  23.522  0.00  0.00    +0.000 F 
ENDBRANCH  15  17
ENDBRANCH   8  11
ENDBRANCH   5   7
BRANCH   1  21
ATOM     21  C   UNL     1       5.601   5.506  15.692  0.00  0.00    +0.000 C 
ATOM     22  C   UNL     1       5.150   4.790  14.412  0.00  0.00    +0.000 C 
BRANCH  21  23
ATOM     23  C   UNL     1       7.039   5.100  16.103  0.00  0.00    +0.000 C 
BRANCH  23  29
ATOM     24  C   UNL     1       7.682   8.029  17.471  0.00  0.00    +0.000 C 
ATOM     25  C   UNL     1       7.681   6.691  18.106  0.00  0.00    +0.000 A 
ATOM     26  C   UNL     1       7.969   6.387  19.412  0.00  0.00    +0.000 A 
ATOM     27  O   UNL     1       7.870   5.051  19.609  0.00  0.00    +0.000 OA
ATOM     28  N   UNL     1       7.517   4.437  18.424  0.00  0.00    +0.000 NA
ATOM     29  C   UNL     1       7.397   5.420  17.522  0.00  0.00    +0.000 A 
ENDBRANCH  23  29
ENDBRANCH  21  23
ENDBRANCH   1  21
TORSDOF 6
ENDMDL
MODEL 2
REMARK VINA RESULT:      -8.7      1.103      1.280
REMARK  Name = 
REMARK  8 active torsions:
REMARK  status: ('A' for Active; 'I' for Inactive)
REMARK    1  A    between atoms: C_1  and  C_2
REMARK    2  A    between atoms: C_6  and  C_7
REMARK    3  A    between atoms: C_7  and  C_8
REMARK    4  A    between atoms: C_8  and  C_9
REMARK    5  A    between atoms: C_8  and  C_10
REMARK    6  A    between atoms: C_14  and  N_15
REMARK    7  A    between atoms: C_16  and  C_18
REMARK    8  A    between atoms: C_22  and  C_23
REMARK                            x       y       z     vdW  Elec       q    Type
REMARK                         _______ _______ _______ _____ _____    ______ ____
ROOT
ATOM      1  C   UNL     1       4.296   4.976  16.940  0.00  0.00    +0.000 A 
ATOM      2  C   UNL     1       3.661   3.739  17.121  0.00  0.00    +0.000 A 
ATOM      3  C   UNL     1       2.526   3.633  17.920  0.00  0.00    +0.000 A 
ATOM      4  C   UNL     1       2.000   4.760  18.546  0.00  0.00    +0.000 A 
ATOM      5  C   UNL     1       2.600   6.010  18.384  0.00  0.00    +0.000 A 
ATOM      6  C   UNL     1       3.738   6.111  17.567  0.00  0.00    +0.000 A 
ENDROOT
BRANCH   5   7
ATOM      7  N   UNL     1       2.103   7.180  19.002  0.00  0.00    +0.000 N 
ATOM      8  C   UNL     1       1.973   8.431  18.417  0.00  0.00    +0.000 C 
ATOM      9  O   UNL     1       2.249   8.732  17.259  0.00  0.00    +0.000 OA
ATOM     10  H   UNL     1       1.745   7.100  19.949  0.00  0.00    +0.000 HD
BRANCH   8  11
ATOM     11  C   UNL     1       1.406   9.488  19.308  0.00  0.00    +0.000 A 
ATOM     12  C   UNL     1       1.390  10.793  18.860  0.00  0.00    +0.000 A 
ATOM     13  C   UNL     1       0.837  11.702  19.720  0.00  0.00    +0.000 A 
ATOM     14  N   UNL     1       0.339  11.368  20.924  0.00  0.00    +0.000 NA
ATOM     15  C   UNL     1       0.389  10.060  21.289  0.00  0.00    +0.000 A 
ATOM     16  N   UNL     1       0.920   9.087  20.507  0.00  0.00    +0.000 NA
BRANCH  15  17
ATOM     17  C   UNL     1      -0.201   9.658  22.650  0.00  0.00    +0.000 C 
ATOM     18  F   UNL     1      -1.035  10.592  23.196  0.00  0.00    +0.000 F 
ATOM     19  F   UNL     1      -0.935   8.507  22.584  0.00  0.00    +0.000 F 
ATOM     20  F   UNL     1       0.759   9.427  23.595  0.00  0.00    +0.000 F 
ENDBRANCH  15  17
ENDBRANCH   8  11
ENDBRANCH   5   7
BRANCH   1  21
ATOM     21  C   UNL     1       5.530   5.122  16.046  0.00  0.00    +0.000 C 
ATOM     22  C   UNL     1       5.403   4.145  14.869  0.00  0.00    +0.000 C 
BRANCH  21  23
ATOM     23  C   UNL     1       6.870   4.940  16.804  0.00  0.00    +0.000 C 
BRANCH  23  29
ATOM     24  C   UNL     1       7.949   5.556  19.856  0.00  0.00    +0.000 C 
ATOM     25  C   UNL     1       7.907   6.466  18.688  0.00  0.00    +0.000 A 
ATOM     26  C   UNL     1       8.300   7.779  18.637  0.00  0.00    +0.000 A 
ATOM     27  O   UNL     1       8.099   8.275  17.394  0.00  0.00    +0.000 OA
ATOM     28  N   UNL     1       7.557   7.292  16.589  0.00  0.00    +0.000 NA
ATOM     29  C   UNL     1       7.448   6.204  17.362  0.00  0.00    +0.000 A 
ENDBRANCH  23  29
ENDBRANCH  21  23
ENDBRANCH   1  21
TORSDOF 6
ENDMDL
MODEL 3
REMARK VINA RESULT:      -8.2      5.193      7.442
REMARK  Name = 
REMARK  8 active torsions:
REMARK  status: ('A' for Active; 'I' for Inactive)
REMARK    1  A    between atoms: C_1  and  C_2
REMARK    2  A    between atoms: C_6  and  C_7
REMARK    3  A    between atoms: C_7  and  C_8
REMARK    4  A    between atoms: C_8  and  C_9
REMARK    5  A    between atoms: C_8  and  C_10
REMARK    6  A    between atoms: C_14  and  N_15
REMARK    7  A    between atoms: C_16  and  C_18
REMARK    8  A    between atoms: C_22  and  C_23
REMARK                            x       y       z     vdW  Elec       q    Type
REMARK                         _______ _______ _______ _____ _____    ______ ____
ROOT
ATOM      1  C   UNL     1       4.366   5.528  17.309  0.00  0.00    +0.000 A 
ATOM      2  C   UNL     1       5.073   4.456  16.743  0.00  0.00    +0.000 A 
ATOM      3  C   UNL     1       6.401   4.606  16.355  0.00  0.00    +0.000 A 
ATOM      4  C   UNL     1       7.050   5.825  16.530  0.00  0.00    +0.000 A 
ATOM      5  C   UNL     1       6.382   6.913  17.096  0.00  0.00    +0.000 A 
ATOM      6  C   UNL     1       5.046   6.751  17.496  0.00  0.00    +0.000 A 
ENDROOT
BRANCH   5   7
ATOM      7  N   UNL     1       7.001   8.169  17.290  0.00  0.00    +0.000 N 
ATOM      8  C   UNL     1       8.058   8.444  18.145  0.00  0.00    +0.000 C 
ATOM      9  O   UNL     1       8.650   7.643  18.863  0.00  0.00    +0.000 OA
ATOM     10  H   UNL     1       6.693   8.944  16.711  0.00  0.00    +0.000 HD
BRANCH   8  11
ATOM     11  C   UNL     1       8.519   9.866  18.142  0.00  0.00    +0.000 A 
ATOM     12  C   UNL     1       7.823  10.787  17.387  0.00  0.00    +0.000 A 
ATOM     13  C   UNL     1       8.289  12.071  17.449  0.00  0.00    +0.000 A 
ATOM     14  N   UNL     1       9.354  12.432  18.189  0.00  0.00    +0.000 NA
ATOM     15  C   UNL     1       9.982  11.465  18.908  0.00  0.00    +0.000 A 
ATOM     16  N   UNL     1       9.596  10.165  18.907  0.00  0.00    +0.000 NA
BRANCH  15  17
ATOM     17  C   UNL     1      11.183  11.867  19.778  0.00  0.00    +0.000 C 
ATOM     18  F   UNL     1      11.486  13.198  19.735  0.00  0.00    +0.000 F 
ATOM     19  F   UNL     1      10.991  11.580  21.101  0.00  0.00    +0.000 F 
ATOM     20  F   UNL     1      12.333  11.218  19.426  0.00  0.00    +0.000 F 
ENDBRANCH  15  17
ENDBRANCH   8  11
ENDBRANCH   5   7
BRANCH   1  21
ATOM     21  C   UNL     1       2.913   5.380  17.767  0.00  0.00    +0.000 C 
ATOM     22  C   UNL     1       2.736   6.137  19.090  0.00  0.00    +0.000 C 
BRANCH  21  23
ATOM     23  C   UNL     1       2.445   3.906  17.880  0.00  0.00    +0.000 C 
BRANCH  23  29
ATOM     24  C   UNL     1       4.507   2.496  20.030  0.00  0.00    +0.000 C 
ATOM     25  C   UNL     1       3.073   2.825  20.201  0.00  0.00    +0.000 A 
ATOM     26  C   UNL     1       2.289   2.591  21.302  0.00  0.00    +0.000 A 
ATOM     27  O   UNL     1       1.028   3.025  21.072  0.00  0.00    +0.000 OA
ATOM     28  N   UNL     1       0.948   3.554  19.800  0.00  0.00    +0.000 NA
ATOM     29  C   UNL     1       2.177   3.441  19.278  0.00  0.00    +0.000 A 
ENDBRANCH  23  29
ENDBRANCH  21  23
ENDBRANCH   1  21
TORSDOF 6
ENDMDL
MODEL 4
REMARK VINA RESULT:      -8.2      1.950      2.340
REMARK  Name = 
REMARK  8 active torsions:
REMARK  status: ('A' for Active; 'I' for Inactive)
REMARK    1  A    between atoms: C_1  and  C_2
REMARK    2  A    between atoms: C_6  and  C_7
REMARK    3  A    between atoms: C_7  and  C_8
REMARK    4  A    between atoms: C_8  and  C_9
REMARK    5  A    between atoms: C_8  and  C_10
REMARK    6  A    between atoms: C_14  and  N_15
REMARK    7  A    between atoms: C_16  and  C_18
REMARK    8  A    between atoms: C_22  and  C_23
REMARK                            x       y       z     vdW  Elec       q    Type
REMARK                         _______ _______ _______ _____ _____    ______ ____
ROOT
ATOM      1  C   UNL     1       4.623   5.037  16.669  0.00  0.00    +0.000 A 
ATOM      2  C   UNL     1       4.290   3.719  17.016  0.00  0.00    +0.000 A 
ATOM      3  C   UNL     1       3.276   3.459  17.933  0.00  0.00    +0.000 A 
ATOM      4  C   UNL     1       2.571   4.508  18.516  0.00  0.00    +0.000 A 
ATOM      5  C   UNL     1       2.868   5.834  18.192  0.00  0.00    +0.000 A 
ATOM      6  C   UNL     1       3.884   6.088  17.256  0.00  0.00    +0.000 A 
ENDROOT
BRANCH   5   7
ATOM      7  N   UNL     1       2.180   6.929  18.760  0.00  0.00    +0.000 N 
ATOM      8  C   UNL     1       2.080   8.206  18.228  0.00  0.00    +0.000 C 
ATOM      9  O   UNL     1       2.553   8.599  17.165  0.00  0.00    +0.000 OA
ATOM     10  H   UNL     1       1.651   6.768  19.612  0.00  0.00    +0.000 HD
BRANCH   8  11
ATOM     11  C   UNL     1       1.279   9.169  19.044  0.00  0.00    +0.000 A 
ATOM     12  C   UNL     1       1.449   9.180  20.412  0.00  0.00    +0.000 A 
ATOM     13  C   UNL     1       0.698  10.101  21.091  0.00  0.00    +0.000 A 
ATOM     14  N   UNL     1      -0.154  10.947  20.483  0.00  0.00    +0.000 NA
ATOM     15  C   UNL     1      -0.260  10.875  19.130  0.00  0.00    +0.000 A 
ATOM     16  N   UNL     1       0.439   9.994  18.373  0.00  0.00    +0.000 NA
BRANCH  15  17
ATOM     17  C   UNL     1      -1.209  11.852  18.420  0.00  0.00    +0.000 C 
ATOM     18  F   UNL     1      -0.660  13.075  18.158  0.00  0.00    +0.000 F 
ATOM     19  F   UNL     1      -1.639  11.380  17.211  0.00  0.00    +0.000 F 
ATOM     20  F   UNL     1      -2.343  12.107  19.139  0.00  0.00    +0.000 F 
ENDBRANCH  15  17
ENDBRANCH   8  11
ENDBRANCH   5   7
BRANCH   1  21
ATOM     21  C   UNL     1       5.716   5.347  15.644  0.00  0.00    +0.000 C 
ATOM     22  C   UNL     1       5.342   4.683  14.312  0.00  0.00    +0.000 C 
BRANCH  21  23
ATOM     23  C   UNL     1       7.137   4.941  16.111  0.00  0.00    +0.000 C 
BRANCH  23  29
ATOM     24  C   UNL     1       7.552   7.953  17.385  0.00  0.00    +0.000 C 
ATOM     25  C   UNL     1       7.653   6.639  18.062  0.00  0.00    +0.000 A 
ATOM     26  C   UNL     1       7.961   6.399  19.377  0.00  0.00    +0.000 A 
ATOM     27  O   UNL     1       7.964   5.067  19.615  0.00  0.00    +0.000 OA
ATOM     28  N   UNL     1       7.661   4.390  18.451  0.00  0.00    +0.000 NA
ATOM     29  C   UNL     1       7.467   5.333  17.519  0.00  0.00    +0.000 A 
ENDBRANCH  23  29
ENDBRANCH  21  23
ENDBRANCH   1  21
TORSDOF 6
ENDMDL
MODEL 5
REMARK VINA RESULT:      -8.1      5.400      7.365
REMARK  Name = 
REMARK  8 active torsions:
REMARK  status: ('A' for Active; 'I' for Inactive)
REMARK    1  A    between atoms: C_1  and  C_2
REMARK    2  A    between atoms: C_6  and  C_7
REMARK    3  A    between atoms: C_7  and  C_8
REMARK    4  A    between atoms: C_8  and  C_9
REMARK    5  A    between atoms: C_8  and  C_10
REMARK    6  A    between atoms: C_14  and  N_15
REMARK    7  A    between atoms: C_16  and  C_18
REMARK    8  A    between atoms: C_22  and  C_23
REMARK                            x       y       z     vdW  Elec       q    Type
REMARK                         _______ _______ _______ _____ _____    ______ ____
ROOT
ATOM      1  C   UNL     1       4.687   5.223  17.146  0.00  0.00    +0.000 A 
ATOM      2  C   UNL     1       5.447   4.217  16.532  0.00  0.00    +0.000 A 
ATOM      3  C   UNL     1       6.755   4.463  16.124  0.00  0.00    +0.000 A 
ATOM      4  C   UNL     1       7.330   5.714  16.328  0.00  0.00    +0.000 A 
ATOM      5  C   UNL     1       6.608   6.739  16.942  0.00  0.00    +0.000 A 
ATOM      6  C   UNL     1       5.293   6.480  17.361  0.00  0.00    +0.000 A 
ENDROOT
BRANCH   5   7
ATOM      7  N   UNL     1       7.150   8.024  17.166  0.00  0.00    +0.000 N 
ATOM      8  C   UNL     1       8.104   8.364  18.114  0.00  0.00    +0.000 C 
ATOM      9  O   UNL     1       8.654   7.604  18.906  0.00  0.00    +0.000 OA
ATOM     10  H   UNL     1       6.870   8.774  16.541  0.00  0.00    +0.000 HD
BRANCH   8  11
ATOM     11  C   UNL     1       8.503   9.804  18.122  0.00  0.00    +0.000 A 
ATOM     12  C   UNL     1       7.751  10.704  17.397  0.00  0.00    +0.000 A 
ATOM     13  C   UNL     1       8.163  12.006  17.468  0.00  0.00    +0.000 A 
ATOM     14  N   UNL     1       9.226  12.403  18.190  0.00  0.00    +0.000 NA
ATOM     15  C   UNL     1       9.912  11.455  18.880  0.00  0.00    +0.000 A 
ATOM     16  N   UNL     1       9.582  10.139  18.869  0.00  0.00    +0.000 NA
BRANCH  15  17
ATOM     17  C   UNL     1      11.113  11.896  19.730  0.00  0.00    +0.000 C 
ATOM     18  F   UNL     1      10.944  11.717  21.074  0.00  0.00    +0.000 F 
ATOM     19  F   UNL     1      12.257  11.217  19.414  0.00  0.00    +0.000 F 
ATOM     20  F   UNL     1      11.417  13.219  19.573  0.00  0.00    +0.000 F 
ENDBRANCH  15  17
ENDBRANCH   8  11
ENDBRANCH   5   7
BRANCH   1  21
ATOM     21  C   UNL     1       3.256   4.969  17.626  0.00  0.00    +0.000 C 
ATOM     22  C   UNL     1       3.003   5.812  18.883  0.00  0.00    +0.000 C 
BRANCH  21  23
ATOM     23  C   UNL     1       2.938   3.470  17.864  0.00  0.00    +0.000 C 
BRANCH  23  29
ATOM     24  C   UNL     1       0.631   3.358  20.215  0.00  0.00    +0.000 C 
ATOM     25  C   UNL     1       2.062   2.984  20.303  0.00  0.00    +0.000 A 
ATOM     26  C   UNL     1       2.738   2.522  21.403  0.00  0.00    +0.000 A 
ATOM     27  O   UNL     1       4.036   2.299  21.089  0.00  0.00    +0.000 OA
ATOM     28  N   UNL     1       4.249   2.618  19.763  0.00  0.00    +0.000 NA
ATOM     29  C   UNL     1       3.064   3.023  19.288  0.00  0.00    +0.000 A 
ENDBRANCH  23  29
ENDBRANCH  21  23
ENDBRANCH   1  21
TORSDOF 6
ENDMDL
MODEL 6
REMARK VINA RESULT:      -8.1      4.283      9.115
REMARK  Name = 
REMARK  8 active torsions:
REMARK  status: ('A' for Active; 'I' for Inactive)
REMARK    1  A    between atoms: C_1  and  C_2
REMARK    2  A    between atoms: C_6  and  C_7
REMARK    3  A    between atoms: C_7  and  C_8
REMARK    4  A    between atoms: C_8  and  C_9
REMARK    5  A    between atoms: C_8  and  C_10
REMARK    6  A    between atoms: C_14  and  N_15
REMARK    7  A    between atoms: C_16  and  C_18
REMARK    8  A    between atoms: C_22  and  C_23
REMARK                            x       y       z     vdW  Elec       q    Type
REMARK                         _______ _______ _______ _____ _____    ______ ____
ROOT
ATOM      1  C   UNL     1       0.110  10.273  19.712  0.00  0.00    +0.000 A 
ATOM      2  C   UNL     1      -0.205  10.125  21.070  0.00  0.00    +0.000 A 
ATOM      3  C   UNL     1       0.364   9.103  21.825  0.00  0.00    +0.000 A 
ATOM      4  C   UNL     1       1.262   8.215  21.240  0.00  0.00    +0.000 A 
ATOM      5  C   UNL     1       1.607   8.334  19.891  0.00  0.00    +0.000 A 
ATOM      6  C   UNL     1       1.038   9.375  19.140  0.00  0.00    +0.000 A 
ENDROOT
BRANCH   5   7
ATOM      7  N   UNL     1       2.512   7.455  19.256  0.00  0.00    +0.000 N 
ATOM      8  C   UNL     1       2.569   6.078  19.408  0.00  0.00    +0.000 C 
ATOM      9  O   UNL     1       1.831   5.384  20.103  0.00  0.00    +0.000 OA
ATOM     10  H   UNL     1       3.152   7.846  18.571  0.00  0.00    +0.000 HD
BRANCH   8  11
ATOM     11  C   UNL     1       3.627   5.396  18.602  0.00  0.00    +0.000 A 
ATOM     12  C   UNL     1       3.242   4.545  17.588  0.00  0.00    +0.000 A 
ATOM     13  C   UNL     1       4.264   3.973  16.880  0.00  0.00    +0.000 A 
ATOM     14  N   UNL     1       5.562   4.213  17.140  0.00  0.00    +0.000 NA
ATOM     15  C   UNL     1       5.858   5.068  18.154  0.00  0.00    +0.000 A 
ATOM     16  N   UNL     1       4.915   5.679  18.913  0.00  0.00    +0.000 NA
BRANCH  15  17
ATOM     17  C   UNL     1       7.336   5.372  18.445  0.00  0.00    +0.000 C 
ATOM     18  F   UNL     1       7.611   5.595  19.764  0.00  0.00    +0.000 F 
ATOM     19  F   UNL     1       8.166   4.354  18.067  0.00  0.00    +0.000 F 
ATOM     20  F   UNL     1       7.789   6.480  17.785  0.00  0.00    +0.000 F 
ENDBRANCH  15  17
ENDBRANCH   8  11
ENDBRANCH   5   7
BRANCH   1  21
ATOM     21  C   UNL     1      -0.483  11.404  18.868  0.00  0.00    +0.000 C 
ATOM     22  C   UNL     1       0.355  12.671  19.087  0.00  0.00    +0.000 C 
BRANCH  21  23
ATOM     23  C   UNL     1      -1.988  11.655  19.138  0.00  0.00    +0.000 C 
BRANCH  23  29
ATOM     24  C   UNL     1      -5.277  11.768  18.956  0.00  0.00    +0.000 C 
ATOM     25  C   UNL     1      -4.297  11.538  17.870  0.00  0.00    +0.000 A 
ATOM     26  C   UNL     1      -4.560  11.303  16.544  0.00  0.00    +0.000 A 
ATOM     27  O   UNL     1      -3.402  11.131  15.866  0.00  0.00    +0.000 OA
ATOM     28  N   UNL     1      -2.338  11.244  16.738  0.00  0.00    +0.000 NA
ATOM     29  C   UNL     1      -2.873  11.495  17.939  0.00  0.00    +0.000 A 
ENDBRANCH  23  29
ENDBRANCH  21  23
ENDBRANCH   1  21
TORSDOF 6
ENDMDL
MODEL 7
REMARK VINA RESULT:      -8.0      1.553      1.820
REMARK  Name = 
REMARK  8 active torsions:
REMARK  status: ('A' for Active; 'I' for Inactive)
REMARK    1  A    between atoms: C_1  and  C_2
REMARK    2  A    between atoms: C_6  and  C_7
REMARK    3  A    between atoms: C_7  and  C_8
REMARK    4  A    between atoms: C_8  and  C_9
REMARK    5  A    between atoms: C_8  and  C_10
REMARK    6  A    between atoms: C_14  and  N_15
REMARK    7  A    between atoms: C_16  and  C_18
REMARK    8  A    between atoms: C_22  and  C_23
REMARK                            x       y       z     vdW  Elec       q    Type
REMARK                         _______ _______ _______ _____ _____    ______ ____
ROOT
ATOM      1  C   UNL     1       4.458   4.746  16.825  0.00  0.00    +0.000 A 
ATOM      2  C   UNL     1       3.732   3.589  17.143  0.00  0.00    +0.000 A 
ATOM      3  C   UNL     1       2.521   3.674  17.823  0.00  0.00    +0.000 A 
ATOM      4  C   UNL     1       2.009   4.915  18.192  0.00  0.00    +0.000 A 
ATOM      5  C   UNL     1       2.698   6.090  17.887  0.00  0.00    +0.000 A 
ATOM      6  C   UNL     1       3.914   5.997  17.190  0.00  0.00    +0.000 A 
ENDROOT
BRANCH   5   7
ATOM      7  N   UNL     1       2.217   7.370  18.243  0.00  0.00    +0.000 N 
ATOM      8  C   UNL     1       1.839   7.786  19.511  0.00  0.00    +0.000 C 
ATOM      9  O   UNL     1       1.875   7.122  20.543  0.00  0.00    +0.000 OA
ATOM     10  H   UNL     1       2.197   8.087  17.524  0.00  0.00    +0.000 HD
BRANCH   8  11
ATOM     11  C   UNL     1       1.375   9.204  19.598  0.00  0.00    +0.000 A 
ATOM     12  C   UNL     1       1.606  10.044  18.529  0.00  0.00    +0.000 A 
ATOM     13  C   UNL     1       1.136  11.321  18.672  0.00  0.00    +0.000 A 
ATOM     14  N   UNL     1       0.490  11.747  19.772  0.00  0.00    +0.000 NA
ATOM     15  C   UNL     1       0.298  10.857  20.780  0.00  0.00    +0.000 A 
ATOM     16  N   UNL     1       0.731   9.572  20.732  0.00  0.00    +0.000 NA
BRANCH  15  17
ATOM     17  C   UNL     1      -0.461  11.322  22.032  0.00  0.00    +0.000 C 
ATOM     18  F   UNL     1      -1.819  11.344  21.887  0.00  0.00    +0.000 F 
ATOM     19  F   UNL     1      -0.224  10.523  23.117  0.00  0.00    +0.000 F 
ATOM     20  F   UNL     1      -0.114  12.584  22.424  0.00  0.00    +0.000 F 
ENDBRANCH  15  17
ENDBRANCH   8  11
ENDBRANCH   5   7
BRANCH   1  21
ATOM     21  C   UNL     1       5.779   4.680  16.055  0.00  0.00    +0.000 C 
ATOM     22  C   UNL     1       5.738   3.470  15.112  0.00  0.00    +0.000 C 
BRANCH  21  23
ATOM     23  C   UNL     1       7.030   4.654  16.971  0.00  0.00    +0.000 C 
BRANCH  23  29
ATOM     24  C   UNL     1       8.044   5.608  19.959  0.00  0.00    +0.000 C 
ATOM     25  C   UNL     1       7.935   6.410  18.718  0.00  0.00    +0.000 A 
ATOM     26  C   UNL     1       8.221   7.741  18.556  0.00  0.00    +0.000 A 
ATOM     27  O   UNL     1       7.986   8.114  17.277  0.00  0.00    +0.000 OA
ATOM     28  N   UNL     1       7.529   7.027  16.558  0.00  0.00    +0.000 NA
ATOM     29  C   UNL     1       7.504   6.002  17.420  0.00  0.00    +0.000 A 
ENDBRANCH  23  29
ENDBRANCH  21  23
ENDBRANCH   1  21
TORSDOF 6
ENDMDL
MODEL 8
REMARK VINA RESULT:      -8.0      2.649      3.534
REMARK  Name = 
REMARK  8 active torsions:
REMARK  status: ('A' for Active; 'I' for Inactive)
REMARK    1  A    between atoms: C_1  and  C_2
REMARK    2  A    between atoms: C_6  and  C_7
REMARK    3  A    between atoms: C_7  and  C_8
REMARK    4  A    between atoms: C_8  and  C_9
REMARK    5  A    between atoms: C_8  and  C_10
REMARK    6  A    between atoms: C_14  and  N_15
REMARK    7  A    between atoms: C_16  and  C_18
REMARK    8  A    between atoms: C_22  and  C_23
REMARK                            x       y       z     vdW  Elec       q    Type
REMARK                         _______ _______ _______ _____ _____    ______ ____
ROOT
ATOM      1  C   UNL     1       4.163   5.368  17.279  0.00  0.00    +0.000 A 
ATOM      2  C   UNL     1       3.569   4.100  17.363  0.00  0.00    +0.000 A 
ATOM      3  C   UNL     1       2.477   3.880  18.198  0.00  0.00    +0.000 A 
ATOM      4  C   UNL     1       1.955   4.922  18.959  0.00  0.00    +0.000 A 
ATOM      5  C   UNL     1       2.514   6.200  18.898  0.00  0.00    +0.000 A 
ATOM      6  C   UNL     1       3.607   6.417  18.044  0.00  0.00    +0.000 A 
ENDROOT
BRANCH   5   7
ATOM      7  N   UNL     1       2.018   7.286  19.654  0.00  0.00    +0.000 N 
ATOM      8  C   UNL     1       1.525   8.482  19.154  0.00  0.00    +0.000 C 
ATOM      9  O   UNL     1       1.415   8.794  17.972  0.00  0.00    +0.000 OA
ATOM     10  H   UNL     1       1.953   7.172  20.661  0.00  0.00    +0.000 HD
BRANCH   8  11
ATOM     11  C   UNL     1       1.056   9.453  20.189  0.00  0.00    +0.000 A 
ATOM     12  C   UNL     1       0.472   8.966  21.339  0.00  0.00    +0.000 A 
ATOM     13  C   UNL     1       0.087   9.912  22.249  0.00  0.00    +0.000 A 
ATOM     14  N   UNL     1       0.258  11.232  22.055  0.00  0.00    +0.000 NA
ATOM     15  C   UNL     1       0.846  11.631  20.896  0.00  0.00    +0.000 A 
ATOM     16  N   UNL     1       1.257  10.768  19.934  0.00  0.00    +0.000 NA
BRANCH  15  17
ATOM     17  C   UNL     1       1.071  13.133  20.671  0.00  0.00    +0.000 C 
ATOM     18  F   UNL     1       0.758  13.564  19.414  0.00  0.00    +0.000 F 
ATOM     19  F   UNL     1       0.328  13.908  21.518  0.00  0.00    +0.000 F 
ATOM     20  F   UNL     1       2.370  13.511  20.874  0.00  0.00    +0.000 F 
ENDBRANCH  15  17
ENDBRANCH   8  11
ENDBRANCH   5   7
BRANCH   1  21
ATOM     21  C   UNL     1       5.347   5.640  16.348  0.00  0.00    +0.000 C 
ATOM     22  C   UNL     1       4.995   6.825  15.439  0.00  0.00    +0.000 C 
BRANCH  21  23
ATOM     23  C   UNL     1       5.792   4.400  15.532  0.00  0.00    +0.000 C 
BRANCH  23  29
ATOM     24  C   UNL     1       5.551   3.374  12.409  0.00  0.00    +0.000 C 
ATOM     25  C   UNL     1       6.577   4.252  13.019  0.00  0.00    +0.000 A 
ATOM     26  C   UNL     1       7.665   4.816  12.404  0.00  0.00    +0.000 A 
ATOM     27  O   UNL     1       8.373   5.547  13.295  0.00  0.00    +0.000 OA
ATOM     28  N   UNL     1       7.766   5.477  14.533  0.00  0.00    +0.000 NA
ATOM     29  C   UNL     1       6.683   4.706  14.367  0.00  0.00    +0.000 A 
ENDBRANCH  23  29
ENDBRANCH  21  23
ENDBRANCH   1  21
TORSDOF 6
ENDMDL
MODEL 9
REMARK VINA RESULT:      -7.9      4.394      9.030
REMARK  Name = 
REMARK  8 active torsions:
REMARK  status: ('A' for Active; 'I' for Inactive)
REMARK    1  A    between atoms: C_1  and  C_2
REMARK    2  A    between atoms: C_6  and  C_7
REMARK    3  A    between atoms: C_7  and  C_8
REMARK    4  A    between atoms: C_8  and  C_9
REMARK    5  A    between atoms: C_8  and  C_10
REMARK    6  A    between atoms: C_14  and  N_15
REMARK    7  A    between atoms: C_16  and  C_18
REMARK    8  A    between atoms: C_22  and  C_23
REMARK                            x       y       z     vdW  Elec       q    Type
REMARK                         _______ _______ _______ _____ _____    ______ ____
ROOT
ATOM      1  C   UNL     1       0.020   9.987  19.502  0.00  0.00    +0.000 A 
ATOM      2  C   UNL     1      -0.287  10.383  20.812  0.00  0.00    +0.000 A 
ATOM      3  C   UNL     1       0.292   9.741  21.903  0.00  0.00    +0.000 A 
ATOM      4  C   UNL     1       1.194   8.699  21.707  0.00  0.00    +0.000 A 
ATOM      5  C   UNL     1       1.530   8.281  20.418  0.00  0.00    +0.000 A 
ATOM      6  C   UNL     1       0.951   8.941  19.322  0.00  0.00    +0.000 A 
ENDROOT
BRANCH   5   7
ATOM      7  N   UNL     1       2.438   7.226  20.172  0.00  0.00    +0.000 N 
ATOM      8  C   UNL     1       2.164   5.869  20.238  0.00  0.00    +0.000 C 
ATOM      9  O   UNL     1       1.082   5.350  20.501  0.00  0.00    +0.000 OA
ATOM     10  H   UNL     1       3.372   7.469  19.855  0.00  0.00    +0.000 HD
BRANCH   8  11
ATOM     11  C   UNL     1       3.317   4.974  19.918  0.00  0.00    +0.000 A 
ATOM     12  C   UNL     1       3.145   3.610  20.014  0.00  0.00    +0.000 A 
ATOM     13  C   UNL     1       4.237   2.854  19.686  0.00  0.00    +0.000 A 
ATOM     14  N   UNL     1       5.409   3.387  19.294  0.00  0.00    +0.000 NA
ATOM     15  C   UNL     1       5.496   4.741  19.220  0.00  0.00    +0.000 A 
ATOM     16  N   UNL     1       4.470   5.572  19.529  0.00  0.00    +0.000 NA
BRANCH  15  17
ATOM     17  C   UNL     1       6.819   5.363  18.749  0.00  0.00    +0.000 C 
ATOM     18  F   UNL     1       7.645   5.757  19.763  0.00  0.00    +0.000 F 
ATOM     19  F   UNL     1       7.562   4.503  17.988  0.00  0.00    +0.000 F 
ATOM     20  F   UNL     1       6.636   6.474  17.974  0.00  0.00    +0.000 F 
ENDBRANCH  15  17
ENDBRANCH   8  11
ENDBRANCH   5   7
BRANCH   1  21
ATOM     21  C   UNL     1      -0.584  10.694  18.287  0.00  0.00    +0.000 C 
ATOM     22  C   UNL     1      -0.998  12.113  18.699  0.00  0.00    +0.000 C 
BRANCH  21  23
ATOM     23  C   UNL     1      -1.759   9.918  17.638  0.00  0.00    +0.000 C 
BRANCH  23  29
ATOM     24  C   UNL     1      -3.455  10.617  14.900  0.00  0.00    +0.000 C 
ATOM     25  C   UNL     1      -3.748  11.013  16.297  0.00  0.00    +0.000 A 
ATOM     26  C   UNL     1      -4.793  11.778  16.746  0.00  0.00    +0.000 A 
ATOM     27  O   UNL     1      -4.714  11.928  18.089  0.00  0.00    +0.000 OA
ATOM     28  N   UNL     1      -3.600  11.263  18.561  0.00  0.00    +0.000 NA
ATOM     29  C   UNL     1      -3.023  10.707  17.487  0.00  0.00    +0.000 A 
ENDBRANCH  23  29
ENDBRANCH  21  23
ENDBRANCH   1  21
TORSDOF 6
ENDMDL
