MODEL 1
REMARK VINA RESULT:      -8.2      0.000      0.000
REMARK  Name = 
REMARK  9 active torsions:
REMARK  status: ('A' for Active; 'I' for Inactive)
REMARK    1  A    between atoms: C_1  and  C_2
REMARK    2  A    between atoms: C_5  and  C_6
REMARK    3  A    between atoms: N_8  and  C_9
REMARK    4  A    between atoms: C_13  and  C_14
REMARK    5  A    between atoms: C_14  and  C_15
REMARK    6  A    between atoms: C_14  and  C_16
REMARK    7  A    between atoms: C_16  and  C_17
REMARK    8  A    between atoms: N_21  and  C_22
REMARK    9  A    between atoms: C_25  and  C_26
REMARK                            x       y       z     vdW  Elec       q    Type
REMARK                         _______ _______ _______ _____ _____    ______ ____
ROOT
ATOM      1  C   UNL     1       1.391   8.624  20.258  0.00  0.00    +0.000 A 
ATOM      2  C   UNL     1       1.416   8.519  21.650  0.00  0.00    +0.000 A 
ATOM      3  C   UNL     1       0.648   9.364  22.447  0.00  0.00    +0.000 A 
ATOM      4  C   UNL     1      -0.162  10.328  21.858  0.00  0.00    +0.000 A 
ATOM      5  C   UNL     1      -0.201  10.477  20.463  0.00  0.00    +0.000 A 
ATOM      6  C   UNL     1       0.600   9.627  19.670  0.00  0.00    +0.000 A 
ENDROOT
BRANCH   1   9
ATOM      7  C   UNL     1       2.262   6.377  19.596  0.00  0.00    +0.000 C 
ATOM      8  O   UNL     1       1.747   5.692  20.474  0.00  0.00    +0.000 OA
ATOM      9  N   UNL     1       2.127   7.750  19.426  0.00  0.00    +0.000 N 
ATOM     10  H   UNL     1       2.545   8.122  18.578  0.00  0.00    +0.000 HD
BRANCH   7  15
ATOM     11  C   UNL     1       5.589   3.779  15.714  0.00  0.00    +0.000 C 
ATOM     12  C   UNL     1       4.707   4.477  16.708  0.00  0.00    +0.000 A 
ATOM     13  C   UNL     1       3.562   3.819  17.178  0.00  0.00    +0.000 A 
ATOM     14  C   UNL     1       2.749   4.430  18.119  0.00  0.00    +0.000 A 
ATOM     15  C   UNL     1       3.098   5.695  18.559  0.00  0.00    +0.000 A 
ATOM     16  N   UNL     1       4.185   6.373  18.113  0.00  0.00    +0.000 NA
ATOM     17  C   UNL     1       4.988   5.770  17.192  0.00  0.00    +0.000 A 
BRANCH  17  18
ATOM     18  C   UNL     1       6.212   6.566  16.786  0.00  0.00    +0.000 C 
ATOM     19  C   UNL     1       6.801   7.684  17.612  0.00  0.00    +0.000 C 
ATOM     20  C   UNL     1       7.472   6.346  17.607  0.00  0.00    +0.000 C 
ENDBRANCH  17  18
ENDBRANCH   7  15
ENDBRANCH   1   9
BRANCH   5  21
ATOM     21  C   UNL     1      -1.123  11.522  19.829  0.00  0.00    +0.000 C 
ATOM     22  C   UNL     1      -0.456  12.908  19.884  0.00  0.00    +0.000 C 
BRANCH  21  23
ATOM     23  C   UNL     1      -1.500  11.107  18.389  0.00  0.00    +0.000 C 
BRANCH  23  24
ATOM     24  C   UNL     1      -2.930  11.389  18.037  0.00  0.00    +0.000 A 
ATOM     25  N   UNL     1      -3.854  11.820  18.874  0.00  0.00    +0.000 NA
ATOM     26  C   UNL     1      -5.008  11.925  18.143  0.00  0.00    +0.000 A 
ATOM     27  C   UNL     1      -4.789  11.551  16.838  0.00  0.00    +0.000 A 
ATOM     28  N   UNL     1      -3.469  11.216  16.780  0.00  0.00    +0.000 N 
ATOM     29  C   UNL     1      -2.779  10.763  15.597  0.00  0.00    +0.000 C 
ENDBRANCH  23  24
ENDBRANCH  21  23
ENDBRANCH   5  21
TORSDOF 6
ENDMDL
MODEL 2
REMARK VINA RESULT:      -8.1      1.053      1.079
REMARK  Name = 
REMARK  9 active torsions:
REMARK  status: ('A' for Active; 'I' for Inactive)
REMARK    1  A    between atoms: C_1  and  C_2
REMARK    2  A    between atoms: C_5  and  C_6
REMARK    3  A    between atoms: N_8  and  C_9
REMARK    4  A    between atoms: C_13  and  C_14
REMARK    5  A    between atoms: C_14  and  C_15
REMARK    6  A    between atoms: C_14  and  C_16
REMARK    7  A    between atoms: C_16  and  C_17
REMARK    8  A    between atoms: N_21  and  C_22
REMARK    9  A    between atoms: C_25  and  C_26
REMARK                            x       y       z     vdW  Elec       q    Type
REMARK                         _______ _______ _______ _____ _____    ______ ____
ROOT
ATOM      1  C   UNL     1       1.017   8.845  20.667  0.00  0.00    +0.000 A 
ATOM      2  C   UNL     1       1.007   8.833  22.063  0.00  0.00    +0.000 A 
ATOM      3  C   UNL     1       0.237   9.744  22.782  0.00  0.00    +0.000 A 
ATOM      4  C   UNL     1      -0.541  10.679  22.111  0.00  0.00    +0.000 A 
ATOM      5  C   UNL     1      -0.543  10.735  20.708  0.00  0.00    +0.000 A 
ATOM      6  C   UNL     1       0.260   9.821  19.994  0.00  0.00    +0.000 A 
ENDROOT
BRANCH   1   9
ATOM      7  C   UNL     1       2.298   8.111  18.651  0.00  0.00    +0.000 C 
ATOM      8  O   UNL     1       2.252   9.145  17.993  0.00  0.00    +0.000 OA
ATOM      9  N   UNL     1       1.756   7.905  19.914  0.00  0.00    +0.000 N 
ATOM     10  H   UNL     1       1.989   7.012  20.341  0.00  0.00    +0.000 HD
BRANCH   7  15
ATOM     11  C   UNL     1       5.246   3.640  16.598  0.00  0.00    +0.000 C 
ATOM     12  C   UNL     1       4.472   4.821  17.107  0.00  0.00    +0.000 A 
ATOM     13  C   UNL     1       3.136   4.641  17.493  0.00  0.00    +0.000 A 
ATOM     14  C   UNL     1       2.410   5.710  17.995  0.00  0.00    +0.000 A 
ATOM     15  C   UNL     1       3.039   6.939  18.087  0.00  0.00    +0.000 A 
ATOM     16  N   UNL     1       4.322   7.158  17.705  0.00  0.00    +0.000 NA
ATOM     17  C   UNL     1       5.038   6.106  17.217  0.00  0.00    +0.000 A 
BRANCH  17  18
ATOM     18  C   UNL     1       6.479   6.417  16.865  0.00  0.00    +0.000 C 
ATOM     19  C   UNL     1       7.256   7.573  17.445  0.00  0.00    +0.000 C 
ATOM     20  C   UNL     1       7.512   6.190  17.957  0.00  0.00    +0.000 C 
ENDBRANCH  17  18
ENDBRANCH   7  15
ENDBRANCH   1   9
BRANCH   5  21
ATOM     21  C   UNL     1      -1.429  11.752  19.983  0.00  0.00    +0.000 C 
ATOM     22  C   UNL     1      -0.765  13.140  20.016  0.00  0.00    +0.000 C 
BRANCH  21  23
ATOM     23  C   UNL     1      -1.730  11.277  18.543  0.00  0.00    +0.000 C 
BRANCH  23  24
ATOM     24  C   UNL     1      -3.148  11.509  18.118  0.00  0.00    +0.000 A 
ATOM     25  N   UNL     1      -4.128  11.915  18.903  0.00  0.00    +0.000 NA
ATOM     26  C   UNL     1      -5.246  11.976  18.114  0.00  0.00    +0.000 A 
ATOM     27  C   UNL     1      -4.950  11.599  16.826  0.00  0.00    +0.000 A 
ATOM     28  N   UNL     1      -3.617  11.308  16.837  0.00  0.00    +0.000 N 
ATOM     29  C   UNL     1      -2.854  10.869  15.695  0.00  0.00    +0.000 C 
ENDBRANCH  23  24
ENDBRANCH  21  23
ENDBRANCH   5  21
TORSDOF 6
ENDMDL
MODEL 3
REMARK VINA RESULT:      -8.0      1.318      1.983
REMARK  Name = 
REMARK  9 active torsions:
REMARK  status: ('A' for Active; 'I' for Inactive)
REMARK    1  A    between atoms: C_1  and  C_2
REMARK    2  A    between atoms: C_5  and  C_6
REMARK    3  A    between atoms: N_8  and  C_9
REMARK    4  A    between atoms: C_13  and  C_14
REMARK    5  A    between atoms: C_14  and  C_15
REMARK    6  A    between atoms: C_14  and  C_16
REMARK    7  A    between atoms: C_16  and  C_17
REMARK    8  A    between atoms: N_21  and  C_22
REMARK    9  A    between atoms: C_25  and  C_26
REMARK                            x       y       z     vdW  Elec       q    Type
REMARK                         _______ _______ _______ _____ _____    ______ ____
ROOT
ATOM      1  C   UNL     1       0.403   8.882  21.340  0.00  0.00    +0.000 A 
ATOM      2  C   UNL     1       0.119   9.214  22.666  0.00  0.00    +0.000 A 
ATOM      3  C   UNL     1      -0.518  10.411  22.985  0.00  0.00    +0.000 A 
ATOM      4  C   UNL     1      -0.885  11.293  21.976  0.00  0.00    +0.000 A 
ATOM      5  C   UNL     1      -0.602  11.003  20.632  0.00  0.00    +0.000 A 
ATOM      6  C   UNL     1       0.065   9.797  20.326  0.00  0.00    +0.000 A 
ENDROOT
BRANCH   1   9
ATOM      7  C   UNL     1       1.858   7.441  19.907  0.00  0.00    +0.000 C 
ATOM      8  O   UNL     1       2.244   8.281  19.100  0.00  0.00    +0.000 OA
ATOM      9  N   UNL     1       1.009   7.655  20.986  0.00  0.00    +0.000 N 
ATOM     10  H   UNL     1       0.888   6.856  21.603  0.00  0.00    +0.000 HD
BRANCH   7  15
ATOM     11  C   UNL     1       3.928   2.120  19.374  0.00  0.00    +0.000 C 
ATOM     12  C   UNL     1       3.365   3.506  19.493  0.00  0.00    +0.000 A 
ATOM     13  C   UNL     1       2.609   3.836  20.627  0.00  0.00    +0.000 A 
ATOM     14  C   UNL     1       2.105   5.119  20.774  0.00  0.00    +0.000 A 
ATOM     15  C   UNL     1       2.361   6.038  19.771  0.00  0.00    +0.000 A 
ATOM     16  N   UNL     1       3.068   5.751  18.650  0.00  0.00    +0.000 NA
ATOM     17  C   UNL     1       3.569   4.492  18.508  0.00  0.00    +0.000 A 
BRANCH  17  18
ATOM     18  C   UNL     1       4.395   4.267  17.258  0.00  0.00    +0.000 C 
ATOM     19  C   UNL     1       4.967   5.379  16.414  0.00  0.00    +0.000 C 
ATOM     20  C   UNL     1       5.870   4.625  17.340  0.00  0.00    +0.000 C 
ENDBRANCH  17  18
ENDBRANCH   7  15
ENDBRANCH   1   9
BRANCH   5  21
ATOM     21  C   UNL     1      -1.041  11.971  19.530  0.00  0.00    +0.000 C 
ATOM     22  C   UNL     1       0.118  12.917  19.173  0.00  0.00    +0.000 C 
BRANCH  21  23
ATOM     23  C   UNL     1      -1.563  11.191  18.302  0.00  0.00    +0.000 C 
BRANCH  23  24
ATOM     24  C   UNL     1      -3.008  11.446  17.997  0.00  0.00    +0.000 A 
ATOM     25  N   UNL     1      -3.916  11.850  18.866  0.00  0.00    +0.000 NA
ATOM     26  C   UNL     1      -5.093  11.938  18.172  0.00  0.00    +0.000 A 
ATOM     27  C   UNL     1      -4.907  11.582  16.857  0.00  0.00    +0.000 A 
ATOM     28  N   UNL     1      -3.582  11.275  16.755  0.00  0.00    +0.000 N 
ATOM     29  C   UNL     1      -2.919  10.849  15.547  0.00  0.00    +0.000 C 
ENDBRANCH  23  24
ENDBRANCH  21  23
ENDBRANCH   5  21
TORSDOF 6
ENDMDL
MODEL 4
REMARK VINA RESULT:      -7.9      1.997      3.704
REMARK  Name = 
REMARK  9 active torsions:
REMARK  status: ('A' for Active; 'I' for Inactive)
REMARK    1  A    between atoms: C_1  and  C_2
REMARK    2  A    between atoms: C_5  and  C_6
REMARK    3  A    between atoms: N_8  and  C_9
REMARK    4  A    between atoms: C_13  and  C_14
REMARK    5  A    between atoms: C_14  and  C_15
REMARK    6  A    between atoms: C_14  and  C_16
REMARK    7  A    between atoms: C_16  and  C_17
REMARK    8  A    between atoms: N_21  and  C_22
REMARK    9  A    between atoms: C_25  and  C_26
REMARK                            x       y       z     vdW  Elec       q    Type
REMARK                         _______ _______ _______ _____ _____    ______ ____
ROOT
ATOM      1  C   UNL     1       0.042  10.005  19.327  0.00  0.00    +0.000 A 
ATOM      2  C   UNL     1       0.069  10.845  20.442  0.00  0.00    +0.000 A 
ATOM      3  C   UNL     1      -0.863  11.868  20.592  0.00  0.00    +0.000 A 
ATOM      4  C   UNL     1      -1.844  12.061  19.626  0.00  0.00    +0.000 A 
ATOM      5  C   UNL     1      -1.894  11.249  18.482  0.00  0.00    +0.000 A 
ATOM      6  C   UNL     1      -0.928  10.231  18.334  0.00  0.00    +0.000 A 
ENDROOT
BRANCH   1   9
ATOM      7  C   UNL     1       1.934   8.826  18.198  0.00  0.00    +0.000 C 
ATOM      8  O   UNL     1       2.198   9.652  17.329  0.00  0.00    +0.000 OA
ATOM      9  N   UNL     1       0.950   8.932  19.173  0.00  0.00    +0.000 N 
ATOM     10  H   UNL     1       0.953   8.192  19.870  0.00  0.00    +0.000 HD
BRANCH   7  15
ATOM     11  C   UNL     1       4.973   3.970  18.451  0.00  0.00    +0.000 C 
ATOM     12  C   UNL     1       4.190   5.250  18.410  0.00  0.00    +0.000 A 
ATOM     13  C   UNL     1       4.592   6.264  17.529  0.00  0.00    +0.000 A 
ATOM     14  C   UNL     1       3.867   7.442  17.453  0.00  0.00    +0.000 A 
ATOM     15  C   UNL     1       2.760   7.580  18.272  0.00  0.00    +0.000 A 
ATOM     16  N   UNL     1       2.352   6.632  19.152  0.00  0.00    +0.000 NA
ATOM     17  C   UNL     1       3.062   5.471  19.224  0.00  0.00    +0.000 A 
BRANCH  17  18
ATOM     18  C   UNL     1       2.510   4.440  20.188  0.00  0.00    +0.000 C 
ATOM     19  C   UNL     1       1.061   4.363  20.600  0.00  0.00    +0.000 C 
ATOM     20  C   UNL     1       1.591   3.381  19.602  0.00  0.00    +0.000 C 
ENDBRANCH  17  18
ENDBRANCH   7  15
ENDBRANCH   1   9
BRANCH   5  21
ATOM     21  C   UNL     1      -3.000  11.455  17.444  0.00  0.00    +0.000 C 
ATOM     22  C   UNL     1      -2.649  10.698  16.151  0.00  0.00    +0.000 C 
BRANCH  21  23
ATOM     23  C   UNL     1      -4.369  11.031  18.021  0.00  0.00    +0.000 C 
BRANCH  23  24
ATOM     24  C   UNL     1      -5.384  12.134  18.035  0.00  0.00    +0.000 A 
ATOM     25  N   UNL     1      -5.963  12.657  16.971  0.00  0.00    +0.000 NA
ATOM     26  C   UNL     1      -6.799  13.637  17.437  0.00  0.00    +0.000 A 
ATOM     27  C   UNL     1      -6.732  13.718  18.808  0.00  0.00    +0.000 A 
ATOM     28  N   UNL     1      -5.835  12.760  19.178  0.00  0.00    +0.000 N 
ATOM     29  C   UNL     1      -5.443  12.470  20.536  0.00  0.00    +0.000 C 
ENDBRANCH  23  24
ENDBRANCH  21  23
ENDBRANCH   5  21
TORSDOF 6
ENDMDL
MODEL 5
REMARK VINA RESULT:      -7.8      2.333      9.264
REMARK  Name = 
REMARK  9 active torsions:
REMARK  status: ('A' for Active; 'I' for Inactive)
REMARK    1  A    between atoms: C_1  and  C_2
REMARK    2  A    between atoms: C_5  and  C_6
REMARK    3  A    between atoms: N_8  and  C_9
REMARK    4  A    between atoms: C_13  and  C_14
REMARK    5  A    between atoms: C_14  and  C_15
REMARK    6  A    between atoms: C_14  and  C_16
REMARK    7  A    between atoms: C_16  and  C_17
REMARK    8  A    between atoms: N_21  and  C_22
REMARK    9  A    between atoms: C_25  and  C_26
REMARK                            x       y       z     vdW  Elec       q    Type
REMARK                         _______ _______ _______ _____ _____    ______ ____
ROOT
ATOM      1  C   UNL     1       3.077   5.692  19.326  0.00  0.00    +0.000 A 
ATOM      2  C   UNL     1       3.370   4.473  19.940  0.00  0.00    +0.000 A 
ATOM      3  C   UNL     1       4.122   3.502  19.284  0.00  0.00    +0.000 A 
ATOM      4  C   UNL     1       4.597   3.742  18.000  0.00  0.00    +0.000 A 
ATOM      5  C   UNL     1       4.309   4.948  17.342  0.00  0.00    +0.000 A 
ATOM      6  C   UNL     1       3.527   5.912  18.012  0.00  0.00    +0.000 A 
ENDROOT
BRANCH   1   9
ATOM      7  C   UNL     1       1.986   7.938  19.447  0.00  0.00    +0.000 C 
ATOM      8  O   UNL     1       2.203   8.331  18.305  0.00  0.00    +0.000 OA
ATOM      9  N   UNL     1       2.353   6.711  19.987  0.00  0.00    +0.000 N 
ATOM     10  H   UNL     1       1.992   6.526  20.920  0.00  0.00    +0.000 HD
BRANCH   7  15
ATOM     11  C   UNL     1      -1.086  11.327  22.905  0.00  0.00    +0.000 C 
ATOM     12  C   UNL     1      -0.260  10.460  22.000  0.00  0.00    +0.000 A 
ATOM     13  C   UNL     1       0.358   9.319  22.532  0.00  0.00    +0.000 A 
ATOM     14  C   UNL     1       1.101   8.487  21.710  0.00  0.00    +0.000 A 
ATOM     15  C   UNL     1       1.217   8.826  20.373  0.00  0.00    +0.000 A 
ATOM     16  N   UNL     1       0.653   9.932  19.826  0.00  0.00    +0.000 NA
ATOM     17  C   UNL     1      -0.082  10.747  20.633  0.00  0.00    +0.000 A 
BRANCH  17  18
ATOM     18  C   UNL     1      -0.727  11.929  19.936  0.00  0.00    +0.000 C 
ATOM     19  C   UNL     1      -0.840  12.064  18.438  0.00  0.00    +0.000 C 
ATOM     20  C   UNL     1      -2.047  11.668  19.230  0.00  0.00    +0.000 C 
ENDBRANCH  17  18
ENDBRANCH   7  15
ENDBRANCH   1   9
BRANCH   5  21
ATOM     21  C   UNL     1       4.866   5.208  15.940  0.00  0.00    +0.000 C 
ATOM     22  C   UNL     1       5.191   6.704  15.777  0.00  0.00    +0.000 C 
BRANCH  21  23
ATOM     23  C   UNL     1       6.093   4.307  15.670  0.00  0.00    +0.000 C 
BRANCH  23  24
ATOM     24  C   UNL     1       6.838   4.664  14.420  0.00  0.00    +0.000 A 
ATOM     25  N   UNL     1       7.885   5.465  14.354  0.00  0.00    +0.000 NA
ATOM     26  C   UNL     1       8.234   5.524  13.031  0.00  0.00    +0.000 A 
ATOM     27  C   UNL     1       7.389   4.749  12.272  0.00  0.00    +0.000 A 
ATOM     28  N   UNL     1       6.510   4.205  13.163  0.00  0.00    +0.000 N 
ATOM     29  C   UNL     1       5.432   3.309  12.822  0.00  0.00    +0.000 C 
ENDBRANCH  23  24
ENDBRANCH  21  23
ENDBRANCH   5  21
TORSDOF 6
ENDMDL
MODEL 6
REMARK VINA RESULT:      -7.8      1.271      2.442
REMARK  Name = 
REMARK  9 active torsions:
REMARK  status: ('A' for Active; 'I' for Inactive)
REMARK    1  A    between atoms: C_1  and  C_2
REMARK    2  A    between atoms: C_5  and  C_6
REMARK    3  A    between atoms: N_8  and  C_9
REMARK    4  A    between atoms: C_13  and  C_14
REMARK    5  A    between atoms: C_14  and  C_15
REMARK    6  A    between atoms: C_14  and  C_16
REMARK    7  A    between atoms: C_16  and  C_17
REMARK    8  A    between atoms: N_21  and  C_22
REMARK    9  A    between atoms: C_25  and  C_26
REMARK                            x       y       z     vdW  Elec       q    Type
REMARK                         _______ _______ _______ _____ _____    ______ ____
ROOT
ATOM      1  C   UNL     1       1.217   8.797  20.394  0.00  0.00    +0.000 A 
ATOM      2  C   UNL     1       1.030   8.668  21.771  0.00  0.00    +0.000 A 
ATOM      3  C   UNL     1       0.221   9.558  22.472  0.00  0.00    +0.000 A 
ATOM      4  C   UNL     1      -0.420  10.592  21.799  0.00  0.00    +0.000 A 
ATOM      5  C   UNL     1      -0.243  10.766  20.418  0.00  0.00    +0.000 A 
ATOM      6  C   UNL     1       0.598   9.869  19.726  0.00  0.00    +0.000 A 
ENDROOT
BRANCH   1   9
ATOM      7  C   UNL     1       2.376   8.016  18.322  0.00  0.00    +0.000 C 
ATOM      8  O   UNL     1       2.121   8.958  17.579  0.00  0.00    +0.000 OA
ATOM      9  N   UNL     1       1.998   7.881  19.653  0.00  0.00    +0.000 N 
ATOM     10  H   UNL     1       2.394   7.078  20.133  0.00  0.00    +0.000 HD
BRANCH   7  15
ATOM     11  C   UNL     1       5.463   3.682  16.182  0.00  0.00    +0.000 C 
ATOM     12  C   UNL     1       4.661   4.806  16.770  0.00  0.00    +0.000 A 
ATOM     13  C   UNL     1       5.214   6.095  16.795  0.00  0.00    +0.000 A 
ATOM     14  C   UNL     1       4.480   7.154  17.305  0.00  0.00    +0.000 A 
ATOM     15  C   UNL     1       3.211   6.893  17.790  0.00  0.00    +0.000 A 
ATOM     16  N   UNL     1       2.649   5.659  17.803  0.00  0.00    +0.000 NA
ATOM     17  C   UNL     1       3.368   4.618  17.297  0.00  0.00    +0.000 A 
BRANCH  17  18
ATOM     18  C   UNL     1       2.651   3.283  17.294  0.00  0.00    +0.000 C 
ATOM     19  C   UNL     1       3.027   2.123  18.183  0.00  0.00    +0.000 C 
ATOM     20  C   UNL     1       1.827   2.949  18.527  0.00  0.00    +0.000 C 
ENDBRANCH  17  18
ENDBRANCH   7  15
ENDBRANCH   1   9
BRANCH   5  21
ATOM     21  C   UNL     1      -0.981  11.890  19.687  0.00  0.00    +0.000 C 
ATOM     22  C   UNL     1      -0.107  13.157  19.659  0.00  0.00    +0.000 C 
BRANCH  21  23
ATOM     23  C   UNL     1      -1.398  11.432  18.271  0.00  0.00    +0.000 C 
BRANCH  23  24
ATOM     24  C   UNL     1      -2.871  11.539  18.014  0.00  0.00    +0.000 A 
ATOM     25  N   UNL     1      -3.778  11.918  18.894  0.00  0.00    +0.000 NA
ATOM     26  C   UNL     1      -4.984  11.856  18.248  0.00  0.00    +0.000 A 
ATOM     27  C   UNL     1      -4.816  11.432  16.951  0.00  0.00    +0.000 A 
ATOM     28  N   UNL     1      -3.473  11.237  16.811  0.00  0.00    +0.000 N 
ATOM     29  C   UNL     1      -2.821  10.792  15.604  0.00  0.00    +0.000 C 
ENDBRANCH  23  24
ENDBRANCH  21  23
ENDBRANCH   5  21
TORSDOF 6
ENDMDL
MODEL 7
REMARK VINA RESULT:      -7.8      1.926      3.484
REMARK  Name = 
REMARK  9 active torsions:
REMARK  status: ('A' for Active; 'I' for Inactive)
REMARK    1  A    between atoms: C_1  and  C_2
REMARK    2  A    between atoms: C_5  and  C_6
REMARK    3  A    between atoms: N_8  and  C_9
REMARK    4  A    between atoms: C_13  and  C_14
REMARK    5  A    between atoms: C_14  and  C_15
REMARK    6  A    between atoms: C_14  and  C_16
REMARK    7  A    between atoms: C_16  and  C_17
REMARK    8  A    between atoms: N_21  and  C_22
REMARK    9  A    between atoms: C_25  and  C_26
REMARK                            x       y       z     vdW  Elec       q    Type
REMARK                         _______ _______ _______ _____ _____    ______ ____
ROOT
ATOM      1  C   UNL     1       0.826  10.002  18.184  0.00  0.00    +0.000 A 
ATOM      2  C   UNL     1       1.323  11.101  18.886  0.00  0.00    +0.000 A 
ATOM      3  C   UNL     1       0.494  12.165  19.233  0.00  0.00    +0.000 A 
ATOM      4  C   UNL     1      -0.851  12.140  18.886  0.00  0.00    +0.000 A 
ATOM      5  C   UNL     1      -1.385  11.061  18.164  0.00  0.00    +0.000 A 
ATOM      6  C   UNL     1      -0.527  10.001  17.800  0.00  0.00    +0.000 A 
ENDROOT
BRANCH   1   9
ATOM      7  C   UNL     1       2.115   7.936  18.747  0.00  0.00    +0.000 C 
ATOM      8  O   UNL     1       1.896   7.882  19.953  0.00  0.00    +0.000 OA
ATOM      9  N   UNL     1       1.636   8.890  17.858  0.00  0.00    +0.000 N 
ATOM     10  H   UNL     1       1.841   8.707  16.879  0.00  0.00    +0.000 HD
BRANCH   7  15
ATOM     11  C   UNL     1       5.198   3.787  16.264  0.00  0.00    +0.000 C 
ATOM     12  C   UNL     1       4.398   4.861  16.941  0.00  0.00    +0.000 A 
ATOM     13  C   UNL     1       4.933   6.155  17.026  0.00  0.00    +0.000 A 
ATOM     14  C   UNL     1       4.200   7.170  17.619  0.00  0.00    +0.000 A 
ATOM     15  C   UNL     1       2.950   6.861  18.125  0.00  0.00    +0.000 A 
ATOM     16  N   UNL     1       2.407   5.619  18.082  0.00  0.00    +0.000 NA
ATOM     17  C   UNL     1       3.125   4.621  17.494  0.00  0.00    +0.000 A 
BRANCH  17  18
ATOM     18  C   UNL     1       2.427   3.277  17.434  0.00  0.00    +0.000 C 
ATOM     19  C   UNL     1       2.980   2.014  18.046  0.00  0.00    +0.000 C 
ATOM     20  C   UNL     1       1.870   2.738  18.741  0.00  0.00    +0.000 C 
ENDBRANCH  17  18
ENDBRANCH   7  15
ENDBRANCH   1   9
BRANCH   5  21
ATOM     21  C   UNL     1      -2.875  11.034  17.816  0.00  0.00    +0.000 C 
ATOM     22  C   UNL     1      -3.345   9.579  17.638  0.00  0.00    +0.000 C 
BRANCH  21  23
ATOM     23  C   UNL     1      -3.694  11.789  18.889  0.00  0.00    +0.000 C 
BRANCH  23  24
ATOM     24  C   UNL     1      -5.101  12.092  18.469  0.00  0.00    +0.000 A 
ATOM     25  N   UNL     1      -5.504  12.292  17.228  0.00  0.00    +0.000 NA
ATOM     26  C   UNL     1      -6.847  12.550  17.303  0.00  0.00    +0.000 A 
ATOM     27  C   UNL     1      -7.275  12.510  18.609  0.00  0.00    +0.000 A 
ATOM     28  N   UNL     1      -6.161  12.215  19.340  0.00  0.00    +0.000 N 
ATOM     29  C   UNL     1      -6.126  12.064  20.774  0.00  0.00    +0.000 C 
ENDBRANCH  23  24
ENDBRANCH  21  23
ENDBRANCH   5  21
TORSDOF 6
ENDMDL
MODEL 8
REMARK VINA RESULT:      -7.8      1.943      3.246
REMARK  Name = 
REMARK  9 active torsions:
REMARK  status: ('A' for Active; 'I' for Inactive)
REMARK    1  A    between atoms: C_1  and  C_2
REMARK    2  A    between atoms: C_5  and  C_6
REMARK    3  A    between atoms: N_8  and  C_9
REMARK    4  A    between atoms: C_13  and  C_14
REMARK    5  A    between atoms: C_14  and  C_15
REMARK    6  A    between atoms: C_14  and  C_16
REMARK    7  A    between atoms: C_16  and  C_17
REMARK    8  A    between atoms: N_21  and  C_22
REMARK    9  A    between atoms: C_25  and  C_26
REMARK                            x       y       z     vdW  Elec       q    Type
REMARK                         _______ _______ _______ _____ _____    ______ ____
ROOT
ATOM      1  C   UNL     1      -0.104  10.122  19.015  0.00  0.00    +0.000 A 
ATOM      2  C   UNL     1      -0.074  11.137  19.972  0.00  0.00    +0.000 A 
ATOM      3  C   UNL     1      -1.021  12.159  19.965  0.00  0.00    +0.000 A 
ATOM      4  C   UNL     1      -2.017  12.175  18.997  0.00  0.00    +0.000 A 
ATOM      5  C   UNL     1      -2.071  11.182  18.005  0.00  0.00    +0.000 A 
ATOM      6  C   UNL     1      -1.091  10.166  18.013  0.00  0.00    +0.000 A 
ENDROOT
BRANCH   1   9
ATOM      7  C   UNL     1       1.894   8.886  18.163  0.00  0.00    +0.000 C 
ATOM      8  O   UNL     1       2.239   9.650  17.267  0.00  0.00    +0.000 OA
ATOM      9  N   UNL     1       0.818   9.051  19.027  0.00  0.00    +0.000 N 
ATOM     10  H   UNL     1       0.755   8.362  19.772  0.00  0.00    +0.000 HD
BRANCH   7  15
ATOM     11  C   UNL     1       5.156   4.265  19.107  0.00  0.00    +0.000 C 
ATOM     12  C   UNL     1       4.290   5.460  18.837  0.00  0.00    +0.000 A 
ATOM     13  C   UNL     1       3.198   5.711  19.680  0.00  0.00    +0.000 A 
ATOM     14  C   UNL     1       2.401   6.826  19.468  0.00  0.00    +0.000 A 
ATOM     15  C   UNL     1       2.713   7.657  18.406  0.00  0.00    +0.000 A 
ATOM     16  N   UNL     1       3.746   7.437  17.556  0.00  0.00    +0.000 NA
ATOM     17  C   UNL     1       4.533   6.345  17.767  0.00  0.00    +0.000 A 
BRANCH  17  18
ATOM     18  C   UNL     1       5.700   6.199  16.811  0.00  0.00    +0.000 C 
ATOM     19  C   UNL     1       6.170   4.879  16.252  0.00  0.00    +0.000 C 
ATOM     20  C   UNL     1       5.367   5.797  15.384  0.00  0.00    +0.000 C 
ENDBRANCH  17  18
ENDBRANCH   7  15
ENDBRANCH   1   9
BRANCH   5  21
ATOM     21  C   UNL     1      -3.193  11.197  16.965  0.00  0.00    +0.000 C 
ATOM     22  C   UNL     1      -2.739  10.455  15.696  0.00  0.00    +0.000 C 
BRANCH  21  23
ATOM     23  C   UNL     1      -4.491  10.605  17.561  0.00  0.00    +0.000 C 
BRANCH  23  24
ATOM     24  C   UNL     1      -5.618  11.589  17.644  0.00  0.00    +0.000 A 
ATOM     25  N   UNL     1      -5.744  12.675  16.905  0.00  0.00    +0.000 NA
ATOM     26  C   UNL     1      -6.899  13.284  17.320  0.00  0.00    +0.000 A 
ATOM     27  C   UNL     1      -7.490  12.562  18.330  0.00  0.00    +0.000 A 
ATOM     28  N   UNL     1      -6.673  11.488  18.526  0.00  0.00    +0.000 N 
ATOM     29  C   UNL     1      -6.895  10.442  19.494  0.00  0.00    +0.000 C 
ENDBRANCH  23  24
ENDBRANCH  21  23
ENDBRANCH   5  21
TORSDOF 6
ENDMDL
MODEL 9
REMARK VINA RESULT:      -7.8      1.261      2.283
REMARK  Name = 
REMARK  9 active torsions:
REMARK  status: ('A' for Active; 'I' for Inactive)
REMARK    1  A    between atoms: C_1  and  C_2
REMARK    2  A    between atoms: C_5  and  C_6
REMARK    3  A    between atoms: N_8  and  C_9
REMARK    4  A    between atoms: C_13  and  C_14
REMARK    5  A    between atoms: C_14  and  C_15
REMARK    6  A    between atoms: C_14  and  C_16
REMARK    7  A    between atoms: C_16  and  C_17
REMARK    8  A    between atoms: N_21  and  C_22
REMARK    9  A    between atoms: C_25  and  C_26
REMARK                            x       y       z     vdW  Elec       q    Type
REMARK                         _______ _______ _______ _____ _____    ______ ____
ROOT
ATOM      1  C   UNL     1       1.115   9.085  20.712  0.00  0.00    +0.000 A 
ATOM      2  C   UNL     1       1.006   8.762  22.066  0.00  0.00    +0.000 A 
ATOM      3  C   UNL     1       0.195   9.506  22.918  0.00  0.00    +0.000 A 
ATOM      4  C   UNL     1      -0.527  10.585  22.423  0.00  0.00    +0.000 A 
ATOM      5  C   UNL     1      -0.430  10.954  21.072  0.00  0.00    +0.000 A 
ATOM      6  C   UNL     1       0.415  10.203  20.226  0.00  0.00    +0.000 A 
ENDROOT
BRANCH   1   9
ATOM      7  C   UNL     1       2.109   6.948  19.881  0.00  0.00    +0.000 C 
ATOM      8  O   UNL     1       1.633   6.169  20.702  0.00  0.00    +0.000 OA
ATOM      9  N   UNL     1       1.898   8.320  19.818  0.00  0.00    +0.000 N 
ATOM     10  H   UNL     1       2.295   8.779  19.002  0.00  0.00    +0.000 HD
BRANCH   7  15
ATOM     11  C   UNL     1       5.332   4.749  15.678  0.00  0.00    +0.000 C 
ATOM     12  C   UNL     1       4.511   5.318  16.798  0.00  0.00    +0.000 A 
ATOM     13  C   UNL     1       4.385   6.711  16.908  0.00  0.00    +0.000 A 
ATOM     14  C   UNL     1       3.607   7.259  17.915  0.00  0.00    +0.000 A 
ATOM     15  C   UNL     1       2.981   6.395  18.798  0.00  0.00    +0.000 A 
ATOM     16  N   UNL     1       3.096   5.045  18.738  0.00  0.00    +0.000 NA
ATOM     17  C   UNL     1       3.856   4.506  17.745  0.00  0.00    +0.000 A 
BRANCH  17  18
ATOM     18  C   UNL     1       3.888   2.991  17.711  0.00  0.00    +0.000 C 
ATOM     19  C   UNL     1       3.408   2.113  18.840  0.00  0.00    +0.000 C 
ATOM     20  C   UNL     1       2.547   2.282  17.627  0.00  0.00    +0.000 C 
ENDBRANCH  17  18
ENDBRANCH   7  15
ENDBRANCH   1   9
BRANCH   5  21
ATOM     21  C   UNL     1      -1.255  12.126  20.536  0.00  0.00    +0.000 C 
ATOM     22  C   UNL     1      -0.497  13.446  20.765  0.00  0.00    +0.000 C 
BRANCH  21  23
ATOM     23  C   UNL     1      -1.611  11.903  19.049  0.00  0.00    +0.000 C 
BRANCH  23  24
ATOM     24  C   UNL     1      -3.076  11.704  18.804  0.00  0.00    +0.000 A 
ATOM     25  N   UNL     1      -4.050  12.342  19.424  0.00  0.00    +0.000 NA
ATOM     26  C   UNL     1      -5.218  11.845  18.908  0.00  0.00    +0.000 A 
ATOM     27  C   UNL     1      -4.957  10.886  17.958  0.00  0.00    +0.000 A 
ATOM     28  N   UNL     1      -3.597  10.806  17.897  0.00  0.00    +0.000 N 
ATOM     29  C   UNL     1      -2.856   9.927  17.026  0.00  0.00    +0.000 C 
ENDBRANCH  23  24
ENDBRANCH  21  23
ENDBRANCH   5  21
TORSDOF 6
ENDMDL
