MODEL 1
REMARK VINA RESULT:      -9.7      0.000      0.000
REMARK  Name = 
REMARK  9 active torsions:
REMARK  status: ('A' for Active; 'I' for Inactive)
REMARK    1  A    between atoms: C_1  and  C_2
REMARK    2  A    between atoms: C_2  and  C_3
REMARK    3  A    between atoms: C_2  and  N_34
REMARK    4  A    between atoms: C_7  and  C_8
REMARK    5  A    between atoms: N_14  and  C_15
REMARK    6  A    between atoms: C_19  and  C_20
REMARK    7  A    between atoms: C_20  and  C_21
REMARK    8  A    between atoms: C_21  and  C_22
REMARK    9  A    between atoms: N_26  and  C_27
REMARK                            x       y       z     vdW  Elec       q    Type
REMARK                         _______ _______ _______ _____ _____    ______ ____
ROOT
ATOM      1  C   UNL     1      -0.968  10.777  19.232  0.00  0.00    +0.000 A 
ATOM      2  C   UNL     1       0.106  10.207  18.542  0.00  0.00    +0.000 A 
ATOM      3  C   UNL     1       0.904   9.302  19.207  0.00  0.00    +0.000 A 
ATOM      4  C   UNL     1       0.758   8.999  20.549  0.00  0.00    +0.000 A 
ATOM      5  C   UNL     1      -0.171   9.693  21.318  0.00  0.00    +0.000 A 
ATOM      6  C   UNL     1      -1.076  10.543  20.626  0.00  0.00    +0.000 A 
ATOM      7  C   UNL     1       1.669   7.859  20.885  0.00  0.00    +0.000 C 
ATOM      8  N   UNL     1       2.294   7.538  19.601  0.00  0.00    +0.000 N 
ATOM      9  C   UNL     1       1.917   8.436  18.609  0.00  0.00    +0.000 C 
ATOM     10  O   UNL     1       2.249   8.556  17.449  0.00  0.00    +0.000 OA
ENDROOT
BRANCH   8  11
ATOM     11  C   UNL     1       3.075   6.375  19.390  0.00  0.00    +0.000 A 
ATOM     12  C   UNL     1       2.598   5.096  19.687  0.00  0.00    +0.000 A 
ATOM     13  C   UNL     1       3.395   3.968  19.501  0.00  0.00    +0.000 A 
ATOM     14  C   UNL     1       4.699   4.111  19.042  0.00  0.00    +0.000 A 
ATOM     15  C   UNL     1       5.245   5.376  18.763  0.00  0.00    +0.000 A 
ATOM     16  C   UNL     1       4.391   6.487  18.921  0.00  0.00    +0.000 A 
BRANCH  15  17
ATOM     17  C   UNL     1       6.765   5.566  18.320  0.00  0.00    +0.000 C 
ATOM     18  C   UNL     1       7.224   6.969  17.821  0.00  0.00    +0.000 C 
ATOM     19  O   UNL     1       8.417   6.892  18.652  0.00  0.00    +0.000 OA
ATOM     20  C   UNL     1       7.761   5.890  19.470  0.00  0.00    +0.000 C 
BRANCH  17  21
ATOM     21  C   UNL     1       7.246   4.403  17.431  0.00  0.00    +0.000 C 
BRANCH  21  22
ATOM     22  C   UNL     1       6.925   4.588  15.984  0.00  0.00    +0.000 A 
ATOM     23  N   UNL     1       7.671   5.222  15.100  0.00  0.00    +0.000 NA
ATOM     24  N   UNL     1       7.055   5.143  13.875  0.00  0.00    +0.000 NA
ATOM     25  C   UNL     1       5.945   4.463  14.032  0.00  0.00    +0.000 A 
ATOM     26  N   UNL     1       5.809   4.113  15.341  0.00  0.00    +0.000 N 
ATOM     27  C   UNL     1       4.704   3.379  15.894  0.00  0.00    +0.000 C 
ENDBRANCH  21  22
ENDBRANCH  17  21
ENDBRANCH  15  17
ENDBRANCH   8  11
BRANCH   5  28
ATOM     28  C   UNL     1      -0.200   9.586  22.822  0.00  0.00    +0.000 C 
ATOM     29  F   UNL     1      -0.865   8.486  23.274  0.00  0.00    +0.000 F 
ATOM     30  F   UNL     1       1.054   9.493  23.349  0.00  0.00    +0.000 F 
ATOM     31  F   UNL     1      -0.787  10.651  23.428  0.00  0.00    +0.000 F 
ENDBRANCH   5  28
BRANCH   1  33
ATOM     32  C   UNL     1      -2.157  12.988  19.043  0.00  0.00    +0.000 C 
ATOM     33  C   UNL     1      -1.946  11.605  18.400  0.00  0.00    +0.000 C 
BRANCH  33  34
ATOM     34  N   UNL     1      -3.244  10.947  18.095  0.00  0.00    +0.000 NA
ATOM     35  C   UNL     1      -3.983  11.662  17.027  0.00  0.00    +0.000 C 
ATOM     36  C   UNL     1      -3.279  11.586  15.666  0.00  0.00    +0.000 C 
ATOM     37  C   UNL     1      -3.232  10.153  15.199  0.00  0.00    +0.000 C 
ATOM     38  C   UNL     1      -2.795   9.156  16.261  0.00  0.00    +0.000 C 
ATOM     39  C   UNL     1      -3.215   9.517  17.705  0.00  0.00    +0.000 C 
ATOM     40  C   UNL     1      -4.207   9.774  14.098  0.00  0.00    +0.000 C 
ATOM     41  C   UNL     1      -2.744   9.873  13.790  0.00  0.00    +0.000 C 
ENDBRANCH  33  34
ENDBRANCH   1  33
TORSDOF 7
ENDMDL
MODEL 2
REMARK VINA RESULT:      -9.3      2.335      4.191
REMARK  Name = 
REMARK  9 active torsions:
REMARK  status: ('A' for Active; 'I' for Inactive)
REMARK    1  A    between atoms: C_1  and  C_2
REMARK    2  A    between atoms: C_2  and  C_3
REMARK    3  A    between atoms: C_2  and  N_34
REMARK    4  A    between atoms: C_7  and  C_8
REMARK    5  A    between atoms: N_14  and  C_15
REMARK    6  A    between atoms: C_19  and  C_20
REMARK    7  A    between atoms: C_20  and  C_21
REMARK    8  A    between atoms: C_21  and  C_22
REMARK    9  A    between atoms: N_26  and  C_27
REMARK                            x       y       z     vdW  Elec       q    Type
REMARK                         _______ _______ _______ _____ _____    ______ ____
ROOT
ATOM      1  C   UNL     1      -0.182  11.301  19.372  0.00  0.00    +0.000 A 
ATOM      2  C   UNL     1       0.764  10.597  18.620  0.00  0.00    +0.000 A 
ATOM      3  C   UNL     1       1.291   9.440  19.151  0.00  0.00    +0.000 A 
ATOM      4  C   UNL     1       1.008   8.989  20.428  0.00  0.00    +0.000 A 
ATOM      5  C   UNL     1       0.227   9.766  21.279  0.00  0.00    +0.000 A 
ATOM      6  C   UNL     1      -0.416  10.899  20.711  0.00  0.00    +0.000 A 
ATOM      7  C   UNL     1       1.607   7.627  20.599  0.00  0.00    +0.000 C 
ATOM      8  N   UNL     1       2.207   7.357  19.291  0.00  0.00    +0.000 N 
ATOM      9  C   UNL     1       2.104   8.454  18.444  0.00  0.00    +0.000 C 
ATOM     10  O   UNL     1       2.516   8.658  17.321  0.00  0.00    +0.000 OA
ENDROOT
BRANCH   8  11
ATOM     11  C   UNL     1       2.704   6.085  18.916  0.00  0.00    +0.000 A 
ATOM     12  C   UNL     1       2.313   4.913  19.569  0.00  0.00    +0.000 A 
ATOM     13  C   UNL     1       2.838   3.675  19.205  0.00  0.00    +0.000 A 
ATOM     14  C   UNL     1       3.792   3.598  18.197  0.00  0.00    +0.000 A 
ATOM     15  C   UNL     1       4.251   4.748  17.532  0.00  0.00    +0.000 A 
ATOM     16  C   UNL     1       3.661   5.975  17.899  0.00  0.00    +0.000 A 
BRANCH  15  17
ATOM     17  C   UNL     1       5.407   4.689  16.434  0.00  0.00    +0.000 C 
ATOM     18  C   UNL     1       5.235   3.724  15.224  0.00  0.00    +0.000 C 
ATOM     19  O   UNL     1       5.652   4.772  14.305  0.00  0.00    +0.000 OA
ATOM     20  C   UNL     1       5.316   5.762  15.311  0.00  0.00    +0.000 C 
BRANCH  17  21
ATOM     21  C   UNL     1       6.803   4.630  17.083  0.00  0.00    +0.000 C 
BRANCH  21  22
ATOM     22  C   UNL     1       7.356   5.974  17.429  0.00  0.00    +0.000 A 
ATOM     23  N   UNL     1       7.502   6.988  16.597  0.00  0.00    +0.000 NA
ATOM     24  N   UNL     1       8.006   8.056  17.300  0.00  0.00    +0.000 NA
ATOM     25  C   UNL     1       8.159   7.675  18.545  0.00  0.00    +0.000 A 
ATOM     26  N   UNL     1       7.786   6.371  18.670  0.00  0.00    +0.000 N 
ATOM     27  C   UNL     1       7.838   5.605  19.885  0.00  0.00    +0.000 C 
ENDBRANCH  21  22
ENDBRANCH  17  21
ENDBRANCH  15  17
ENDBRANCH   8  11
BRANCH   5  28
ATOM     28  C   UNL     1       0.096   9.451  22.748  0.00  0.00    +0.000 C 
ATOM     29  F   UNL     1       1.294   9.284  23.375  0.00  0.00    +0.000 F 
ATOM     30  F   UNL     1      -0.533  10.451  23.429  0.00  0.00    +0.000 F 
ATOM     31  F   UNL     1      -0.615   8.320  22.996  0.00  0.00    +0.000 F 
ENDBRANCH   5  28
BRANCH   1  33
ATOM     32  C   UNL     1      -1.756  11.914  17.505  0.00  0.00    +0.000 C 
ATOM     33  C   UNL     1      -0.893  12.451  18.662  0.00  0.00    +0.000 C 
BRANCH  33  34
ATOM     34  N   UNL     1      -0.018  13.566  18.212  0.00  0.00    +0.000 NA
ATOM     35  C   UNL     1      -0.511  14.878  18.694  0.00  0.00    +0.000 C 
ATOM     36  C   UNL     1      -0.420  15.021  20.219  0.00  0.00    +0.000 C 
ATOM     37  C   UNL     1       1.026  14.979  20.647  0.00  0.00    +0.000 C 
ATOM     38  C   UNL     1       1.842  13.867  20.006  0.00  0.00    +0.000 C 
ATOM     39  C   UNL     1       1.419  13.497  18.565  0.00  0.00    +0.000 C 
ATOM     40  C   UNL     1       1.649  16.307  21.037  0.00  0.00    +0.000 C 
ATOM     41  C   UNL     1       1.355  15.288  22.095  0.00  0.00    +0.000 C 
ENDBRANCH  33  34
ENDBRANCH   1  33
TORSDOF 7
ENDMDL
MODEL 3
REMARK VINA RESULT:      -9.1      2.470      4.351
REMARK  Name = 
REMARK  9 active torsions:
REMARK  status: ('A' for Active; 'I' for Inactive)
REMARK    1  A    between atoms: C_1  and  C_2
REMARK    2  A    between atoms: C_2  and  C_3
REMARK    3  A    between atoms: C_2  and  N_34
REMARK    4  A    between atoms: C_7  and  C_8
REMARK    5  A    between atoms: N_14  and  C_15
REMARK    6  A    between atoms: C_19  and  C_20
REMARK    7  A    between atoms: C_20  and  C_21
REMARK    8  A    between atoms: C_21  and  C_22
REMARK    9  A    between atoms: N_26  and  C_27
REMARK                            x       y       z     vdW  Elec       q    Type
REMARK                         _______ _______ _______ _____ _____    ______ ____
ROOT
ATOM      1  C   UNL     1      -0.116  11.326  19.305  0.00  0.00    +0.000 A 
ATOM      2  C   UNL     1       0.787  10.650  18.479  0.00  0.00    +0.000 A 
ATOM      3  C   UNL     1       1.338   9.474  18.938  0.00  0.00    +0.000 A 
ATOM      4  C   UNL     1       1.120   8.975  20.209  0.00  0.00    +0.000 A 
ATOM      5  C   UNL     1       0.388   9.719  21.128  0.00  0.00    +0.000 A 
ATOM      6  C   UNL     1      -0.281  10.873  20.638  0.00  0.00    +0.000 A 
ATOM      7  C   UNL     1       1.725   7.607  20.297  0.00  0.00    +0.000 C 
ATOM      8  N   UNL     1       2.255   7.386  18.951  0.00  0.00    +0.000 N 
ATOM      9  C   UNL     1       2.110   8.515  18.152  0.00  0.00    +0.000 C 
ATOM     10  O   UNL     1       2.463   8.761  17.018  0.00  0.00    +0.000 OA
ENDROOT
BRANCH   8  11
ATOM     11  C   UNL     1       2.728   6.128  18.502  0.00  0.00    +0.000 A 
ATOM     12  C   UNL     1       2.285   4.926  19.060  0.00  0.00    +0.000 A 
ATOM     13  C   UNL     1       2.787   3.702  18.626  0.00  0.00    +0.000 A 
ATOM     14  C   UNL     1       3.770   3.666  17.643  0.00  0.00    +0.000 A 
ATOM     15  C   UNL     1       4.281   4.845  17.073  0.00  0.00    +0.000 A 
ATOM     16  C   UNL     1       3.713   6.061  17.508  0.00  0.00    +0.000 A 
BRANCH  15  17
ATOM     17  C   UNL     1       5.468   4.829  16.008  0.00  0.00    +0.000 C 
ATOM     18  C   UNL     1       6.135   3.465  15.659  0.00  0.00    +0.000 C 
ATOM     19  O   UNL     1       6.070   3.776  14.239  0.00  0.00    +0.000 OA
ATOM     20  C   UNL     1       5.027   4.745  14.518  0.00  0.00    +0.000 C 
BRANCH  17  21
ATOM     21  C   UNL     1       6.475   5.966  16.264  0.00  0.00    +0.000 C 
BRANCH  21  22
ATOM     22  C   UNL     1       7.143   5.880  17.598  0.00  0.00    +0.000 A 
ATOM     23  N   UNL     1       7.249   4.796  18.342  0.00  0.00    +0.000 NA
ATOM     24  N   UNL     1       7.961   5.113  19.473  0.00  0.00    +0.000 NA
ATOM     25  C   UNL     1       8.277   6.384  19.400  0.00  0.00    +0.000 A 
ATOM     26  N   UNL     1       7.766   6.913  18.253  0.00  0.00    +0.000 N 
ATOM     27  C   UNL     1       7.892   8.285  17.843  0.00  0.00    +0.000 C 
ENDBRANCH  21  22
ENDBRANCH  17  21
ENDBRANCH  15  17
ENDBRANCH   8  11
BRANCH   5  28
ATOM     28  C   UNL     1       0.332   9.349  22.590  0.00  0.00    +0.000 C 
ATOM     29  F   UNL     1       1.557   9.101  23.132  0.00  0.00    +0.000 F 
ATOM     30  F   UNL     1      -0.205  10.346  23.347  0.00  0.00    +0.000 F 
ATOM     31  F   UNL     1      -0.415   8.241  22.838  0.00  0.00    +0.000 F 
ENDBRANCH   5  28
BRANCH   1  33
ATOM     32  C   UNL     1      -1.791  12.009  17.553  0.00  0.00    +0.000 C 
ATOM     33  C   UNL     1      -0.861  12.502  18.677  0.00  0.00    +0.000 C 
BRANCH  33  34
ATOM     34  N   UNL     1      -0.007  13.629  18.217  0.00  0.00    +0.000 NA
ATOM     35  C   UNL     1      -0.490  14.930  18.739  0.00  0.00    +0.000 C 
ATOM     36  C   UNL     1      -0.348  15.047  20.262  0.00  0.00    +0.000 C 
ATOM     37  C   UNL     1       1.111  15.006  20.640  0.00  0.00    +0.000 C 
ATOM     38  C   UNL     1       1.911  13.910  19.953  0.00  0.00    +0.000 C 
ATOM     39  C   UNL     1       1.442  13.562  18.521  0.00  0.00    +0.000 C 
ATOM     40  C   UNL     1       1.740  16.330  21.032  0.00  0.00    +0.000 C 
ATOM     41  C   UNL     1       1.487  15.292  22.082  0.00  0.00    +0.000 C 
ENDBRANCH  33  34
ENDBRANCH   1  33
TORSDOF 7
ENDMDL
MODEL 4
REMARK VINA RESULT:      -8.7      2.413      9.202
REMARK  Name = 
REMARK  9 active torsions:
REMARK  status: ('A' for Active; 'I' for Inactive)
REMARK    1  A    between atoms: C_1  and  C_2
REMARK    2  A    between atoms: C_2  and  C_3
REMARK    3  A    between atoms: C_2  and  N_34
REMARK    4  A    between atoms: C_7  and  C_8
REMARK    5  A    between atoms: N_14  and  C_15
REMARK    6  A    between atoms: C_19  and  C_20
REMARK    7  A    between atoms: C_20  and  C_21
REMARK    8  A    between atoms: C_21  and  C_22
REMARK    9  A    between atoms: N_26  and  C_27
REMARK                            x       y       z     vdW  Elec       q    Type
REMARK                         _______ _______ _______ _____ _____    ______ ____
ROOT
ATOM      1  C   UNL     1       4.754   5.129  18.186  0.00  0.00    +0.000 A 
ATOM      2  C   UNL     1       4.041   6.317  17.993  0.00  0.00    +0.000 A 
ATOM      3  C   UNL     1       2.998   6.599  18.848  0.00  0.00    +0.000 A 
ATOM      4  C   UNL     1       2.557   5.726  19.826  0.00  0.00    +0.000 A 
ATOM      5  C   UNL     1       3.111   4.454  19.919  0.00  0.00    +0.000 A 
ATOM      6  C   UNL     1       4.259   4.189  19.125  0.00  0.00    +0.000 A 
ATOM      7  C   UNL     1       1.538   6.429  20.671  0.00  0.00    +0.000 C 
ATOM      8  N   UNL     1       1.493   7.774  20.094  0.00  0.00    +0.000 N 
ATOM      9  C   UNL     1       2.290   7.871  18.959  0.00  0.00    +0.000 C 
ATOM     10  O   UNL     1       2.478   8.774  18.171  0.00  0.00    +0.000 OA
ENDROOT
BRANCH   8  11
ATOM     11  C   UNL     1       0.819   8.857  20.710  0.00  0.00    +0.000 A 
ATOM     12  C   UNL     1       0.653   8.937  22.095  0.00  0.00    +0.000 A 
ATOM     13  C   UNL     1      -0.040   9.996  22.678  0.00  0.00    +0.000 A 
ATOM     14  C   UNL     1      -0.606  10.978  21.874  0.00  0.00    +0.000 A 
ATOM     15  C   UNL     1      -0.503  10.929  20.473  0.00  0.00    +0.000 A 
ATOM     16  C   UNL     1       0.245   9.866  19.925  0.00  0.00    +0.000 A 
BRANCH  15  17
ATOM     17  C   UNL     1      -1.219  11.998  19.530  0.00  0.00    +0.000 C 
ATOM     18  C   UNL     1      -1.084  13.510  19.883  0.00  0.00    +0.000 C 
ATOM     19  O   UNL     1      -0.782  13.825  18.495  0.00  0.00    +0.000 OA
ATOM     20  C   UNL     1      -0.403  12.441  18.282  0.00  0.00    +0.000 C 
BRANCH  17  21
ATOM     21  C   UNL     1      -2.656  11.570  19.176  0.00  0.00    +0.000 C 
BRANCH  21  22
ATOM     22  C   UNL     1      -2.789  11.022  17.792  0.00  0.00    +0.000 A 
ATOM     23  N   UNL     1      -1.947  10.196  17.202  0.00  0.00    +0.000 NA
ATOM     24  N   UNL     1      -2.437   9.896  15.954  0.00  0.00    +0.000 NA
ATOM     25  C   UNL     1      -3.567  10.544  15.804  0.00  0.00    +0.000 A 
ATOM     26  N   UNL     1      -3.818  11.281  16.921  0.00  0.00    +0.000 N 
ATOM     27  C   UNL     1      -4.957  12.137  17.113  0.00  0.00    +0.000 C 
ENDBRANCH  21  22
ENDBRANCH  17  21
ENDBRANCH  15  17
ENDBRANCH   8  11
BRANCH   5  28
ATOM     28  C   UNL     1       2.503   3.382  20.790  0.00  0.00    +0.000 C 
ATOM     29  F   UNL     1       1.232   3.048  20.428  0.00  0.00    +0.000 F 
ATOM     30  F   UNL     1       3.213   2.220  20.736  0.00  0.00    +0.000 F 
ATOM     31  F   UNL     1       2.438   3.726  22.103  0.00  0.00    +0.000 F 
ENDBRANCH   5  28
BRANCH   1  33
ATOM     32  C   UNL     1       7.267   5.014  18.267  0.00  0.00    +0.000 C 
ATOM     33  C   UNL     1       6.026   4.959  17.358  0.00  0.00    +0.000 C 
BRANCH  33  34
ATOM     34  N   UNL     1       6.163   5.879  16.198  0.00  0.00    +0.000 NA
ATOM     35  C   UNL     1       7.403   5.612  15.431  0.00  0.00    +0.000 C 
ATOM     36  C   UNL     1       7.384   4.246  14.731  0.00  0.00    +0.000 C 
ATOM     37  C   UNL     1       6.287   4.222  13.697  0.00  0.00    +0.000 C 
ATOM     38  C   UNL     1       4.953   4.772  14.178  0.00  0.00    +0.000 C 
ATOM     39  C   UNL     1       5.056   5.916  15.214  0.00  0.00    +0.000 C 
ATOM     40  C   UNL     1       6.726   4.342  12.249  0.00  0.00    +0.000 C 
ATOM     41  C   UNL     1       6.210   3.031  12.760  0.00  0.00    +0.000 C 
ENDBRANCH  33  34
ENDBRANCH   1  33
TORSDOF 7
ENDMDL
MODEL 5
REMARK VINA RESULT:      -8.7      3.526      5.386
REMARK  Name = 
REMARK  9 active torsions:
REMARK  status: ('A' for Active; 'I' for Inactive)
REMARK    1  A    between atoms: C_1  and  C_2
REMARK    2  A    between atoms: C_2  and  C_3
REMARK    3  A    between atoms: C_2  and  N_34
REMARK    4  A    between atoms: C_7  and  C_8
REMARK    5  A    between atoms: N_14  and  C_15
REMARK    6  A    between atoms: C_19  and  C_20
REMARK    7  A    between atoms: C_20  and  C_21
REMARK    8  A    between atoms: C_21  and  C_22
REMARK    9  A    between atoms: N_26  and  C_27
REMARK                            x       y       z     vdW  Elec       q    Type
REMARK                         _______ _______ _______ _____ _____    ______ ____
ROOT
ATOM      1  C   UNL     1      -1.438  12.472  20.957  0.00  0.00    +0.000 A 
ATOM      2  C   UNL     1      -0.517  11.461  21.247  0.00  0.00    +0.000 A 
ATOM      3  C   UNL     1      -0.230  10.537  20.266  0.00  0.00    +0.000 A 
ATOM      4  C   UNL     1      -0.876  10.499  19.043  0.00  0.00    +0.000 A 
ATOM      5  C   UNL     1      -1.936  11.364  18.793  0.00  0.00    +0.000 A 
ATOM      6  C   UNL     1      -2.168  12.394  19.744  0.00  0.00    +0.000 A 
ATOM      7  C   UNL     1      -0.191   9.490  18.171  0.00  0.00    +0.000 C 
ATOM      8  N   UNL     1       0.908   9.012  19.011  0.00  0.00    +0.000 N 
ATOM      9  C   UNL     1       0.854   9.559  20.288  0.00  0.00    +0.000 C 
ATOM     10  O   UNL     1       1.528   9.380  21.280  0.00  0.00    +0.000 OA
ENDROOT
BRANCH   8  11
ATOM     11  C   UNL     1       1.959   8.198  18.520  0.00  0.00    +0.000 A 
ATOM     12  C   UNL     1       2.914   8.682  17.621  0.00  0.00    +0.000 A 
ATOM     13  C   UNL     1       3.921   7.856  17.126  0.00  0.00    +0.000 A 
ATOM     14  C   UNL     1       3.966   6.518  17.502  0.00  0.00    +0.000 A 
ATOM     15  C   UNL     1       3.009   5.968  18.373  0.00  0.00    +0.000 A 
ATOM     16  C   UNL     1       2.034   6.848  18.887  0.00  0.00    +0.000 A 
BRANCH  15  17
ATOM     17  C   UNL     1       2.993   4.418  18.747  0.00  0.00    +0.000 C 
ATOM     18  C   UNL     1       2.889   4.016  20.248  0.00  0.00    +0.000 C 
ATOM     19  O   UNL     1       1.868   3.028  19.932  0.00  0.00    +0.000 OA
ATOM     20  C   UNL     1       1.597   3.732  18.694  0.00  0.00    +0.000 C 
BRANCH  17  21
ATOM     21  C   UNL     1       4.066   3.635  17.967  0.00  0.00    +0.000 C 
BRANCH  21  22
ATOM     22  C   UNL     1       5.452   4.151  18.181  0.00  0.00    +0.000 A 
ATOM     23  N   UNL     1       5.981   4.488  19.342  0.00  0.00    +0.000 NA
ATOM     24  N   UNL     1       7.282   4.877  19.129  0.00  0.00    +0.000 NA
ATOM     25  C   UNL     1       7.523   4.771  17.844  0.00  0.00    +0.000 A 
ATOM     26  N   UNL     1       6.399   4.341  17.206  0.00  0.00    +0.000 N 
ATOM     27  C   UNL     1       6.278   4.129  15.790  0.00  0.00    +0.000 C 
ENDBRANCH  21  22
ENDBRANCH  17  21
ENDBRANCH  15  17
ENDBRANCH   8  11
BRANCH   5  28
ATOM     28  C   UNL     1      -2.831  11.199  17.589  0.00  0.00    +0.000 C 
ATOM     29  F   UNL     1      -2.199  11.446  16.407  0.00  0.00    +0.000 F 
ATOM     30  F   UNL     1      -3.314   9.929  17.484  0.00  0.00    +0.000 F 
ATOM     31  F   UNL     1      -3.917  12.017  17.608  0.00  0.00    +0.000 F 
ENDBRANCH   5  28
BRANCH   1  33
ATOM     32  C   UNL     1      -0.174  14.131  22.367  0.00  0.00    +0.000 C 
ATOM     33  C   UNL     1      -1.566  13.591  21.989  0.00  0.00    +0.000 C 
BRANCH  33  34
ATOM     34  N   UNL     1      -2.364  13.259  23.198  0.00  0.00    +0.000 NA
ATOM     35  C   UNL     1      -2.804  14.479  23.917  0.00  0.00    +0.000 C 
ATOM     36  C   UNL     1      -3.810  15.311  23.111  0.00  0.00    +0.000 C 
ATOM     37  C   UNL     1      -5.075  14.516  22.905  0.00  0.00    +0.000 C 
ATOM     38  C   UNL     1      -4.854  13.078  22.461  0.00  0.00    +0.000 C 
ATOM     39  C   UNL     1      -3.570  12.417  23.016  0.00  0.00    +0.000 C 
ATOM     40  C   UNL     1      -6.264  14.916  23.759  0.00  0.00    +0.000 C 
ATOM     41  C   UNL     1      -6.272  15.219  22.292  0.00  0.00    +0.000 C 
ENDBRANCH  33  34
ENDBRANCH   1  33
TORSDOF 7
ENDMDL
MODEL 6
REMARK VINA RESULT:      -8.7      3.197      9.626
REMARK  Name = 
REMARK  9 active torsions:
REMARK  status: ('A' for Active; 'I' for Inactive)
REMARK    1  A    between atoms: C_1  and  C_2
REMARK    2  A    between atoms: C_2  and  C_3
REMARK    3  A    between atoms: C_2  and  N_34
REMARK    4  A    between atoms: C_7  and  C_8
REMARK    5  A    between atoms: N_14  and  C_15
REMARK    6  A    between atoms: C_19  and  C_20
REMARK    7  A    between atoms: C_20  and  C_21
REMARK    8  A    between atoms: C_21  and  C_22
REMARK    9  A    between atoms: N_26  and  C_27
REMARK                            x       y       z     vdW  Elec       q    Type
REMARK                         _______ _______ _______ _____ _____    ______ ____
ROOT
ATOM      1  C   UNL     1       4.443   5.310  18.706  0.00  0.00    +0.000 A 
ATOM      2  C   UNL     1       3.796   6.542  18.572  0.00  0.00    +0.000 A 
ATOM      3  C   UNL     1       2.687   6.786  19.352  0.00  0.00    +0.000 A 
ATOM      4  C   UNL     1       2.122   5.843  20.191  0.00  0.00    +0.000 A 
ATOM      5  C   UNL     1       2.617   4.543  20.203  0.00  0.00    +0.000 A 
ATOM      6  C   UNL     1       3.826   4.305  19.495  0.00  0.00    +0.000 A 
ATOM      7  C   UNL     1       1.053   6.505  21.005  0.00  0.00    +0.000 C 
ATOM      8  N   UNL     1       1.113   7.900  20.568  0.00  0.00    +0.000 N 
ATOM      9  C   UNL     1       2.018   8.073  19.527  0.00  0.00    +0.000 C 
ATOM     10  O   UNL     1       2.314   9.039  18.856  0.00  0.00    +0.000 OA
ENDROOT
BRANCH   8  11
ATOM     11  C   UNL     1       0.423   8.948  21.227  0.00  0.00    +0.000 A 
ATOM     12  C   UNL     1       0.153   8.911  22.597  0.00  0.00    +0.000 A 
ATOM     13  C   UNL     1      -0.554   9.938  23.220  0.00  0.00    +0.000 A 
ATOM     14  C   UNL     1      -1.030  11.005  22.468  0.00  0.00    +0.000 A 
ATOM     15  C   UNL     1      -0.820  11.076  21.080  0.00  0.00    +0.000 A 
ATOM     16  C   UNL     1      -0.061  10.041  20.496  0.00  0.00    +0.000 A 
BRANCH  15  17
ATOM     17  C   UNL     1      -1.432  12.248  20.187  0.00  0.00    +0.000 C 
ATOM     18  C   UNL     1      -2.570  11.900  19.182  0.00  0.00    +0.000 C 
ATOM     19  O   UNL     1      -3.336  13.057  19.623  0.00  0.00    +0.000 OA
ATOM     20  C   UNL     1      -2.571  13.072  20.855  0.00  0.00    +0.000 C 
BRANCH  17  21
ATOM     21  C   UNL     1      -0.327  13.141  19.590  0.00  0.00    +0.000 C 
BRANCH  21  22
ATOM     22  C   UNL     1       0.347  14.009  20.602  0.00  0.00    +0.000 A 
ATOM     23  N   UNL     1       1.229  13.611  21.499  0.00  0.00    +0.000 NA
ATOM     24  N   UNL     1       1.643  14.707  22.217  0.00  0.00    +0.000 NA
ATOM     25  C   UNL     1       1.007  15.753  21.746  0.00  0.00    +0.000 A 
ATOM     26  N   UNL     1       0.168  15.362  20.748  0.00  0.00    +0.000 N 
ATOM     27  C   UNL     1      -0.708  16.232  20.010  0.00  0.00    +0.000 C 
ENDBRANCH  21  22
ENDBRANCH  17  21
ENDBRANCH  15  17
ENDBRANCH   8  11
BRANCH   5  28
ATOM     28  C   UNL     1       1.890   3.420  20.900  0.00  0.00    +0.000 C 
ATOM     29  F   UNL     1       0.556   3.387  20.625  0.00  0.00    +0.000 F 
ATOM     30  F   UNL     1       2.367   2.198  20.529  0.00  0.00    +0.000 F 
ATOM     31  F   UNL     1       1.990   3.470  22.254  0.00  0.00    +0.000 F 
ENDBRANCH   5  28
BRANCH   1  33
ATOM     32  C   UNL     1       6.936   5.127  19.003  0.00  0.00    +0.000 C 
ATOM     33  C   UNL     1       5.781   5.163  17.985  0.00  0.00    +0.000 C 
BRANCH  33  34
ATOM     34  N   UNL     1       6.041   6.155  16.908  0.00  0.00    +0.000 NA
ATOM     35  C   UNL     1       7.358   5.933  16.265  0.00  0.00    +0.000 C 
ATOM     36  C   UNL     1       7.421   4.614  15.482  0.00  0.00    +0.000 C 
ATOM     37  C   UNL     1       6.442   4.658  14.335  0.00  0.00    +0.000 C 
ATOM     38  C   UNL     1       5.061   5.180  14.702  0.00  0.00    +0.000 C 
ATOM     39  C   UNL     1       5.046   6.256  15.814  0.00  0.00    +0.000 C 
ATOM     40  C   UNL     1       7.036   4.868  12.955  0.00  0.00    +0.000 C 
ATOM     41  C   UNL     1       6.473   3.529  13.322  0.00  0.00    +0.000 C 
ENDBRANCH  33  34
ENDBRANCH   1  33
TORSDOF 7
ENDMDL
MODEL 7
REMARK VINA RESULT:      -8.6      3.110      9.343
REMARK  Name = 
REMARK  9 active torsions:
REMARK  status: ('A' for Active; 'I' for Inactive)
REMARK    1  A    between atoms: C_1  and  C_2
REMARK    2  A    between atoms: C_2  and  C_3
REMARK    3  A    between atoms: C_2  and  N_34
REMARK    4  A    between atoms: C_7  and  C_8
REMARK    5  A    between atoms: N_14  and  C_15
REMARK    6  A    between atoms: C_19  and  C_20
REMARK    7  A    between atoms: C_20  and  C_21
REMARK    8  A    between atoms: C_21  and  C_22
REMARK    9  A    between atoms: N_26  and  C_27
REMARK                            x       y       z     vdW  Elec       q    Type
REMARK                         _______ _______ _______ _____ _____    ______ ____
ROOT
ATOM      1  C   UNL     1       4.464   5.143  18.577  0.00  0.00    +0.000 A 
ATOM      2  C   UNL     1       3.815   6.370  18.412  0.00  0.00    +0.000 A 
ATOM      3  C   UNL     1       2.742   6.658  19.227  0.00  0.00    +0.000 A 
ATOM      4  C   UNL     1       2.213   5.758  20.135  0.00  0.00    +0.000 A 
ATOM      5  C   UNL     1       2.705   4.458  20.188  0.00  0.00    +0.000 A 
ATOM      6  C   UNL     1       3.881   4.181  19.440  0.00  0.00    +0.000 A 
ATOM      7  C   UNL     1       1.182   6.464  20.963  0.00  0.00    +0.000 C 
ATOM      8  N   UNL     1       1.226   7.836  20.455  0.00  0.00    +0.000 N 
ATOM      9  C   UNL     1       2.085   7.954  19.368  0.00  0.00    +0.000 C 
ATOM     10  O   UNL     1       2.353   8.885  18.639  0.00  0.00    +0.000 OA
ENDROOT
BRANCH   8  11
ATOM     11  C   UNL     1       0.569   8.918  21.092  0.00  0.00    +0.000 A 
ATOM     12  C   UNL     1       0.308   8.923  22.465  0.00  0.00    +0.000 A 
ATOM     13  C   UNL     1      -0.368   9.982  23.066  0.00  0.00    +0.000 A 
ATOM     14  C   UNL     1      -0.821  11.043  22.291  0.00  0.00    +0.000 A 
ATOM     15  C   UNL     1      -0.620  11.073  20.900  0.00  0.00    +0.000 A 
ATOM     16  C   UNL     1       0.107  10.004  20.337  0.00  0.00    +0.000 A 
BRANCH  15  17
ATOM     17  C   UNL     1      -1.208  12.238  19.982  0.00  0.00    +0.000 C 
ATOM     18  C   UNL     1      -1.148  12.067  18.434  0.00  0.00    +0.000 C 
ATOM     19  O   UNL     1      -2.531  12.502  18.315  0.00  0.00    +0.000 OA
ATOM     20  C   UNL     1      -2.739  12.167  19.711  0.00  0.00    +0.000 C 
BRANCH  17  21
ATOM     21  C   UNL     1      -0.758  13.627  20.472  0.00  0.00    +0.000 C 
BRANCH  21  22
ATOM     22  C   UNL     1       0.530  14.083  19.867  0.00  0.00    +0.000 A 
ATOM     23  N   UNL     1       1.710  13.518  20.042  0.00  0.00    +0.000 NA
ATOM     24  N   UNL     1       2.634  14.204  19.292  0.00  0.00    +0.000 NA
ATOM     25  C   UNL     1       2.004  15.174  18.675  0.00  0.00    +0.000 A 
ATOM     26  N   UNL     1       0.687  15.152  19.021  0.00  0.00    +0.000 N 
ATOM     27  C   UNL     1      -0.309  16.079  18.558  0.00  0.00    +0.000 C 
ENDBRANCH  21  22
ENDBRANCH  17  21
ENDBRANCH  15  17
ENDBRANCH   8  11
BRANCH   5  28
ATOM     28  C   UNL     1       2.007   3.374  20.971  0.00  0.00    +0.000 C 
ATOM     29  F   UNL     1       2.121   3.522  22.321  0.00  0.00    +0.000 F 
ATOM     30  F   UNL     1       0.667   3.348  20.721  0.00  0.00    +0.000 F 
ATOM     31  F   UNL     1       2.468   2.126  20.694  0.00  0.00    +0.000 F 
ENDBRANCH   5  28
BRANCH   1  33
ATOM     32  C   UNL     1       6.953   4.822  18.782  0.00  0.00    +0.000 C 
ATOM     33  C   UNL     1       5.769   4.956  17.806  0.00  0.00    +0.000 C 
BRANCH  33  34
ATOM     34  N   UNL     1       6.046   5.973  16.757  0.00  0.00    +0.000 NA
ATOM     35  C   UNL     1       7.347   5.732  16.090  0.00  0.00    +0.000 C 
ATOM     36  C   UNL     1       7.359   4.439  15.265  0.00  0.00    +0.000 C 
ATOM     37  C   UNL     1       6.368   4.549  14.134  0.00  0.00    +0.000 C 
ATOM     38  C   UNL     1       5.009   5.101  14.536  0.00  0.00    +0.000 C 
ATOM     39  C   UNL     1       5.041   6.141  15.681  0.00  0.00    +0.000 C 
ATOM     40  C   UNL     1       6.951   4.785  12.752  0.00  0.00    +0.000 C 
ATOM     41  C   UNL     1       6.351   3.453  13.085  0.00  0.00    +0.000 C 
ENDBRANCH  33  34
ENDBRANCH   1  33
TORSDOF 7
ENDMDL
MODEL 8
REMARK VINA RESULT:      -8.6      2.820      9.168
REMARK  Name = 
REMARK  9 active torsions:
REMARK  status: ('A' for Active; 'I' for Inactive)
REMARK    1  A    between atoms: C_1  and  C_2
REMARK    2  A    between atoms: C_2  and  C_3
REMARK    3  A    between atoms: C_2  and  N_34
REMARK    4  A    between atoms: C_7  and  C_8
REMARK    5  A    between atoms: N_14  and  C_15
REMARK    6  A    between atoms: C_19  and  C_20
REMARK    7  A    between atoms: C_20  and  C_21
REMARK    8  A    between atoms: C_21  and  C_22
REMARK    9  A    between atoms: N_26  and  C_27
REMARK                            x       y       z     vdW  Elec       q    Type
REMARK                         _______ _______ _______ _____ _____    ______ ____
ROOT
ATOM      1  C   UNL     1       4.388   5.117  18.572  0.00  0.00    +0.000 A 
ATOM      2  C   UNL     1       3.767   6.356  18.391  0.00  0.00    +0.000 A 
ATOM      3  C   UNL     1       2.733   6.699  19.235  0.00  0.00    +0.000 A 
ATOM      4  C   UNL     1       2.213   5.844  20.190  0.00  0.00    +0.000 A 
ATOM      5  C   UNL     1       2.672   4.533  20.268  0.00  0.00    +0.000 A 
ATOM      6  C   UNL     1       3.811   4.199  19.487  0.00  0.00    +0.000 A 
ATOM      7  C   UNL     1       1.234   6.604  21.031  0.00  0.00    +0.000 C 
ATOM      8  N   UNL     1       1.296   7.958  20.478  0.00  0.00    +0.000 N 
ATOM      9  C   UNL     1       2.116   8.017  19.358  0.00  0.00    +0.000 C 
ATOM     10  O   UNL     1       2.383   8.917  18.589  0.00  0.00    +0.000 OA
ENDROOT
BRANCH   8  11
ATOM     11  C   UNL     1       0.693   9.077  21.104  0.00  0.00    +0.000 A 
ATOM     12  C   UNL     1      -0.194   8.941  22.175  0.00  0.00    +0.000 A 
ATOM     13  C   UNL     1      -0.801  10.053  22.754  0.00  0.00    +0.000 A 
ATOM     14  C   UNL     1      -0.550  11.321  22.246  0.00  0.00    +0.000 A 
ATOM     15  C   UNL     1       0.304  11.515  21.146  0.00  0.00    +0.000 A 
ATOM     16  C   UNL     1       0.933  10.369  20.617  0.00  0.00    +0.000 A 
BRANCH  15  17
ATOM     17  C   UNL     1       0.537  12.952  20.494  0.00  0.00    +0.000 C 
ATOM     18  C   UNL     1       1.562  13.916  21.164  0.00  0.00    +0.000 C 
ATOM     19  O   UNL     1       2.142  14.228  19.867  0.00  0.00    +0.000 OA
ATOM     20  C   UNL     1       1.577  13.001  19.339  0.00  0.00    +0.000 C 
BRANCH  17  21
ATOM     21  C   UNL     1      -0.797  13.627  20.119  0.00  0.00    +0.000 C 
BRANCH  21  22
ATOM     22  C   UNL     1      -1.676  12.772  19.265  0.00  0.00    +0.000 A 
ATOM     23  N   UNL     1      -1.352  12.254  18.096  0.00  0.00    +0.000 NA
ATOM     24  N   UNL     1      -2.411  11.502  17.647  0.00  0.00    +0.000 NA
ATOM     25  C   UNL     1      -3.361  11.576  18.548  0.00  0.00    +0.000 A 
ATOM     26  N   UNL     1      -2.955  12.379  19.570  0.00  0.00    +0.000 N 
ATOM     27  C   UNL     1      -3.740  12.711  20.727  0.00  0.00    +0.000 C 
ENDBRANCH  21  22
ENDBRANCH  17  21
ENDBRANCH  15  17
ENDBRANCH   8  11
BRANCH   5  28
ATOM     28  C   UNL     1       1.974   3.494  21.110  0.00  0.00    +0.000 C 
ATOM     29  F   UNL     1       0.629   3.441  20.899  0.00  0.00    +0.000 F 
ATOM     30  F   UNL     1       2.432   2.236  20.849  0.00  0.00    +0.000 F 
ATOM     31  F   UNL     1       2.134   3.685  22.446  0.00  0.00    +0.000 F 
ENDBRANCH   5  28
BRANCH   1  33
ATOM     32  C   UNL     1       6.851   4.609  18.699  0.00  0.00    +0.000 C 
ATOM     33  C   UNL     1       5.658   4.868  17.761  0.00  0.00    +0.000 C 
BRANCH  33  34
ATOM     34  N   UNL     1       5.983   5.906  16.747  0.00  0.00    +0.000 NA
ATOM     35  C   UNL     1       7.306   5.666  16.124  0.00  0.00    +0.000 C 
ATOM     36  C   UNL     1       7.338   4.392  15.270  0.00  0.00    +0.000 C 
ATOM     37  C   UNL     1       6.391   4.538  14.105  0.00  0.00    +0.000 C 
ATOM     38  C   UNL     1       5.023   5.094  14.468  0.00  0.00    +0.000 C 
ATOM     39  C   UNL     1       5.022   6.108  15.637  0.00  0.00    +0.000 C 
ATOM     40  C   UNL     1       7.029   4.799  12.753  0.00  0.00    +0.000 C 
ATOM     41  C   UNL     1       6.404   3.466  13.032  0.00  0.00    +0.000 C 
ENDBRANCH  33  34
ENDBRANCH   1  33
TORSDOF 7
ENDMDL
MODEL 9
REMARK VINA RESULT:      -8.6      3.349      9.291
REMARK  Name = 
REMARK  9 active torsions:
REMARK  status: ('A' for Active; 'I' for Inactive)
REMARK    1  A    between atoms: C_1  and  C_2
REMARK    2  A    between atoms: C_2  and  C_3
REMARK    3  A    between atoms: C_2  and  N_34
REMARK    4  A    between atoms: C_7  and  C_8
REMARK    5  A    between atoms: N_14  and  C_15
REMARK    6  A    between atoms: C_19  and  C_20
REMARK    7  A    between atoms: C_20  and  C_21
REMARK    8  A    between atoms: C_21  and  C_22
REMARK    9  A    between atoms: N_26  and  C_27
REMARK                            x       y       z     vdW  Elec       q    Type
REMARK                         _______ _______ _______ _____ _____    ______ ____
ROOT
ATOM      1  C   UNL     1       4.480   5.111  18.514  0.00  0.00    +0.000 A 
ATOM      2  C   UNL     1       3.854   6.348  18.335  0.00  0.00    +0.000 A 
ATOM      3  C   UNL     1       2.801   6.674  19.161  0.00  0.00    +0.000 A 
ATOM      4  C   UNL     1       2.268   5.803  20.095  0.00  0.00    +0.000 A 
ATOM      5  C   UNL     1       2.734   4.495  20.166  0.00  0.00    +0.000 A 
ATOM      6  C   UNL     1       3.891   4.179  19.405  0.00  0.00    +0.000 A 
ATOM      7  C   UNL     1       1.266   6.547  20.925  0.00  0.00    +0.000 C 
ATOM      8  N   UNL     1       1.330   7.908  20.390  0.00  0.00    +0.000 N 
ATOM      9  C   UNL     1       2.173   7.986  19.287  0.00  0.00    +0.000 C 
ATOM     10  O   UNL     1       2.448   8.897  18.535  0.00  0.00    +0.000 OA
ENDROOT
BRANCH   8  11
ATOM     11  C   UNL     1       0.706   9.015  21.016  0.00  0.00    +0.000 A 
ATOM     12  C   UNL     1       0.059   8.903  22.250  0.00  0.00    +0.000 A 
ATOM     13  C   UNL     1      -0.576   9.997  22.833  0.00  0.00    +0.000 A 
ATOM     14  C   UNL     1      -0.598  11.218  22.169  0.00  0.00    +0.000 A 
ATOM     15  C   UNL     1       0.004  11.380  20.909  0.00  0.00    +0.000 A 
ATOM     16  C   UNL     1       0.674  10.260  20.375  0.00  0.00    +0.000 A 
BRANCH  15  17
ATOM     17  C   UNL     1      -0.085  12.748  20.095  0.00  0.00    +0.000 C 
ATOM     18  C   UNL     1       0.562  12.814  18.679  0.00  0.00    +0.000 C 
ATOM     19  O   UNL     1      -0.626  13.465  18.147  0.00  0.00    +0.000 OA
ATOM     20  C   UNL     1      -1.388  12.951  19.269  0.00  0.00    +0.000 C 
BRANCH  17  21
ATOM     21  C   UNL     1       0.245  13.961  20.986  0.00  0.00    +0.000 C 
BRANCH  21  22
ATOM     22  C   UNL     1       1.693  14.330  20.976  0.00  0.00    +0.000 A 
ATOM     23  N   UNL     1       2.663  13.675  21.584  0.00  0.00    +0.000 NA
ATOM     24  N   UNL     1       3.852  14.305  21.306  0.00  0.00    +0.000 NA
ATOM     25  C   UNL     1       3.587  15.331  20.535  0.00  0.00    +0.000 A 
ATOM     26  N   UNL     1       2.244  15.401  20.318  0.00  0.00    +0.000 N 
ATOM     27  C   UNL     1       1.580  16.409  19.537  0.00  0.00    +0.000 C 
ENDBRANCH  21  22
ENDBRANCH  17  21
ENDBRANCH  15  17
ENDBRANCH   8  11
BRANCH   5  28
ATOM     28  C   UNL     1       2.026   3.440  20.981  0.00  0.00    +0.000 C 
ATOM     29  F   UNL     1       2.463   2.175  20.725  0.00  0.00    +0.000 F 
ATOM     30  F   UNL     1       2.210   3.623  22.320  0.00  0.00    +0.000 F 
ATOM     31  F   UNL     1       0.682   3.417  20.784  0.00  0.00    +0.000 F 
ENDBRANCH   5  28
BRANCH   1  33
ATOM     32  C   UNL     1       6.964   4.738  18.685  0.00  0.00    +0.000 C 
ATOM     33  C   UNL     1       5.768   4.881  17.726  0.00  0.00    +0.000 C 
BRANCH  33  34
ATOM     34  N   UNL     1       6.050   5.874  16.655  0.00  0.00    +0.000 NA
ATOM     35  C   UNL     1       7.335   5.592  15.972  0.00  0.00    +0.000 C 
ATOM     36  C   UNL     1       7.306   4.284  15.170  0.00  0.00    +0.000 C 
ATOM     37  C   UNL     1       6.299   4.397  14.052  0.00  0.00    +0.000 C 
ATOM     38  C   UNL     1       4.959   4.985  14.466  0.00  0.00    +0.000 C 
ATOM     39  C   UNL     1       5.032   6.044  15.591  0.00  0.00    +0.000 C 
ATOM     40  C   UNL     1       6.865   4.596  12.658  0.00  0.00    +0.000 C 
ATOM     41  C   UNL     1       6.242   3.283  13.024  0.00  0.00    +0.000 C 
ENDBRANCH  33  34
ENDBRANCH   1  33
TORSDOF 7
ENDMDL
