MODEL 1
REMARK VINA RESULT:     -10.0      0.000      0.000
REMARK  Name = 
REMARK  10 active torsions:
REMARK  status: ('A' for Active; 'I' for Inactive)
REMARK    1  A    between atoms: C_1  and  N_2
REMARK    2  A    between atoms: C_6  and  C_7
REMARK    3  A    between atoms: C_7  and  C_8
REMARK    4  A    between atoms: C_8  and  C_9
REMARK    5  A    between atoms: C_13  and  N_14
REMARK    6  A    between atoms: C_19  and  C_20
REMARK    7  A    between atoms: C_20  and  N_21
REMARK    8  A    between atoms: C_25  and  C_26
REMARK    9  A    between atoms: C_26  and  O_27
REMARK   10  A    between atoms: C_30  and  C_31
REMARK                            x       y       z     vdW  Elec       q    Type
REMARK                         _______ _______ _______ _____ _____    ______ ____
ROOT
ATOM      1  N   UNL     1       1.374   8.283  20.290  0.00  0.00    +0.000 N 
ATOM      2  C   UNL     1       1.498   6.952  20.841  0.00  0.00    +0.000 C 
ATOM      3  C   UNL     1       2.176   6.182  19.776  0.00  0.00    +0.000 A 
ATOM      4  C   UNL     1       2.602   7.034  18.755  0.00  0.00    +0.000 A 
ATOM      5  C   UNL     1       3.427   6.562  17.732  0.00  0.00    +0.000 A 
ATOM      6  C   UNL     1       3.769   5.189  17.731  0.00  0.00    +0.000 A 
ATOM      7  C   UNL     1       3.203   4.335  18.715  0.00  0.00    +0.000 A 
ATOM      8  C   UNL     1       2.410   4.819  19.759  0.00  0.00    +0.000 A 
ATOM      9  C   UNL     1       2.018   8.386  19.046  0.00  0.00    +0.000 C 
ATOM     10  O   UNL     1       2.106   9.334  18.293  0.00  0.00    +0.000 OA
ENDROOT
BRANCH   1  15
ATOM     11  C   UNL     1      -0.898  11.241  20.702  0.00  0.00    +0.000 A 
ATOM     12  C   UNL     1      -0.998  11.256  22.100  0.00  0.00    +0.000 A 
ATOM     13  C   UNL     1      -0.432  10.244  22.894  0.00  0.00    +0.000 A 
ATOM     14  C   UNL     1       0.292   9.193  22.318  0.00  0.00    +0.000 A 
ATOM     15  C   UNL     1       0.477   9.170  20.943  0.00  0.00    +0.000 A 
ATOM     16  C   UNL     1      -0.162  10.168  20.170  0.00  0.00    +0.000 A 
BRANCH  11  17
ATOM     17  C   UNL     1      -1.557  12.351  19.728  0.00  0.00    +0.000 C 
ATOM     18  C   UNL     1      -0.638  12.849  18.576  0.00  0.00    +0.000 C 
ATOM     19  O   UNL     1      -0.666  14.209  19.046  0.00  0.00    +0.000 OA
ATOM     20  C   UNL     1      -1.496  13.847  20.169  0.00  0.00    +0.000 C 
BRANCH  17  21
ATOM     21  C   UNL     1      -2.955  11.913  19.234  0.00  0.00    +0.000 C 
BRANCH  21  27
ATOM     22  C   UNL     1      -5.319  12.138  17.130  0.00  0.00    +0.000 C 
ATOM     23  N   UNL     1      -4.045  11.499  16.948  0.00  0.00    +0.000 N 
ATOM     24  C   UNL     1      -3.672  10.820  15.827  0.00  0.00    +0.000 A 
ATOM     25  N   UNL     1      -2.458  10.349  15.986  0.00  0.00    +0.000 NA
ATOM     26  N   UNL     1      -2.028  10.726  17.234  0.00  0.00    +0.000 NA
ATOM     27  C   UNL     1      -2.993  11.416  17.819  0.00  0.00    +0.000 A 
ENDBRANCH  21  27
ENDBRANCH  17  21
ENDBRANCH  11  17
ENDBRANCH   1  15
BRANCH   8  28
ATOM     28  C   UNL     1       1.866   3.889  20.810  0.00  0.00    +0.000 C 
ATOM     29  F   UNL     1       0.512   3.908  20.909  0.00  0.00    +0.000 F 
ATOM     30  F   UNL     1       2.205   2.594  20.568  0.00  0.00    +0.000 F 
ATOM     31  F   UNL     1       2.334   4.181  22.052  0.00  0.00    +0.000 F 
ENDBRANCH   8  28
BRANCH   6  32
ATOM     32  C   UNL     1       4.884   4.566  16.899  0.00  0.00    +0.000 C 
BRANCH  32  33
ATOM     33  N   UNL     1       6.191   4.349  17.515  0.00  0.00    +0.000 NA
ATOM     34  C   UNL     1       6.731   5.552  18.165  0.00  0.00    +0.000 C 
ATOM     35  C   UNL     1       7.259   6.673  17.247  0.00  0.00    +0.000 C 
ATOM     36  O   UNL     1       7.571   6.381  15.892  0.00  0.00    +0.000 OA
ATOM     37  C   UNL     1       7.584   5.024  15.436  0.00  0.00    +0.000 C 
ATOM     38  C   UNL     1       7.197   3.962  16.497  0.00  0.00    +0.000 C 
BRANCH  37  39
ATOM     39  C   UNL     1       6.714   4.933  14.161  0.00  0.00    +0.000 C 
BRANCH  39  40
ATOM     40  O   UNL     1       6.382   3.575  13.859  0.00  0.00    +0.000 OA
ATOM     41  H   UNL     1       6.212   3.525  12.903  0.00  0.00    +0.000 HD
ENDBRANCH  39  40
ENDBRANCH  37  39
ENDBRANCH  32  33
ENDBRANCH   6  32
TORSDOF 9
ENDMDL
MODEL 2
REMARK VINA RESULT:      -9.9      2.099      3.322
REMARK  Name = 
REMARK  10 active torsions:
REMARK  status: ('A' for Active; 'I' for Inactive)
REMARK    1  A    between atoms: C_1  and  N_2
REMARK    2  A    between atoms: C_6  and  C_7
REMARK    3  A    between atoms: C_7  and  C_8
REMARK    4  A    between atoms: C_8  and  C_9
REMARK    5  A    between atoms: C_13  and  N_14
REMARK    6  A    between atoms: C_19  and  C_20
REMARK    7  A    between atoms: C_20  and  N_21
REMARK    8  A    between atoms: C_25  and  C_26
REMARK    9  A    between atoms: C_26  and  O_27
REMARK   10  A    between atoms: C_30  and  C_31
REMARK                            x       y       z     vdW  Elec       q    Type
REMARK                         _______ _______ _______ _____ _____    ______ ____
ROOT
ATOM      1  N   UNL     1       1.175   8.489  20.540  0.00  0.00    +0.000 N 
ATOM      2  C   UNL     1       1.401   7.141  21.011  0.00  0.00    +0.000 C 
ATOM      3  C   UNL     1       2.018   6.452  19.856  0.00  0.00    +0.000 A 
ATOM      4  C   UNL     1       2.320   7.370  18.848  0.00  0.00    +0.000 A 
ATOM      5  C   UNL     1       3.074   6.985  17.738  0.00  0.00    +0.000 A 
ATOM      6  C   UNL     1       3.471   5.630  17.640  0.00  0.00    +0.000 A 
ATOM      7  C   UNL     1       3.027   4.707  18.623  0.00  0.00    +0.000 A 
ATOM      8  C   UNL     1       2.306   5.104  19.752  0.00  0.00    +0.000 A 
ATOM      9  C   UNL     1       1.706   8.679  19.254  0.00  0.00    +0.000 C 
ATOM     10  O   UNL     1       1.690   9.664  18.545  0.00  0.00    +0.000 OA
ENDROOT
BRANCH   1  15
ATOM     11  C   UNL     1      -1.139  11.343  21.300  0.00  0.00    +0.000 A 
ATOM     12  C   UNL     1      -1.148  11.260  22.699  0.00  0.00    +0.000 A 
ATOM     13  C   UNL     1      -0.506  10.213  23.384  0.00  0.00    +0.000 A 
ATOM     14  C   UNL     1       0.205   9.226  22.690  0.00  0.00    +0.000 A 
ATOM     15  C   UNL     1       0.300   9.302  21.309  0.00  0.00    +0.000 A 
ATOM     16  C   UNL     1      -0.413  10.332  20.649  0.00  0.00    +0.000 A 
BRANCH  11  17
ATOM     17  C   UNL     1      -1.887  12.498  20.450  0.00  0.00    +0.000 C 
ATOM     18  C   UNL     1      -3.415  12.625  20.708  0.00  0.00    +0.000 C 
ATOM     19  O   UNL     1      -3.743  12.331  19.338  0.00  0.00    +0.000 OA
ATOM     20  C   UNL     1      -2.352  12.161  18.999  0.00  0.00    +0.000 C 
BRANCH  17  21
ATOM     21  C   UNL     1      -1.145  13.850  20.559  0.00  0.00    +0.000 C 
BRANCH  21  27
ATOM     22  C   UNL     1       0.948  13.169  18.273  0.00  0.00    +0.000 C 
ATOM     23  N   UNL     1       1.220  13.409  19.663  0.00  0.00    +0.000 N 
ATOM     24  C   UNL     1       2.451  13.318  20.240  0.00  0.00    +0.000 A 
ATOM     25  N   UNL     1       2.354  13.584  21.520  0.00  0.00    +0.000 NA
ATOM     26  N   UNL     1       1.036  13.854  21.789  0.00  0.00    +0.000 NA
ATOM     27  C   UNL     1       0.347  13.740  20.665  0.00  0.00    +0.000 A 
ENDBRANCH  21  27
ENDBRANCH  17  21
ENDBRANCH  11  17
ENDBRANCH   1  15
BRANCH   8  28
ATOM     28  C   UNL     1       1.892   4.102  20.796  0.00  0.00    +0.000 C 
ATOM     29  F   UNL     1       2.349   4.391  22.042  0.00  0.00    +0.000 F 
ATOM     30  F   UNL     1       0.539   4.011  20.906  0.00  0.00    +0.000 F 
ATOM     31  F   UNL     1       2.340   2.849  20.517  0.00  0.00    +0.000 F 
ENDBRANCH   8  28
BRANCH   6  32
ATOM     32  C   UNL     1       4.537   5.099  16.688  0.00  0.00    +0.000 C 
BRANCH  32  33
ATOM     33  N   UNL     1       5.434   6.046  16.029  0.00  0.00    +0.000 NA
ATOM     34  C   UNL     1       6.356   5.405  15.081  0.00  0.00    +0.000 C 
ATOM     35  C   UNL     1       7.522   4.588  15.673  0.00  0.00    +0.000 C 
ATOM     36  O   UNL     1       7.900   4.788  17.029  0.00  0.00    +0.000 OA
ATOM     37  C   UNL     1       7.340   5.872  17.777  0.00  0.00    +0.000 C 
ATOM     38  C   UNL     1       6.296   6.733  17.021  0.00  0.00    +0.000 C 
BRANCH  37  39
ATOM     39  C   UNL     1       6.791   5.309  19.108  0.00  0.00    +0.000 C 
BRANCH  39  40
ATOM     40  O   UNL     1       7.728   5.494  20.173  0.00  0.00    +0.000 OA
ATOM     41  H   UNL     1       7.258   5.945  20.895  0.00  0.00    +0.000 HD
ENDBRANCH  39  40
ENDBRANCH  37  39
ENDBRANCH  32  33
ENDBRANCH   6  32
TORSDOF 9
ENDMDL
MODEL 3
REMARK VINA RESULT:      -9.9      0.995      1.713
REMARK  Name = 
REMARK  10 active torsions:
REMARK  status: ('A' for Active; 'I' for Inactive)
REMARK    1  A    between atoms: C_1  and  N_2
REMARK    2  A    between atoms: C_6  and  C_7
REMARK    3  A    between atoms: C_7  and  C_8
REMARK    4  A    between atoms: C_8  and  C_9
REMARK    5  A    between atoms: C_13  and  N_14
REMARK    6  A    between atoms: C_19  and  C_20
REMARK    7  A    between atoms: C_20  and  N_21
REMARK    8  A    between atoms: C_25  and  C_26
REMARK    9  A    between atoms: C_26  and  O_27
REMARK   10  A    between atoms: C_30  and  C_31
REMARK                            x       y       z     vdW  Elec       q    Type
REMARK                         _______ _______ _______ _____ _____    ______ ____
ROOT
ATOM      1  N   UNL     1       1.184   8.536  20.425  0.00  0.00    +0.000 N 
ATOM      2  C   UNL     1       1.384   7.192  20.920  0.00  0.00    +0.000 C 
ATOM      3  C   UNL     1       2.026   6.483  19.792  0.00  0.00    +0.000 A 
ATOM      4  C   UNL     1       2.363   7.383  18.780  0.00  0.00    +0.000 A 
ATOM      5  C   UNL     1       3.144   6.976  17.695  0.00  0.00    +0.000 A 
ATOM      6  C   UNL     1       3.530   5.616  17.627  0.00  0.00    +0.000 A 
ATOM      7  C   UNL     1       3.051   4.711  18.610  0.00  0.00    +0.000 A 
ATOM      8  C   UNL     1       2.303   5.130  19.713  0.00  0.00    +0.000 A 
ATOM      9  C   UNL     1       1.751   8.704  19.151  0.00  0.00    +0.000 C 
ATOM     10  O   UNL     1       1.764   9.679  18.429  0.00  0.00    +0.000 OA
ENDROOT
BRANCH   1  15
ATOM     11  C   UNL     1      -1.133  11.414  21.079  0.00  0.00    +0.000 A 
ATOM     12  C   UNL     1      -1.172  11.358  22.479  0.00  0.00    +0.000 A 
ATOM     13  C   UNL     1      -0.550  10.322  23.197  0.00  0.00    +0.000 A 
ATOM     14  C   UNL     1       0.171   9.318  22.539  0.00  0.00    +0.000 A 
ATOM     15  C   UNL     1       0.297   9.367  21.159  0.00  0.00    +0.000 A 
ATOM     16  C   UNL     1      -0.397  10.387  20.464  0.00  0.00    +0.000 A 
BRANCH  11  17
ATOM     17  C   UNL     1      -1.857  12.555  20.190  0.00  0.00    +0.000 C 
ATOM     18  C   UNL     1      -0.951  13.239  19.127  0.00  0.00    +0.000 C 
ATOM     19  O   UNL     1      -1.112  14.538  19.722  0.00  0.00    +0.000 OA
ATOM     20  C   UNL     1      -1.940  14.000  20.773  0.00  0.00    +0.000 C 
BRANCH  17  21
ATOM     21  C   UNL     1      -3.196  12.051  19.605  0.00  0.00    +0.000 C 
BRANCH  21  27
ATOM     22  C   UNL     1      -5.428  12.237  17.358  0.00  0.00    +0.000 C 
ATOM     23  N   UNL     1      -4.120  11.654  17.243  0.00  0.00    +0.000 N 
ATOM     24  C   UNL     1      -3.647  11.020  16.134  0.00  0.00    +0.000 A 
ATOM     25  N   UNL     1      -2.428  10.594  16.360  0.00  0.00    +0.000 NA
ATOM     26  N   UNL     1      -2.095  10.954  17.641  0.00  0.00    +0.000 NA
ATOM     27  C   UNL     1      -3.123  11.590  18.179  0.00  0.00    +0.000 A 
ENDBRANCH  21  27
ENDBRANCH  17  21
ENDBRANCH  11  17
ENDBRANCH   1  15
BRANCH   8  28
ATOM     28  C   UNL     1       1.852   4.146  20.760  0.00  0.00    +0.000 C 
ATOM     29  F   UNL     1       0.504   4.094  20.914  0.00  0.00    +0.000 F 
ATOM     30  F   UNL     1       2.245   2.877  20.467  0.00  0.00    +0.000 F 
ATOM     31  F   UNL     1       2.357   4.431  21.989  0.00  0.00    +0.000 F 
ENDBRANCH   8  28
BRANCH   6  32
ATOM     32  C   UNL     1       4.616   5.062  16.711  0.00  0.00    +0.000 C 
BRANCH  32  33
ATOM     33  N   UNL     1       5.535   5.993  16.058  0.00  0.00    +0.000 NA
ATOM     34  C   UNL     1       6.410   5.345  15.072  0.00  0.00    +0.000 C 
ATOM     35  C   UNL     1       7.556   4.466  15.614  0.00  0.00    +0.000 C 
ATOM     36  O   UNL     1       7.971   4.612  16.965  0.00  0.00    +0.000 OA
ATOM     37  C   UNL     1       7.471   5.694  17.757  0.00  0.00    +0.000 C 
ATOM     38  C   UNL     1       6.446   6.617  17.049  0.00  0.00    +0.000 C 
BRANCH  37  39
ATOM     39  C   UNL     1       6.930   5.115  19.083  0.00  0.00    +0.000 C 
BRANCH  39  40
ATOM     40  O   UNL     1       7.764   5.481  20.186  0.00  0.00    +0.000 OA
ATOM     41  H   UNL     1       8.666   5.593  19.840  0.00  0.00    +0.000 HD
ENDBRANCH  39  40
ENDBRANCH  37  39
ENDBRANCH  32  33
ENDBRANCH   6  32
TORSDOF 9
ENDMDL
MODEL 4
REMARK VINA RESULT:      -9.9      1.929      3.163
REMARK  Name = 
REMARK  10 active torsions:
REMARK  status: ('A' for Active; 'I' for Inactive)
REMARK    1  A    between atoms: C_1  and  N_2
REMARK    2  A    between atoms: C_6  and  C_7
REMARK    3  A    between atoms: C_7  and  C_8
REMARK    4  A    between atoms: C_8  and  C_9
REMARK    5  A    between atoms: C_13  and  N_14
REMARK    6  A    between atoms: C_19  and  C_20
REMARK    7  A    between atoms: C_20  and  N_21
REMARK    8  A    between atoms: C_25  and  C_26
REMARK    9  A    between atoms: C_26  and  O_27
REMARK   10  A    between atoms: C_30  and  C_31
REMARK                            x       y       z     vdW  Elec       q    Type
REMARK                         _______ _______ _______ _____ _____    ______ ____
ROOT
ATOM      1  N   UNL     1       1.184   8.517  20.471  0.00  0.00    +0.000 N 
ATOM      2  C   UNL     1       1.392   7.173  20.960  0.00  0.00    +0.000 C 
ATOM      3  C   UNL     1       2.019   6.466  19.822  0.00  0.00    +0.000 A 
ATOM      4  C   UNL     1       2.341   7.369  18.807  0.00  0.00    +0.000 A 
ATOM      5  C   UNL     1       3.107   6.965  17.711  0.00  0.00    +0.000 A 
ATOM      6  C   UNL     1       3.494   5.606  17.634  0.00  0.00    +0.000 A 
ATOM      7  C   UNL     1       3.029   4.698  18.622  0.00  0.00    +0.000 A 
ATOM      8  C   UNL     1       2.297   5.114  19.737  0.00  0.00    +0.000 A 
ATOM      9  C   UNL     1       1.733   8.688  19.190  0.00  0.00    +0.000 C 
ATOM     10  O   UNL     1       1.735   9.665  18.469  0.00  0.00    +0.000 OA
ENDROOT
BRANCH   1  15
ATOM     11  C   UNL     1      -1.183  11.350  21.142  0.00  0.00    +0.000 A 
ATOM     12  C   UNL     1      -1.160  11.336  22.544  0.00  0.00    +0.000 A 
ATOM     13  C   UNL     1      -0.478  10.340  23.264  0.00  0.00    +0.000 A 
ATOM     14  C   UNL     1       0.242   9.336  22.604  0.00  0.00    +0.000 A 
ATOM     15  C   UNL     1       0.306   9.347  21.219  0.00  0.00    +0.000 A 
ATOM     16  C   UNL     1      -0.446  10.326  20.525  0.00  0.00    +0.000 A 
BRANCH  11  17
ATOM     17  C   UNL     1      -1.977  12.444  20.253  0.00  0.00    +0.000 C 
ATOM     18  C   UNL     1      -3.453  12.694  20.676  0.00  0.00    +0.000 C 
ATOM     19  O   UNL     1      -3.964  12.265  19.401  0.00  0.00    +0.000 OA
ATOM     20  C   UNL     1      -2.637  11.971  18.921  0.00  0.00    +0.000 C 
BRANCH  17  21
ATOM     21  C   UNL     1      -1.164  13.751  20.107  0.00  0.00    +0.000 C 
BRANCH  21  27
ATOM     22  C   UNL     1       1.518  14.458  21.647  0.00  0.00    +0.000 C 
ATOM     23  N   UNL     1       1.388  13.910  20.325  0.00  0.00    +0.000 N 
ATOM     24  C   UNL     1       2.430  13.660  19.483  0.00  0.00    +0.000 A 
ATOM     25  N   UNL     1       1.972  13.176  18.354  0.00  0.00    +0.000 NA
ATOM     26  N   UNL     1       0.605  13.109  18.456  0.00  0.00    +0.000 NA
ATOM     27  C   UNL     1       0.251  13.561  19.648  0.00  0.00    +0.000 A 
ENDBRANCH  21  27
ENDBRANCH  17  21
ENDBRANCH  11  17
ENDBRANCH   1  15
BRANCH   8  28
ATOM     28  C   UNL     1       1.861   4.128  20.787  0.00  0.00    +0.000 C 
ATOM     29  F   UNL     1       0.514   4.052  20.940  0.00  0.00    +0.000 F 
ATOM     30  F   UNL     1       2.277   2.865  20.502  0.00  0.00    +0.000 F 
ATOM     31  F   UNL     1       2.359   4.427  22.016  0.00  0.00    +0.000 F 
ENDBRANCH   8  28
BRANCH   6  32
ATOM     32  C   UNL     1       4.568   5.055  16.703  0.00  0.00    +0.000 C 
BRANCH  32  33
ATOM     33  N   UNL     1       5.477   5.988  16.039  0.00  0.00    +0.000 NA
ATOM     34  C   UNL     1       6.399   5.329  15.104  0.00  0.00    +0.000 C 
ATOM     35  C   UNL     1       7.554   4.508  15.711  0.00  0.00    +0.000 C 
ATOM     36  O   UNL     1       7.926   4.719  17.066  0.00  0.00    +0.000 OA
ATOM     37  C   UNL     1       7.371   5.816  17.800  0.00  0.00    +0.000 C 
ATOM     38  C   UNL     1       6.339   6.678  17.028  0.00  0.00    +0.000 C 
BRANCH  37  39
ATOM     39  C   UNL     1       6.810   5.271  19.133  0.00  0.00    +0.000 C 
BRANCH  39  40
ATOM     40  O   UNL     1       7.728   5.491  20.208  0.00  0.00    +0.000 OA
ATOM     41  H   UNL     1       7.346   5.079  21.002  0.00  0.00    +0.000 HD
ENDBRANCH  39  40
ENDBRANCH  37  39
ENDBRANCH  32  33
ENDBRANCH   6  32
TORSDOF 9
ENDMDL
MODEL 5
REMARK VINA RESULT:      -9.8      2.177      3.296
REMARK  Name = 
REMARK  10 active torsions:
REMARK  status: ('A' for Active; 'I' for Inactive)
REMARK    1  A    between atoms: C_1  and  N_2
REMARK    2  A    between atoms: C_6  and  C_7
REMARK    3  A    between atoms: C_7  and  C_8
REMARK    4  A    between atoms: C_8  and  C_9
REMARK    5  A    between atoms: C_13  and  N_14
REMARK    6  A    between atoms: C_19  and  C_20
REMARK    7  A    between atoms: C_20  and  N_21
REMARK    8  A    between atoms: C_25  and  C_26
REMARK    9  A    between atoms: C_26  and  O_27
REMARK   10  A    between atoms: C_30  and  C_31
REMARK                            x       y       z     vdW  Elec       q    Type
REMARK                         _______ _______ _______ _____ _____    ______ ____
ROOT
ATOM      1  N   UNL     1       1.151   8.633  20.457  0.00  0.00    +0.000 N 
ATOM      2  C   UNL     1       1.370   7.285  20.932  0.00  0.00    +0.000 C 
ATOM      3  C   UNL     1       2.004   6.597  19.786  0.00  0.00    +0.000 A 
ATOM      4  C   UNL     1       2.320   7.514  18.782  0.00  0.00    +0.000 A 
ATOM      5  C   UNL     1       3.090   7.129  17.682  0.00  0.00    +0.000 A 
ATOM      6  C   UNL     1       3.489   5.774  17.590  0.00  0.00    +0.000 A 
ATOM      7  C   UNL     1       3.031   4.851  18.567  0.00  0.00    +0.000 A 
ATOM      8  C   UNL     1       2.294   5.248  19.686  0.00  0.00    +0.000 A 
ATOM      9  C   UNL     1       1.700   8.823  19.179  0.00  0.00    +0.000 C 
ATOM     10  O   UNL     1       1.694   9.808  18.469  0.00  0.00    +0.000 OA
ENDROOT
BRANCH   1  15
ATOM     11  C   UNL     1      -1.037  11.577  21.248  0.00  0.00    +0.000 A 
ATOM     12  C   UNL     1      -1.174  11.392  22.631  0.00  0.00    +0.000 A 
ATOM     13  C   UNL     1      -0.661  10.255  23.280  0.00  0.00    +0.000 A 
ATOM     14  C   UNL     1       0.045   9.275  22.572  0.00  0.00    +0.000 A 
ATOM     15  C   UNL     1       0.265   9.446  21.214  0.00  0.00    +0.000 A 
ATOM     16  C   UNL     1      -0.322  10.568  20.581  0.00  0.00    +0.000 A 
BRANCH  11  17
ATOM     17  C   UNL     1      -1.634  12.840  20.433  0.00  0.00    +0.000 C 
ATOM     18  C   UNL     1      -1.769  14.153  21.255  0.00  0.00    +0.000 C 
ATOM     19  O   UNL     1      -3.194  14.207  21.069  0.00  0.00    +0.000 OA
ATOM     20  C   UNL     1      -3.184  12.977  20.317  0.00  0.00    +0.000 C 
BRANCH  17  21
ATOM     21  C   UNL     1      -0.897  13.045  19.089  0.00  0.00    +0.000 C 
BRANCH  21  27
ATOM     22  C   UNL     1       2.121  13.188  20.058  0.00  0.00    +0.000 C 
ATOM     23  N   UNL     1       1.326  14.255  19.518  0.00  0.00    +0.000 N 
ATOM     24  C   UNL     1       1.742  15.546  19.392  0.00  0.00    +0.000 A 
ATOM     25  N   UNL     1       0.777  16.269  18.878  0.00  0.00    +0.000 NA
ATOM     26  N   UNL     1      -0.293  15.437  18.663  0.00  0.00    +0.000 NA
ATOM     27  C   UNL     1       0.036  14.218  19.059  0.00  0.00    +0.000 A 
ENDBRANCH  21  27
ENDBRANCH  17  21
ENDBRANCH  11  17
ENDBRANCH   1  15
BRANCH   8  28
ATOM     28  C   UNL     1       1.866   4.246  20.724  0.00  0.00    +0.000 C 
ATOM     29  F   UNL     1       2.264   2.976  20.455  0.00  0.00    +0.000 F 
ATOM     30  F   UNL     1       2.368   4.543  21.954  0.00  0.00    +0.000 F 
ATOM     31  F   UNL     1       0.515   4.192  20.865  0.00  0.00    +0.000 F 
ENDBRANCH   8  28
BRANCH   6  32
ATOM     32  C   UNL     1       4.568   5.243  16.653  0.00  0.00    +0.000 C 
BRANCH  32  33
ATOM     33  N   UNL     1       5.504   6.186  16.044  0.00  0.00    +0.000 NA
ATOM     34  C   UNL     1       6.417   5.554  15.082  0.00  0.00    +0.000 C 
ATOM     35  C   UNL     1       7.548   4.676  15.653  0.00  0.00    +0.000 C 
ATOM     36  O   UNL     1       7.915   4.809  17.020  0.00  0.00    +0.000 OA
ATOM     37  C   UNL     1       7.380   5.880  17.806  0.00  0.00    +0.000 C 
ATOM     38  C   UNL     1       6.375   6.805  17.072  0.00  0.00    +0.000 C 
BRANCH  37  39
ATOM     39  C   UNL     1       6.796   5.282  19.106  0.00  0.00    +0.000 C 
BRANCH  39  40
ATOM     40  O   UNL     1       7.675   5.498  20.214  0.00  0.00    +0.000 OA
ATOM     41  H   UNL     1       8.064   4.637  20.445  0.00  0.00    +0.000 HD
ENDBRANCH  39  40
ENDBRANCH  37  39
ENDBRANCH  32  33
ENDBRANCH   6  32
TORSDOF 9
ENDMDL
MODEL 6
REMARK VINA RESULT:      -9.8      1.665      2.486
REMARK  Name = 
REMARK  10 active torsions:
REMARK  status: ('A' for Active; 'I' for Inactive)
REMARK    1  A    between atoms: C_1  and  N_2
REMARK    2  A    between atoms: C_6  and  C_7
REMARK    3  A    between atoms: C_7  and  C_8
REMARK    4  A    between atoms: C_8  and  C_9
REMARK    5  A    between atoms: C_13  and  N_14
REMARK    6  A    between atoms: C_19  and  C_20
REMARK    7  A    between atoms: C_20  and  N_21
REMARK    8  A    between atoms: C_25  and  C_26
REMARK    9  A    between atoms: C_26  and  O_27
REMARK   10  A    between atoms: C_30  and  C_31
REMARK                            x       y       z     vdW  Elec       q    Type
REMARK                         _______ _______ _______ _____ _____    ______ ____
ROOT
ATOM      1  N   UNL     1       1.264   8.629  20.448  0.00  0.00    +0.000 N 
ATOM      2  C   UNL     1       1.482   7.288  20.943  0.00  0.00    +0.000 C 
ATOM      3  C   UNL     1       2.053   6.564  19.787  0.00  0.00    +0.000 A 
ATOM      4  C   UNL     1       2.340   7.454  18.750  0.00  0.00    +0.000 A 
ATOM      5  C   UNL     1       3.055   7.031  17.626  0.00  0.00    +0.000 A 
ATOM      6  C   UNL     1       3.428   5.669  17.548  0.00  0.00    +0.000 A 
ATOM      7  C   UNL     1       2.998   4.775  18.565  0.00  0.00    +0.000 A 
ATOM      8  C   UNL     1       2.317   5.209  19.705  0.00  0.00    +0.000 A 
ATOM      9  C   UNL     1       1.759   8.782  19.143  0.00  0.00    +0.000 C 
ATOM     10  O   UNL     1       1.738   9.751  18.412  0.00  0.00    +0.000 OA
ENDROOT
BRANCH   1  15
ATOM     11  C   UNL     1      -0.170  11.839  21.760  0.00  0.00    +0.000 A 
ATOM     12  C   UNL     1      -0.833  11.345  22.891  0.00  0.00    +0.000 A 
ATOM     13  C   UNL     1      -0.916   9.967  23.158  0.00  0.00    +0.000 A 
ATOM     14  C   UNL     1      -0.301   9.030  22.319  0.00  0.00    +0.000 A 
ATOM     15  C   UNL     1       0.425   9.474  21.224  0.00  0.00    +0.000 A 
ATOM     16  C   UNL     1       0.432  10.863  20.949  0.00  0.00    +0.000 A 
BRANCH  11  17
ATOM     17  C   UNL     1      -0.069  13.407  21.374  0.00  0.00    +0.000 C 
ATOM     18  C   UNL     1       1.363  14.012  21.433  0.00  0.00    +0.000 C 
ATOM     19  O   UNL     1       0.994  14.967  22.443  0.00  0.00    +0.000 OA
ATOM     20  C   UNL     1      -0.355  14.461  22.488  0.00  0.00    +0.000 C 
BRANCH  17  21
ATOM     21  C   UNL     1      -0.794  13.709  20.042  0.00  0.00    +0.000 C 
BRANCH  21  27
ATOM     22  C   UNL     1      -1.734  11.497  17.969  0.00  0.00    +0.000 C 
ATOM     23  N   UNL     1      -2.528  12.145  18.975  0.00  0.00    +0.000 N 
ATOM     24  C   UNL     1      -3.864  11.945  19.158  0.00  0.00    +0.000 A 
ATOM     25  N   UNL     1      -4.287  12.695  20.146  0.00  0.00    +0.000 NA
ATOM     26  N   UNL     1      -3.210  13.401  20.621  0.00  0.00    +0.000 NA
ATOM     27  C   UNL     1      -2.146  13.074  19.906  0.00  0.00    +0.000 A 
ENDBRANCH  21  27
ENDBRANCH  17  21
ENDBRANCH  11  17
ENDBRANCH   1  15
BRANCH   8  28
ATOM     28  C   UNL     1       1.919   4.238  20.784  0.00  0.00    +0.000 C 
ATOM     29  F   UNL     1       2.407   4.554  22.011  0.00  0.00    +0.000 F 
ATOM     30  F   UNL     1       0.568   4.162  20.926  0.00  0.00    +0.000 F 
ATOM     31  F   UNL     1       2.349   2.975  20.526  0.00  0.00    +0.000 F 
ENDBRANCH   8  28
BRANCH   6  32
ATOM     32  C   UNL     1       4.456   5.099  16.578  0.00  0.00    +0.000 C 
BRANCH  32  33
ATOM     33  N   UNL     1       5.325   6.018  15.846  0.00  0.00    +0.000 NA
ATOM     34  C   UNL     1       6.136   5.352  14.818  0.00  0.00    +0.000 C 
ATOM     35  C   UNL     1       7.319   4.489  15.300  0.00  0.00    +0.000 C 
ATOM     36  O   UNL     1       7.823   4.664  16.618  0.00  0.00    +0.000 OA
ATOM     37  C   UNL     1       7.371   5.762  17.418  0.00  0.00    +0.000 C 
ATOM     38  C   UNL     1       6.297   6.666  16.761  0.00  0.00    +0.000 C 
BRANCH  37  39
ATOM     39  C   UNL     1       6.921   5.209  18.790  0.00  0.00    +0.000 C 
BRANCH  39  40
ATOM     40  O   UNL     1       6.424   3.873  18.670  0.00  0.00    +0.000 OA
ATOM     41  H   UNL     1       6.727   3.528  17.812  0.00  0.00    +0.000 HD
ENDBRANCH  39  40
ENDBRANCH  37  39
ENDBRANCH  32  33
ENDBRANCH   6  32
TORSDOF 9
ENDMDL
MODEL 7
REMARK VINA RESULT:      -9.8      1.739      2.726
REMARK  Name = 
REMARK  10 active torsions:
REMARK  status: ('A' for Active; 'I' for Inactive)
REMARK    1  A    between atoms: C_1  and  N_2
REMARK    2  A    between atoms: C_6  and  C_7
REMARK    3  A    between atoms: C_7  and  C_8
REMARK    4  A    between atoms: C_8  and  C_9
REMARK    5  A    between atoms: C_13  and  N_14
REMARK    6  A    between atoms: C_19  and  C_20
REMARK    7  A    between atoms: C_20  and  N_21
REMARK    8  A    between atoms: C_25  and  C_26
REMARK    9  A    between atoms: C_26  and  O_27
REMARK   10  A    between atoms: C_30  and  C_31
REMARK                            x       y       z     vdW  Elec       q    Type
REMARK                         _______ _______ _______ _____ _____    ______ ____
ROOT
ATOM      1  N   UNL     1       1.402   8.255  20.290  0.00  0.00    +0.000 N 
ATOM      2  C   UNL     1       1.537   6.935  20.864  0.00  0.00    +0.000 C 
ATOM      3  C   UNL     1       2.210   6.148  19.807  0.00  0.00    +0.000 A 
ATOM      4  C   UNL     1       2.622   6.983  18.767  0.00  0.00    +0.000 A 
ATOM      5  C   UNL     1       3.440   6.496  17.745  0.00  0.00    +0.000 A 
ATOM      6  C   UNL     1       3.788   5.124  17.767  0.00  0.00    +0.000 A 
ATOM      7  C   UNL     1       3.235   4.287  18.771  0.00  0.00    +0.000 A 
ATOM      8  C   UNL     1       2.450   4.786  19.813  0.00  0.00    +0.000 A 
ATOM      9  C   UNL     1       2.034   8.338  19.038  0.00  0.00    +0.000 C 
ATOM     10  O   UNL     1       2.110   9.272  18.267  0.00  0.00    +0.000 OA
ENDROOT
BRANCH   1  15
ATOM     11  C   UNL     1      -0.936  11.168  20.648  0.00  0.00    +0.000 A 
ATOM     12  C   UNL     1      -0.980  11.251  22.046  0.00  0.00    +0.000 A 
ATOM     13  C   UNL     1      -0.354  10.296  22.865  0.00  0.00    +0.000 A 
ATOM     14  C   UNL     1       0.376   9.237  22.312  0.00  0.00    +0.000 A 
ATOM     15  C   UNL     1       0.507   9.149  20.935  0.00  0.00    +0.000 A 
ATOM     16  C   UNL     1      -0.191  10.090  20.139  0.00  0.00    +0.000 A 
BRANCH  11  17
ATOM     17  C   UNL     1      -1.664  12.210  19.648  0.00  0.00    +0.000 C 
ATOM     18  C   UNL     1      -3.205  12.323  19.818  0.00  0.00    +0.000 C 
ATOM     19  O   UNL     1      -3.458  11.883  18.472  0.00  0.00    +0.000 OA
ATOM     20  C   UNL     1      -2.048  11.715  18.219  0.00  0.00    +0.000 C 
BRANCH  17  21
ATOM     21  C   UNL     1      -0.956  13.585  19.651  0.00  0.00    +0.000 C 
BRANCH  21  27
ATOM     22  C   UNL     1       1.306  14.557  21.653  0.00  0.00    +0.000 C 
ATOM     23  N   UNL     1       1.482  13.987  20.346  0.00  0.00    +0.000 N 
ATOM     24  C   UNL     1       2.684  13.827  19.725  0.00  0.00    +0.000 A 
ATOM     25  N   UNL     1       2.497  13.291  18.544  0.00  0.00    +0.000 NA
ATOM     26  N   UNL     1       1.148  13.096  18.386  0.00  0.00    +0.000 NA
ATOM     27  C   UNL     1       0.532  13.525  19.475  0.00  0.00    +0.000 A 
ENDBRANCH  21  27
ENDBRANCH  17  21
ENDBRANCH  11  17
ENDBRANCH   1  15
BRANCH   8  28
ATOM     28  C   UNL     1       1.920   3.873  20.887  0.00  0.00    +0.000 C 
ATOM     29  F   UNL     1       0.565   3.868  20.980  0.00  0.00    +0.000 F 
ATOM     30  F   UNL     1       2.285   2.579  20.679  0.00  0.00    +0.000 F 
ATOM     31  F   UNL     1       2.377   4.207  22.122  0.00  0.00    +0.000 F 
ENDBRANCH   8  28
BRANCH   6  32
ATOM     32  C   UNL     1       4.899   4.492  16.936  0.00  0.00    +0.000 C 
BRANCH  32  33
ATOM     33  N   UNL     1       6.226   4.335  17.529  0.00  0.00    +0.000 NA
ATOM     34  C   UNL     1       6.731   5.568  18.149  0.00  0.00    +0.000 C 
ATOM     35  C   UNL     1       7.196   6.694  17.205  0.00  0.00    +0.000 C 
ATOM     36  O   UNL     1       7.492   6.394  15.848  0.00  0.00    +0.000 OA
ATOM     37  C   UNL     1       7.550   5.032  15.412  0.00  0.00    +0.000 C 
ATOM     38  C   UNL     1       7.226   3.971  16.496  0.00  0.00    +0.000 C 
BRANCH  37  39
ATOM     39  C   UNL     1       6.659   4.887  14.156  0.00  0.00    +0.000 C 
BRANCH  39  40
ATOM     40  O   UNL     1       6.383   3.513  13.875  0.00  0.00    +0.000 OA
ATOM     41  H   UNL     1       6.602   3.004  14.674  0.00  0.00    +0.000 HD
ENDBRANCH  39  40
ENDBRANCH  37  39
ENDBRANCH  32  33
ENDBRANCH   6  32
TORSDOF 9
ENDMDL
MODEL 8
REMARK VINA RESULT:      -9.7      2.140      2.987
REMARK  Name = 
REMARK  10 active torsions:
REMARK  status: ('A' for Active; 'I' for Inactive)
REMARK    1  A    between atoms: C_1  and  N_2
REMARK    2  A    between atoms: C_6  and  C_7
REMARK    3  A    between atoms: C_7  and  C_8
REMARK    4  A    between atoms: C_8  and  C_9
REMARK    5  A    between atoms: C_13  and  N_14
REMARK    6  A    between atoms: C_19  and  C_20
REMARK    7  A    between atoms: C_20  and  N_21
REMARK    8  A    between atoms: C_25  and  C_26
REMARK    9  A    between atoms: C_26  and  O_27
REMARK   10  A    between atoms: C_30  and  C_31
REMARK                            x       y       z     vdW  Elec       q    Type
REMARK                         _______ _______ _______ _____ _____    ______ ____
ROOT
ATOM      1  N   UNL     1       1.151   8.596  20.523  0.00  0.00    +0.000 N 
ATOM      2  C   UNL     1       1.358   7.243  20.990  0.00  0.00    +0.000 C 
ATOM      3  C   UNL     1       1.983   6.555  19.839  0.00  0.00    +0.000 A 
ATOM      4  C   UNL     1       2.307   7.475  18.840  0.00  0.00    +0.000 A 
ATOM      5  C   UNL     1       3.072   7.089  17.737  0.00  0.00    +0.000 A 
ATOM      6  C   UNL     1       3.458   5.731  17.637  0.00  0.00    +0.000 A 
ATOM      7  C   UNL     1       2.992   4.807  18.610  0.00  0.00    +0.000 A 
ATOM      8  C   UNL     1       2.260   5.205  19.731  0.00  0.00    +0.000 A 
ATOM      9  C   UNL     1       1.700   8.788  19.245  0.00  0.00    +0.000 C 
ATOM     10  O   UNL     1       1.702   9.777  18.541  0.00  0.00    +0.000 OA
ENDROOT
BRANCH   1  15
ATOM     11  C   UNL     1      -1.041  11.536  21.317  0.00  0.00    +0.000 A 
ATOM     12  C   UNL     1      -1.152  11.368  22.704  0.00  0.00    +0.000 A 
ATOM     13  C   UNL     1      -0.621  10.243  23.358  0.00  0.00    +0.000 A 
ATOM     14  C   UNL     1       0.078   9.258  22.650  0.00  0.00    +0.000 A 
ATOM     15  C   UNL     1       0.273   9.413  21.286  0.00  0.00    +0.000 A 
ATOM     16  C   UNL     1      -0.331  10.524  20.649  0.00  0.00    +0.000 A 
BRANCH  11  17
ATOM     17  C   UNL     1      -1.660  12.786  20.497  0.00  0.00    +0.000 C 
ATOM     18  C   UNL     1      -0.831  13.244  19.264  0.00  0.00    +0.000 C 
ATOM     19  O   UNL     1      -0.620  14.560  19.805  0.00  0.00    +0.000 OA
ATOM     20  C   UNL     1      -1.347  14.228  21.005  0.00  0.00    +0.000 C 
BRANCH  17  21
ATOM     21  C   UNL     1      -3.154  12.561  20.168  0.00  0.00    +0.000 C 
BRANCH  21  27
ATOM     22  C   UNL     1      -4.875  15.210  20.473  0.00  0.00    +0.000 C 
ATOM     23  N   UNL     1      -4.804  14.104  21.387  0.00  0.00    +0.000 N 
ATOM     24  C   UNL     1      -5.440  14.050  22.591  0.00  0.00    +0.000 A 
ATOM     25  N   UNL     1      -5.160  12.915  23.183  0.00  0.00    +0.000 NA
ATOM     26  N   UNL     1      -4.324  12.210  22.353  0.00  0.00    +0.000 NA
ATOM     27  C   UNL     1      -4.102  12.934  21.268  0.00  0.00    +0.000 A 
ENDBRANCH  21  27
ENDBRANCH  17  21
ENDBRANCH  11  17
ENDBRANCH   1  15
BRANCH   8  28
ATOM     28  C   UNL     1       1.824   4.201  20.765  0.00  0.00    +0.000 C 
ATOM     29  F   UNL     1       2.181   2.925  20.471  0.00  0.00    +0.000 F 
ATOM     30  F   UNL     1       2.358   4.467  21.988  0.00  0.00    +0.000 F 
ATOM     31  F   UNL     1       0.476   4.182  20.931  0.00  0.00    +0.000 F 
ENDBRANCH   8  28
BRANCH   6  32
ATOM     32  C   UNL     1       4.531   5.195  16.696  0.00  0.00    +0.000 C 
BRANCH  32  33
ATOM     33  N   UNL     1       5.448   6.138  16.058  0.00  0.00    +0.000 NA
ATOM     34  C   UNL     1       6.331   5.505  15.069  0.00  0.00    +0.000 C 
ATOM     35  C   UNL     1       7.478   4.626  15.606  0.00  0.00    +0.000 C 
ATOM     36  O   UNL     1       7.887   4.759  16.961  0.00  0.00    +0.000 OA
ATOM     37  C   UNL     1       7.378   5.831  17.761  0.00  0.00    +0.000 C 
ATOM     38  C   UNL     1       6.351   6.756  17.059  0.00  0.00    +0.000 C 
BRANCH  37  39
ATOM     39  C   UNL     1       6.833   5.234  19.079  0.00  0.00    +0.000 C 
BRANCH  39  40
ATOM     40  O   UNL     1       7.714   5.507  20.173  0.00  0.00    +0.000 OA
ATOM     41  H   UNL     1       8.367   6.156  19.861  0.00  0.00    +0.000 HD
ENDBRANCH  39  40
ENDBRANCH  37  39
ENDBRANCH  32  33
ENDBRANCH   6  32
TORSDOF 9
ENDMDL
MODEL 9
REMARK VINA RESULT:      -9.7      0.808      1.383
REMARK  Name = 
REMARK  10 active torsions:
REMARK  status: ('A' for Active; 'I' for Inactive)
REMARK    1  A    between atoms: C_1  and  N_2
REMARK    2  A    between atoms: C_6  and  C_7
REMARK    3  A    between atoms: C_7  and  C_8
REMARK    4  A    between atoms: C_8  and  C_9
REMARK    5  A    between atoms: C_13  and  N_14
REMARK    6  A    between atoms: C_19  and  C_20
REMARK    7  A    between atoms: C_20  and  N_21
REMARK    8  A    between atoms: C_25  and  C_26
REMARK    9  A    between atoms: C_26  and  O_27
REMARK   10  A    between atoms: C_30  and  C_31
REMARK                            x       y       z     vdW  Elec       q    Type
REMARK                         _______ _______ _______ _____ _____    ______ ____
ROOT
ATOM      1  N   UNL     1       1.331   8.306  20.354  0.00  0.00    +0.000 N 
ATOM      2  C   UNL     1       1.481   6.972  20.892  0.00  0.00    +0.000 C 
ATOM      3  C   UNL     1       2.146   6.217  19.808  0.00  0.00    +0.000 A 
ATOM      4  C   UNL     1       2.541   7.082  18.785  0.00  0.00    +0.000 A 
ATOM      5  C   UNL     1       3.351   6.627  17.742  0.00  0.00    +0.000 A 
ATOM      6  C   UNL     1       3.708   5.257  17.724  0.00  0.00    +0.000 A 
ATOM      7  C   UNL     1       3.171   4.391  18.713  0.00  0.00    +0.000 A 
ATOM      8  C   UNL     1       2.394   4.857  19.776  0.00  0.00    +0.000 A 
ATOM      9  C   UNL     1       1.947   8.425  19.098  0.00  0.00    +0.000 C 
ATOM     10  O   UNL     1       2.009   9.380  18.351  0.00  0.00    +0.000 OA
ENDROOT
BRANCH   1  15
ATOM     11  C   UNL     1      -0.602  11.448  21.038  0.00  0.00    +0.000 A 
ATOM     12  C   UNL     1      -0.972  11.201  22.367  0.00  0.00    +0.000 A 
ATOM     13  C   UNL     1      -0.700   9.974  22.996  0.00  0.00    +0.000 A 
ATOM     14  C   UNL     1      -0.010   8.956  22.326  0.00  0.00    +0.000 A 
ATOM     15  C   UNL     1       0.437   9.177  21.032  0.00  0.00    +0.000 A 
ATOM     16  C   UNL     1       0.088  10.400  20.408  0.00  0.00    +0.000 A 
BRANCH  11  17
ATOM     17  C   UNL     1      -0.916  12.822  20.244  0.00  0.00    +0.000 C 
ATOM     18  C   UNL     1       0.154  13.938  20.404  0.00  0.00    +0.000 C 
ATOM     19  O   UNL     1      -0.783  14.850  21.003  0.00  0.00    +0.000 OA
ATOM     20  C   UNL     1      -1.842  13.875  20.929  0.00  0.00    +0.000 C 
BRANCH  17  21
ATOM     21  C   UNL     1      -1.284  12.549  18.767  0.00  0.00    +0.000 C 
BRANCH  21  27
ATOM     22  C   UNL     1      -1.755   9.892  17.099  0.00  0.00    +0.000 C 
ATOM     23  N   UNL     1      -2.737  10.661  17.812  0.00  0.00    +0.000 N 
ATOM     24  C   UNL     1      -4.072  10.389  17.831  0.00  0.00    +0.000 A 
ATOM     25  N   UNL     1      -4.690  11.286  18.561  0.00  0.00    +0.000 NA
ATOM     26  N   UNL     1      -3.744  12.162  19.029  0.00  0.00    +0.000 NA
ATOM     27  C   UNL     1      -2.561  11.788  18.569  0.00  0.00    +0.000 A 
ENDBRANCH  21  27
ENDBRANCH  17  21
ENDBRANCH  11  17
ENDBRANCH   1  15
BRANCH   8  28
ATOM     28  C   UNL     1       1.882   3.913  20.832  0.00  0.00    +0.000 C 
ATOM     29  F   UNL     1       2.227   2.618  20.619  0.00  0.00    +0.000 F 
ATOM     30  F   UNL     1       2.355   4.228  22.068  0.00  0.00    +0.000 F 
ATOM     31  F   UNL     1       0.526   3.928  20.924  0.00  0.00    +0.000 F 
ENDBRANCH   8  28
BRANCH   6  32
ATOM     32  C   UNL     1       4.812   4.654  16.865  0.00  0.00    +0.000 C 
BRANCH  32  33
ATOM     33  N   UNL     1       6.110   4.369  17.476  0.00  0.00    +0.000 NA
ATOM     34  C   UNL     1       6.717   5.543  18.117  0.00  0.00    +0.000 C 
ATOM     35  C   UNL     1       7.300   6.630  17.193  0.00  0.00    +0.000 C 
ATOM     36  O   UNL     1       7.589   6.316  15.837  0.00  0.00    +0.000 OA
ATOM     37  C   UNL     1       7.526   4.958  15.387  0.00  0.00    +0.000 C 
ATOM     38  C   UNL     1       7.088   3.923  16.454  0.00  0.00    +0.000 C 
BRANCH  37  39
ATOM     39  C   UNL     1       6.647   4.909  14.117  0.00  0.00    +0.000 C 
BRANCH  39  40
ATOM     40  O   UNL     1       6.287   3.564  13.789  0.00  0.00    +0.000 OA
ATOM     41  H   UNL     1       7.101   3.106  13.518  0.00  0.00    +0.000 HD
ENDBRANCH  39  40
ENDBRANCH  37  39
ENDBRANCH  32  33
ENDBRANCH   6  32
TORSDOF 9
ENDMDL
