MODEL 1
REMARK VINA RESULT:      -9.0      0.000      0.000
REMARK  Name = 
REMARK  4 active torsions:
REMARK  status: ('A' for Active; 'I' for Inactive)
REMARK    1  A    between atoms: C_1  and  N_2
REMARK    2  A    between atoms: C_6  and  C_7
REMARK    3  A    between atoms: C_9  and  C_10
REMARK    4  A    between atoms: C_14  and  N_15
REMARK                            x       y       z     vdW  Elec       q    Type
REMARK                         _______ _______ _______ _____ _____    ______ ____
ROOT
ATOM      1  C   UNL     1       4.879   4.979  19.257  0.00  0.00    +0.000 A 
ATOM      2  C   UNL     1       4.138   3.780  19.359  0.00  0.00    +0.000 A 
ATOM      3  C   UNL     1       2.752   3.766  19.557  0.00  0.00    +0.000 A 
ATOM      4  C   UNL     1       2.053   4.962  19.670  0.00  0.00    +0.000 A 
ATOM      5  C   UNL     1       2.742   6.164  19.578  0.00  0.00    +0.000 A 
ATOM      6  C   UNL     1       4.134   6.158  19.363  0.00  0.00    +0.000 A 
ENDROOT
BRANCH   5   7
ATOM      7  N   UNL     1       2.137   7.422  19.682  0.00  0.00    +0.000 N 
ATOM      8  C   UNL     1       1.965   8.411  18.745  0.00  0.00    +0.000 C 
ATOM      9  O   UNL     1       2.332   8.328  17.572  0.00  0.00    +0.000 OA
ATOM     10  N   UNL     1       1.353   9.576  19.226  0.00  0.00    +0.000 N 
ATOM     11  C   UNL     1       1.125  10.680  18.301  0.00  0.00    +0.000 C 
ATOM     12  C   UNL     1       1.206  12.015  19.024  0.00  0.00    +0.000 C 
ATOM     13  O   UNL     1       0.240  12.105  20.076  0.00  0.00    +0.000 OA
ATOM     14  C   UNL     1       0.222  10.984  20.867  0.00  0.00    +0.000 A 
ATOM     15  C   UNL     1      -0.415  11.112  22.099  0.00  0.00    +0.000 A 
ATOM     16  C   UNL     1      -0.484  10.017  22.955  0.00  0.00    +0.000 A 
ATOM     17  C   UNL     1       0.100   8.838  22.542  0.00  0.00    +0.000 A 
ATOM     18  N   UNL     1       0.729   8.688  21.357  0.00  0.00    +0.000 NA
ATOM     19  C   UNL     1       0.771   9.746  20.512  0.00  0.00    +0.000 A 
ATOM     20  H   UNL     1       1.664   7.610  20.564  0.00  0.00    +0.000 HD
ENDBRANCH   5   7
BRANCH   1  23
ATOM     21  C   UNL     1       7.238   4.772  17.828  0.00  0.00    +0.000 C 
ATOM     22  C   UNL     1       7.146   6.084  18.597  0.00  0.00    +0.000 C 
ATOM     23  C   UNL     1       6.383   4.896  19.074  0.00  0.00    +0.000 C 
BRANCH  21  29
ATOM     24  C   UNL     1       4.936   3.303  16.210  0.00  0.00    +0.000 C 
ATOM     25  N   UNL     1       5.917   4.208  15.677  0.00  0.00    +0.000 N 
ATOM     26  C   UNL     1       6.067   4.506  14.357  0.00  0.00    +0.000 A 
ATOM     27  N   UNL     1       7.064   5.342  14.212  0.00  0.00    +0.000 NA
ATOM     28  N   UNL     1       7.580   5.597  15.461  0.00  0.00    +0.000 NA
ATOM     29  C   UNL     1       6.894   4.904  16.347  0.00  0.00    +0.000 A 
ENDBRANCH  21  29
ENDBRANCH   1  23
TORSDOF 3
ENDMDL
MODEL 2
REMARK VINA RESULT:      -8.3      1.275      2.167
REMARK  Name = 
REMARK  4 active torsions:
REMARK  status: ('A' for Active; 'I' for Inactive)
REMARK    1  A    between atoms: C_1  and  N_2
REMARK    2  A    between atoms: C_6  and  C_7
REMARK    3  A    between atoms: C_9  and  C_10
REMARK    4  A    between atoms: C_14  and  N_15
REMARK                            x       y       z     vdW  Elec       q    Type
REMARK                         _______ _______ _______ _____ _____    ______ ____
ROOT
ATOM      1  C   UNL     1       2.490   4.359  18.749  0.00  0.00    +0.000 A 
ATOM      2  C   UNL     1       2.497   3.572  19.922  0.00  0.00    +0.000 A 
ATOM      3  C   UNL     1       2.160   4.089  21.178  0.00  0.00    +0.000 A 
ATOM      4  C   UNL     1       1.812   5.428  21.309  0.00  0.00    +0.000 A 
ATOM      5  C   UNL     1       1.795   6.240  20.183  0.00  0.00    +0.000 A 
ATOM      6  C   UNL     1       2.121   5.696  18.924  0.00  0.00    +0.000 A 
ENDROOT
BRANCH   5   7
ATOM      7  N   UNL     1       1.464   7.599  20.203  0.00  0.00    +0.000 N 
ATOM      8  C   UNL     1       1.642   8.577  19.254  0.00  0.00    +0.000 C 
ATOM      9  O   UNL     1       2.147   8.386  18.147  0.00  0.00    +0.000 OA
ATOM     10  N   UNL     1       1.230   9.857  19.646  0.00  0.00    +0.000 N 
ATOM     11  C   UNL     1       1.377  10.959  18.702  0.00  0.00    +0.000 C 
ATOM     12  C   UNL     1       1.635  12.266  19.434  0.00  0.00    +0.000 C 
ATOM     13  O   UNL     1       0.570  12.586  20.336  0.00  0.00    +0.000 OA
ATOM     14  C   UNL     1       0.202  11.516  21.110  0.00  0.00    +0.000 A 
ATOM     15  C   UNL     1      -0.564  11.809  22.238  0.00  0.00    +0.000 A 
ATOM     16  C   UNL     1      -0.986  10.777  23.069  0.00  0.00    +0.000 A 
ATOM     17  C   UNL     1      -0.613   9.490  22.741  0.00  0.00    +0.000 A 
ATOM     18  N   UNL     1       0.133   9.180  21.660  0.00  0.00    +0.000 NA
ATOM     19  C   UNL     1       0.519  10.182  20.835  0.00  0.00    +0.000 A 
ATOM     20  H   UNL     1       0.921   7.907  21.007  0.00  0.00    +0.000 HD
ENDBRANCH   5   7
BRANCH   1  23
ATOM     21  C   UNL     1       4.220   3.716  16.688  0.00  0.00    +0.000 C 
ATOM     22  C   UNL     1       3.731   2.481  17.435  0.00  0.00    +0.000 C 
ATOM     23  C   UNL     1       2.900   3.719  17.436  0.00  0.00    +0.000 C 
BRANCH  21  29
ATOM     24  C   UNL     1       6.700   4.381  14.822  0.00  0.00    +0.000 C 
ATOM     25  N   UNL     1       6.678   4.397  16.259  0.00  0.00    +0.000 N 
ATOM     26  C   UNL     1       7.762   4.615  17.053  0.00  0.00    +0.000 A 
ATOM     27  N   UNL     1       7.403   4.538  18.309  0.00  0.00    +0.000 NA
ATOM     28  N   UNL     1       6.055   4.264  18.341  0.00  0.00    +0.000 NA
ATOM     29  C   UNL     1       5.618   4.169  17.101  0.00  0.00    +0.000 A 
ENDBRANCH  21  29
ENDBRANCH   1  23
TORSDOF 3
ENDMDL
MODEL 3
REMARK VINA RESULT:      -8.3      2.982      8.451
REMARK  Name = 
REMARK  4 active torsions:
REMARK  status: ('A' for Active; 'I' for Inactive)
REMARK    1  A    between atoms: C_1  and  N_2
REMARK    2  A    between atoms: C_6  and  C_7
REMARK    3  A    between atoms: C_9  and  C_10
REMARK    4  A    between atoms: C_14  and  N_15
REMARK                            x       y       z     vdW  Elec       q    Type
REMARK                         _______ _______ _______ _____ _____    ______ ____
ROOT
ATOM      1  C   UNL     1       0.380  10.758  19.687  0.00  0.00    +0.000 A 
ATOM      2  C   UNL     1      -0.090  10.870  21.016  0.00  0.00    +0.000 A 
ATOM      3  C   UNL     1       0.090   9.859  21.966  0.00  0.00    +0.000 A 
ATOM      4  C   UNL     1       0.744   8.683  21.617  0.00  0.00    +0.000 A 
ATOM      5  C   UNL     1       1.219   8.529  20.321  0.00  0.00    +0.000 A 
ATOM      6  C   UNL     1       1.043   9.565  19.383  0.00  0.00    +0.000 A 
ENDROOT
BRANCH   5   7
ATOM      7  N   UNL     1       1.887   7.387  19.863  0.00  0.00    +0.000 N 
ATOM      8  C   UNL     1       2.748   7.218  18.807  0.00  0.00    +0.000 C 
ATOM      9  O   UNL     1       3.105   8.123  18.051  0.00  0.00    +0.000 OA
ATOM     10  N   UNL     1       3.189   5.903  18.613  0.00  0.00    +0.000 N 
ATOM     11  C   UNL     1       4.110   5.628  17.516  0.00  0.00    +0.000 C 
ATOM     12  C   UNL     1       3.893   4.227  16.967  0.00  0.00    +0.000 C 
ATOM     13  O   UNL     1       4.085   3.229  17.975  0.00  0.00    +0.000 OA
ATOM     14  C   UNL     1       3.433   3.534  19.143  0.00  0.00    +0.000 A 
ATOM     15  C   UNL     1       3.267   2.484  20.045  0.00  0.00    +0.000 A 
ATOM     16  C   UNL     1       2.625   2.715  21.258  0.00  0.00    +0.000 A 
ATOM     17  C   UNL     1       2.165   3.990  21.512  0.00  0.00    +0.000 A 
ATOM     18  N   UNL     1       2.306   5.022  20.653  0.00  0.00    +0.000 NA
ATOM     19  C   UNL     1       2.957   4.804  19.485  0.00  0.00    +0.000 A 
ATOM     20  H   UNL     1       1.800   6.562  20.454  0.00  0.00    +0.000 HD
ENDBRANCH   5   7
BRANCH   1  23
ATOM     21  C   UNL     1      -1.128  12.265  17.925  0.00  0.00    +0.000 C 
ATOM     22  C   UNL     1      -0.703  13.067  19.148  0.00  0.00    +0.000 C 
ATOM     23  C   UNL     1       0.110  11.894  18.718  0.00  0.00    +0.000 C 
BRANCH  21  29
ATOM     24  C   UNL     1      -2.818  10.838  15.648  0.00  0.00    +0.000 C 
ATOM     25  N   UNL     1      -3.275  11.188  16.965  0.00  0.00    +0.000 N 
ATOM     26  C   UNL     1      -4.552  11.040  17.413  0.00  0.00    +0.000 A 
ATOM     27  N   UNL     1      -4.634  11.477  18.644  0.00  0.00    +0.000 NA
ATOM     28  N   UNL     1      -3.385  11.920  19.013  0.00  0.00    +0.000 NA
ATOM     29  C   UNL     1      -2.565  11.756  17.995  0.00  0.00    +0.000 A 
ENDBRANCH  21  29
ENDBRANCH   1  23
TORSDOF 3
ENDMDL
MODEL 4
REMARK VINA RESULT:      -8.2      2.639      8.956
REMARK  Name = 
REMARK  4 active torsions:
REMARK  status: ('A' for Active; 'I' for Inactive)
REMARK    1  A    between atoms: C_1  and  N_2
REMARK    2  A    between atoms: C_6  and  C_7
REMARK    3  A    between atoms: C_9  and  C_10
REMARK    4  A    between atoms: C_14  and  N_15
REMARK                            x       y       z     vdW  Elec       q    Type
REMARK                         _______ _______ _______ _____ _____    ______ ____
ROOT
ATOM      1  C   UNL     1       0.810  10.176  20.811  0.00  0.00    +0.000 A 
ATOM      2  C   UNL     1       0.783  11.141  19.779  0.00  0.00    +0.000 A 
ATOM      3  C   UNL     1       1.201  10.860  18.473  0.00  0.00    +0.000 A 
ATOM      4  C   UNL     1       1.675   9.593  18.151  0.00  0.00    +0.000 A 
ATOM      5  C   UNL     1       1.721   8.615  19.135  0.00  0.00    +0.000 A 
ATOM      6  C   UNL     1       1.281   8.912  20.440  0.00  0.00    +0.000 A 
ENDROOT
BRANCH   5   7
ATOM      7  N   UNL     1       2.183   7.311  18.920  0.00  0.00    +0.000 N 
ATOM      8  C   UNL     1       3.240   6.848  18.175  0.00  0.00    +0.000 C 
ATOM      9  O   UNL     1       4.014   7.570  17.546  0.00  0.00    +0.000 OA
ATOM     10  N   UNL     1       3.373   5.454  18.148  0.00  0.00    +0.000 N 
ATOM     11  C   UNL     1       4.470   4.871  17.384  0.00  0.00    +0.000 C 
ATOM     12  C   UNL     1       4.075   3.515  16.821  0.00  0.00    +0.000 C 
ATOM     13  O   UNL     1       3.713   2.597  17.859  0.00  0.00    +0.000 OA
ATOM     14  C   UNL     1       2.852   3.153  18.770  0.00  0.00    +0.000 A 
ATOM     15  C   UNL     1       2.176   2.260  19.600  0.00  0.00    +0.000 A 
ATOM     16  C   UNL     1       1.292   2.746  20.558  0.00  0.00    +0.000 A 
ATOM     17  C   UNL     1       1.114   4.111  20.638  0.00  0.00    +0.000 A 
ATOM     18  N   UNL     1       1.750   4.997  19.843  0.00  0.00    +0.000 NA
ATOM     19  C   UNL     1       2.632   4.526  18.930  0.00  0.00    +0.000 A 
ATOM     20  H   UNL     1       1.726   6.588  19.473  0.00  0.00    +0.000 HD
ENDBRANCH   5   7
BRANCH   1  23
ATOM     21  C   UNL     1      -0.769  11.468  22.679  0.00  0.00    +0.000 C 
ATOM     22  C   UNL     1      -0.837   9.953  22.819  0.00  0.00    +0.000 C 
ATOM     23  C   UNL     1       0.367  10.582  22.204  0.00  0.00    +0.000 C 
BRANCH  21  29
ATOM     24  C   UNL     1      -3.541  12.439  23.882  0.00  0.00    +0.000 C 
ATOM     25  N   UNL     1      -3.163  12.430  22.495  0.00  0.00    +0.000 N 
ATOM     26  C   UNL     1      -3.986  12.755  21.460  0.00  0.00    +0.000 A 
ATOM     27  N   UNL     1      -3.338  12.618  20.332  0.00  0.00    +0.000 NA
ATOM     28  N   UNL     1      -2.064  12.193  20.631  0.00  0.00    +0.000 NA
ATOM     29  C   UNL     1      -1.960  12.069  21.938  0.00  0.00    +0.000 A 
ENDBRANCH  21  29
ENDBRANCH   1  23
TORSDOF 3
ENDMDL
MODEL 5
REMARK VINA RESULT:      -8.2      1.086      1.216
REMARK  Name = 
REMARK  4 active torsions:
REMARK  status: ('A' for Active; 'I' for Inactive)
REMARK    1  A    between atoms: C_1  and  N_2
REMARK    2  A    between atoms: C_6  and  C_7
REMARK    3  A    between atoms: C_9  and  C_10
REMARK    4  A    between atoms: C_14  and  N_15
REMARK                            x       y       z     vdW  Elec       q    Type
REMARK                         _______ _______ _______ _____ _____    ______ ____
ROOT
ATOM      1  C   UNL     1       3.911   4.557  19.694  0.00  0.00    +0.000 A 
ATOM      2  C   UNL     1       3.075   3.509  20.140  0.00  0.00    +0.000 A 
ATOM      3  C   UNL     1       1.771   3.729  20.599  0.00  0.00    +0.000 A 
ATOM      4  C   UNL     1       1.254   5.019  20.637  0.00  0.00    +0.000 A 
ATOM      5  C   UNL     1       2.042   6.079  20.211  0.00  0.00    +0.000 A 
ATOM      6  C   UNL     1       3.347   5.836  19.737  0.00  0.00    +0.000 A 
ENDROOT
BRANCH   5   7
ATOM      7  N   UNL     1       1.623   7.415  20.211  0.00  0.00    +0.000 N 
ATOM      8  C   UNL     1       1.695   8.374  19.230  0.00  0.00    +0.000 C 
ATOM      9  O   UNL     1       2.161   8.185  18.106  0.00  0.00    +0.000 OA
ATOM     10  N   UNL     1       1.216   9.636  19.607  0.00  0.00    +0.000 N 
ATOM     11  C   UNL     1       1.249  10.717  18.630  0.00  0.00    +0.000 C 
ATOM     12  C   UNL     1       1.453  12.059  19.315  0.00  0.00    +0.000 C 
ATOM     13  O   UNL     1       0.410  12.335  20.256  0.00  0.00    +0.000 OA
ATOM     14  C   UNL     1       0.147  11.266  21.074  0.00  0.00    +0.000 A 
ATOM     15  C   UNL     1      -0.585  11.542  22.228  0.00  0.00    +0.000 A 
ATOM     16  C   UNL     1      -0.901  10.509  23.104  0.00  0.00    +0.000 A 
ATOM     17  C   UNL     1      -0.460   9.240  22.793  0.00  0.00    +0.000 A 
ATOM     18  N   UNL     1       0.257   8.947  21.686  0.00  0.00    +0.000 NA
ATOM     19  C   UNL     1       0.540   9.948  20.819  0.00  0.00    +0.000 A 
ATOM     20  H   UNL     1       1.097   7.709  21.031  0.00  0.00    +0.000 HD
ENDBRANCH   5   7
BRANCH   1  23
ATOM     21  C   UNL     1       6.033   4.450  17.924  0.00  0.00    +0.000 C 
ATOM     22  C   UNL     1       6.348   5.303  19.146  0.00  0.00    +0.000 C 
ATOM     23  C   UNL     1       5.322   4.226  19.244  0.00  0.00    +0.000 C 
BRANCH  21  29
ATOM     24  C   UNL     1       6.327   3.642  14.868  0.00  0.00    +0.000 C 
ATOM     25  N   UNL     1       5.840   4.893  15.382  0.00  0.00    +0.000 N 
ATOM     26  C   UNL     1       5.510   5.973  14.623  0.00  0.00    +0.000 A 
ATOM     27  N   UNL     1       5.127   6.951  15.403  0.00  0.00    +0.000 NA
ATOM     28  N   UNL     1       5.207   6.505  16.702  0.00  0.00    +0.000 NA
ATOM     29  C   UNL     1       5.647   5.263  16.691  0.00  0.00    +0.000 A 
ENDBRANCH  21  29
ENDBRANCH   1  23
TORSDOF 3
ENDMDL
MODEL 6
REMARK VINA RESULT:      -8.1      1.102      1.942
REMARK  Name = 
REMARK  4 active torsions:
REMARK  status: ('A' for Active; 'I' for Inactive)
REMARK    1  A    between atoms: C_1  and  N_2
REMARK    2  A    between atoms: C_6  and  C_7
REMARK    3  A    between atoms: C_9  and  C_10
REMARK    4  A    between atoms: C_14  and  N_15
REMARK                            x       y       z     vdW  Elec       q    Type
REMARK                         _______ _______ _______ _____ _____    ______ ____
ROOT
ATOM      1  C   UNL     1       3.040   4.641  18.332  0.00  0.00    +0.000 A 
ATOM      2  C   UNL     1       2.929   3.730  19.407  0.00  0.00    +0.000 A 
ATOM      3  C   UNL     1       2.394   4.092  20.649  0.00  0.00    +0.000 A 
ATOM      4  C   UNL     1       1.956   5.394  20.866  0.00  0.00    +0.000 A 
ATOM      5  C   UNL     1       2.049   6.322  19.838  0.00  0.00    +0.000 A 
ATOM      6  C   UNL     1       2.575   5.934  18.590  0.00  0.00    +0.000 A 
ENDROOT
BRANCH   5   7
ATOM      7  N   UNL     1       1.642   7.657  19.950  0.00  0.00    +0.000 N 
ATOM      8  C   UNL     1       1.740   8.699  19.061  0.00  0.00    +0.000 C 
ATOM      9  O   UNL     1       2.226   8.606  17.933  0.00  0.00    +0.000 OA
ATOM     10  N   UNL     1       1.266   9.927  19.540  0.00  0.00    +0.000 N 
ATOM     11  C   UNL     1       1.326  11.091  18.664  0.00  0.00    +0.000 C 
ATOM     12  C   UNL     1       1.529  12.364  19.470  0.00  0.00    +0.000 C 
ATOM     13  O   UNL     1       0.471  12.566  20.413  0.00  0.00    +0.000 OA
ATOM     14  C   UNL     1       0.184  11.431  21.128  0.00  0.00    +0.000 A 
ATOM     15  C   UNL     1      -0.567  11.610  22.288  0.00  0.00    +0.000 A 
ATOM     16  C   UNL     1      -0.908  10.507  23.063  0.00  0.00    +0.000 A 
ATOM     17  C   UNL     1      -0.472   9.266  22.647  0.00  0.00    +0.000 A 
ATOM     18  N   UNL     1       0.262   9.065  21.532  0.00  0.00    +0.000 NA
ATOM     19  C   UNL     1       0.570  10.137  20.763  0.00  0.00    +0.000 A 
ATOM     20  H   UNL     1       1.103   7.882  20.784  0.00  0.00    +0.000 HD
ENDBRANCH   5   7
BRANCH   1  23
ATOM     21  C   UNL     1       4.926   4.591  16.310  0.00  0.00    +0.000 C 
ATOM     22  C   UNL     1       4.850   3.265  17.058  0.00  0.00    +0.000 C 
ATOM     23  C   UNL     1       3.663   4.166  17.033  0.00  0.00    +0.000 C 
BRANCH  21  29
ATOM     24  C   UNL     1       6.054   5.050  19.242  0.00  0.00    +0.000 C 
ATOM     25  N   UNL     1       6.515   5.682  18.036  0.00  0.00    +0.000 N 
ATOM     26  C   UNL     1       7.460   6.659  17.980  0.00  0.00    +0.000 A 
ATOM     27  N   UNL     1       7.627   7.031  16.736  0.00  0.00    +0.000 NA
ATOM     28  N   UNL     1       6.773   6.283  15.960  0.00  0.00    +0.000 NA
ATOM     29  C   UNL     1       6.092   5.474  16.746  0.00  0.00    +0.000 A 
ENDBRANCH  21  29
ENDBRANCH   1  23
TORSDOF 3
ENDMDL
MODEL 7
REMARK VINA RESULT:      -8.1      2.996      8.625
REMARK  Name = 
REMARK  4 active torsions:
REMARK  status: ('A' for Active; 'I' for Inactive)
REMARK    1  A    between atoms: C_1  and  N_2
REMARK    2  A    between atoms: C_6  and  C_7
REMARK    3  A    between atoms: C_9  and  C_10
REMARK    4  A    between atoms: C_14  and  N_15
REMARK                            x       y       z     vdW  Elec       q    Type
REMARK                         _______ _______ _______ _____ _____    ______ ____
ROOT
ATOM      1  C   UNL     1       0.709  10.525  19.824  0.00  0.00    +0.000 A 
ATOM      2  C   UNL     1       0.294  10.542  21.175  0.00  0.00    +0.000 A 
ATOM      3  C   UNL     1       0.497   9.460  22.039  0.00  0.00    +0.000 A 
ATOM      4  C   UNL     1       1.120   8.307  21.577  0.00  0.00    +0.000 A 
ATOM      5  C   UNL     1       1.542   8.246  20.256  0.00  0.00    +0.000 A 
ATOM      6  C   UNL     1       1.343   9.352  19.405  0.00  0.00    +0.000 A 
ENDROOT
BRANCH   5   7
ATOM      7  N   UNL     1       2.175   7.134  19.687  0.00  0.00    +0.000 N 
ATOM      8  C   UNL     1       2.021   5.792  19.937  0.00  0.00    +0.000 C 
ATOM      9  O   UNL     1       1.227   5.325  20.755  0.00  0.00    +0.000 OA
ATOM     10  N   UNL     1       2.873   4.956  19.204  0.00  0.00    +0.000 N 
ATOM     11  C   UNL     1       2.778   3.515  19.401  0.00  0.00    +0.000 C 
ATOM     12  C   UNL     1       4.132   2.853  19.201  0.00  0.00    +0.000 C 
ATOM     13  O   UNL     1       4.649   3.094  17.888  0.00  0.00    +0.000 OA
ATOM     14  C   UNL     1       4.556   4.412  17.523  0.00  0.00    +0.000 A 
ATOM     15  C   UNL     1       5.334   4.805  16.435  0.00  0.00    +0.000 A 
ATOM     16  C   UNL     1       5.287   6.125  15.997  0.00  0.00    +0.000 A 
ATOM     17  C   UNL     1       4.467   7.002  16.677  0.00  0.00    +0.000 A 
ATOM     18  N   UNL     1       3.709   6.649  17.737  0.00  0.00    +0.000 NA
ATOM     19  C   UNL     1       3.733   5.358  18.145  0.00  0.00    +0.000 A 
ATOM     20  H   UNL     1       2.783   7.334  18.895  0.00  0.00    +0.000 HD
ENDBRANCH   5   7
BRANCH   1  23
ATOM     21  C   UNL     1      -0.852  12.191  18.263  0.00  0.00    +0.000 C 
ATOM     22  C   UNL     1      -0.335  12.893  19.512  0.00  0.00    +0.000 C 
ATOM     23  C   UNL     1       0.418  11.734  18.954  0.00  0.00    +0.000 C 
BRANCH  21  29
ATOM     24  C   UNL     1      -2.337   9.982  16.533  0.00  0.00    +0.000 C 
ATOM     25  N   UNL     1      -2.913  10.787  17.575  0.00  0.00    +0.000 N 
ATOM     26  C   UNL     1      -4.230  10.789  17.922  0.00  0.00    +0.000 A 
ATOM     27  N   UNL     1      -4.422  11.651  18.888  0.00  0.00    +0.000 NA
ATOM     28  N   UNL     1      -3.209  12.227  19.182  0.00  0.00    +0.000 NA
ATOM     29  C   UNL     1      -2.297  11.713  18.381  0.00  0.00    +0.000 A 
ENDBRANCH  21  29
ENDBRANCH   1  23
TORSDOF 3
ENDMDL
MODEL 8
REMARK VINA RESULT:      -8.0      2.849      8.396
REMARK  Name = 
REMARK  4 active torsions:
REMARK  status: ('A' for Active; 'I' for Inactive)
REMARK    1  A    between atoms: C_1  and  N_2
REMARK    2  A    between atoms: C_6  and  C_7
REMARK    3  A    between atoms: C_9  and  C_10
REMARK    4  A    between atoms: C_14  and  N_15
REMARK                            x       y       z     vdW  Elec       q    Type
REMARK                         _______ _______ _______ _____ _____    ______ ____
ROOT
ATOM      1  C   UNL     1       1.011  10.460  19.852  0.00  0.00    +0.000 A 
ATOM      2  C   UNL     1       0.565  10.469  21.193  0.00  0.00    +0.000 A 
ATOM      3  C   UNL     1       0.665   9.350  22.027  0.00  0.00    +0.000 A 
ATOM      4  C   UNL     1       1.210   8.166  21.543  0.00  0.00    +0.000 A 
ATOM      5  C   UNL     1       1.658   8.112  20.230  0.00  0.00    +0.000 A 
ATOM      6  C   UNL     1       1.564   9.254  19.410  0.00  0.00    +0.000 A 
ENDROOT
BRANCH   5   7
ATOM      7  N   UNL     1       2.219   6.972  19.641  0.00  0.00    +0.000 N 
ATOM      8  C   UNL     1       1.964   5.639  19.852  0.00  0.00    +0.000 C 
ATOM      9  O   UNL     1       1.124   5.210  20.645  0.00  0.00    +0.000 OA
ATOM     10  N   UNL     1       2.765   4.763  19.110  0.00  0.00    +0.000 N 
ATOM     11  C   UNL     1       2.564   3.327  19.266  0.00  0.00    +0.000 C 
ATOM     12  C   UNL     1       3.870   2.574  19.069  0.00  0.00    +0.000 C 
ATOM     13  O   UNL     1       4.425   2.811  17.770  0.00  0.00    +0.000 OA
ATOM     14  C   UNL     1       4.433   4.142  17.440  0.00  0.00    +0.000 A 
ATOM     15  C   UNL     1       5.256   4.505  16.376  0.00  0.00    +0.000 A 
ATOM     16  C   UNL     1       5.312   5.835  15.973  0.00  0.00    +0.000 A 
ATOM     17  C   UNL     1       4.546   6.752  16.663  0.00  0.00    +0.000 A 
ATOM     18  N   UNL     1       3.747   6.428  17.702  0.00  0.00    +0.000 NA
ATOM     19  C   UNL     1       3.671   5.128  18.075  0.00  0.00    +0.000 A 
ATOM     20  H   UNL     1       2.853   7.147  18.864  0.00  0.00    +0.000 HD
ENDBRANCH   5   7
BRANCH   1  23
ATOM     21  C   UNL     1       1.347  13.126  19.199  0.00  0.00    +0.000 C 
ATOM     22  C   UNL     1       1.945  12.198  18.149  0.00  0.00    +0.000 C 
ATOM     23  C   UNL     1       0.833  11.712  19.013  0.00  0.00    +0.000 C 
BRANCH  21  29
ATOM     24  C   UNL     1       3.409  15.483  18.673  0.00  0.00    +0.000 C 
ATOM     25  N   UNL     1       3.288  14.699  19.872  0.00  0.00    +0.000 N 
ATOM     26  C   UNL     1       4.115  14.789  20.949  0.00  0.00    +0.000 A 
ATOM     27  N   UNL     1       3.743  13.922  21.856  0.00  0.00    +0.000 NA
ATOM     28  N   UNL     1       2.649  13.248  21.364  0.00  0.00    +0.000 NA
ATOM     29  C   UNL     1       2.379  13.710  20.160  0.00  0.00    +0.000 A 
ENDBRANCH  21  29
ENDBRANCH   1  23
TORSDOF 3
ENDMDL
MODEL 9
REMARK VINA RESULT:      -8.0      2.842      4.317
REMARK  Name = 
REMARK  4 active torsions:
REMARK  status: ('A' for Active; 'I' for Inactive)
REMARK    1  A    between atoms: C_1  and  N_2
REMARK    2  A    between atoms: C_6  and  C_7
REMARK    3  A    between atoms: C_9  and  C_10
REMARK    4  A    between atoms: C_14  and  N_15
REMARK                            x       y       z     vdW  Elec       q    Type
REMARK                         _______ _______ _______ _____ _____    ______ ____
ROOT
ATOM      1  C   UNL     1       2.901   5.158  17.544  0.00  0.00    +0.000 A 
ATOM      2  C   UNL     1       4.205   5.365  17.040  0.00  0.00    +0.000 A 
ATOM      3  C   UNL     1       4.856   6.602  17.117  0.00  0.00    +0.000 A 
ATOM      4  C   UNL     1       4.215   7.690  17.699  0.00  0.00    +0.000 A 
ATOM      5  C   UNL     1       2.932   7.533  18.205  0.00  0.00    +0.000 A 
ATOM      6  C   UNL     1       2.300   6.275  18.132  0.00  0.00    +0.000 A 
ENDROOT
BRANCH   5   7
ATOM      7  N   UNL     1       2.196   8.561  18.805  0.00  0.00    +0.000 N 
ATOM      8  C   UNL     1       1.840   9.800  18.332  0.00  0.00    +0.000 C 
ATOM      9  O   UNL     1       2.123  10.222  17.210  0.00  0.00    +0.000 OA
ATOM     10  N   UNL     1       1.136  10.597  19.244  0.00  0.00    +0.000 N 
ATOM     11  C   UNL     1       0.713  11.929  18.828  0.00  0.00    +0.000 C 
ATOM     12  C   UNL     1       0.694  12.884  20.011  0.00  0.00    +0.000 C 
ATOM     13  O   UNL     1      -0.193  12.432  21.040  0.00  0.00    +0.000 OA
ATOM     14  C   UNL     1      -0.021  11.103  21.332  0.00  0.00    +0.000 A 
ATOM     15  C   UNL     1      -0.572  10.662  22.533  0.00  0.00    +0.000 A 
ATOM     16  C   UNL     1      -0.449   9.324  22.896  0.00  0.00    +0.000 A 
ATOM     17  C   UNL     1       0.233   8.484  22.042  0.00  0.00    +0.000 A 
ATOM     18  N   UNL     1       0.783   8.886  20.877  0.00  0.00    +0.000 NA
ATOM     19  C   UNL     1       0.639  10.182  20.510  0.00  0.00    +0.000 A 
ATOM     20  H   UNL     1       1.773   8.331  19.703  0.00  0.00    +0.000 HD
ENDBRANCH   5   7
BRANCH   1  23
ATOM     21  C   UNL     1       1.980   2.692  18.393  0.00  0.00    +0.000 C 
ATOM     22  C   UNL     1       0.861   3.562  17.834  0.00  0.00    +0.000 C 
ATOM     23  C   UNL     1       2.264   3.790  17.386  0.00  0.00    +0.000 C 
BRANCH  21  29
ATOM     24  C   UNL     1       4.520   2.280  20.251  0.00  0.00    +0.000 C 
ATOM     25  N   UNL     1       3.159   2.444  20.682  0.00  0.00    +0.000 N 
ATOM     26  C   UNL     1       2.733   2.355  21.972  0.00  0.00    +0.000 A 
ATOM     27  N   UNL     1       1.436   2.531  22.013  0.00  0.00    +0.000 NA
ATOM     28  N   UNL     1       1.002   2.739  20.725  0.00  0.00    +0.000 NA
ATOM     29  C   UNL     1       2.042   2.677  19.918  0.00  0.00    +0.000 A 
ENDBRANCH  21  29
ENDBRANCH   1  23
TORSDOF 3
ENDMDL
