MODEL 1
REMARK VINA RESULT:      -8.7      0.000      0.000
REMARK  Name = 
REMARK  9 active torsions:
REMARK  status: ('A' for Active; 'I' for Inactive)
REMARK    1  A    between atoms: C_1  and  C_2
REMARK    2  A    between atoms: C_5  and  C_6
REMARK    3  A    between atoms: N_8  and  C_9
REMARK    4  A    between atoms: C_13  and  C_14
REMARK    5  A    between atoms: C_14  and  C_15
REMARK    6  A    between atoms: C_14  and  S_16
REMARK    7  A    between atoms: S_16  and  C_17
REMARK    8  A    between atoms: N_21  and  C_22
REMARK    9  A    between atoms: C_25  and  C_26
REMARK                            x       y       z     vdW  Elec       q    Type
REMARK                         _______ _______ _______ _____ _____    ______ ____
ROOT
ATOM      1  C   UNL     1       1.845   7.946  19.627  0.00  0.00    +0.000 C 
ATOM      2  O   UNL     1       1.912   8.177  18.421  0.00  0.00    +0.000 OA
ATOM      3  N   UNL     1       2.377   6.842  20.282  0.00  0.00    +0.000 N 
ATOM      4  H   UNL     1       2.116   6.745  21.259  0.00  0.00    +0.000 HD
ENDROOT
BRANCH   1   9
ATOM      5  C   UNL     1      -1.085  11.610  22.961  0.00  0.00    +0.000 C 
ATOM      6  C   UNL     1      -0.325  10.677  22.062  0.00  0.00    +0.000 A 
ATOM      7  C   UNL     1       0.280   9.551  22.637  0.00  0.00    +0.000 A 
ATOM      8  C   UNL     1       0.989   8.659  21.846  0.00  0.00    +0.000 A 
ATOM      9  C   UNL     1       1.085   8.910  20.486  0.00  0.00    +0.000 A 
ATOM     10  N   UNL     1       0.525   9.992  19.884  0.00  0.00    +0.000 NA
ATOM     11  C   UNL     1      -0.181  10.872  20.673  0.00  0.00    +0.000 A 
BRANCH  11  12
ATOM     12  C   UNL     1      -0.799  12.072  19.950  0.00  0.00    +0.000 C 
ATOM     13  F   UNL     1      -0.303  13.291  20.312  0.00  0.00    +0.000 F 
ATOM     14  F   UNL     1      -0.627  12.006  18.598  0.00  0.00    +0.000 F 
ATOM     15  F   UNL     1      -2.146  12.163  20.150  0.00  0.00    +0.000 F 
ENDBRANCH  11  12
ENDBRANCH   1   9
BRANCH   3  16
ATOM     16  C   UNL     1       3.114   5.799  19.671  0.00  0.00    +0.000 A 
ATOM     17  C   UNL     1       3.069   4.483  20.136  0.00  0.00    +0.000 A 
ATOM     18  C   UNL     1       3.836   3.484  19.540  0.00  0.00    +0.000 A 
ATOM     19  C   UNL     1       4.668   3.791  18.468  0.00  0.00    +0.000 A 
ATOM     20  C   UNL     1       4.737   5.101  17.965  0.00  0.00    +0.000 A 
ATOM     21  C   UNL     1       3.928   6.095  18.564  0.00  0.00    +0.000 A 
BRANCH  20  22
ATOM     22  C   UNL     1       5.654   5.441  16.788  0.00  0.00    +0.000 C 
ATOM     23  C   UNL     1       5.092   6.628  16.000  0.00  0.00    +0.000 C 
BRANCH  22  24
ATOM     24  S   UNL     1       5.874   3.982  15.677  0.00  0.00    +0.000 S 
BRANCH  24  25
ATOM     25  C   UNL     1       6.866   4.632  14.419  0.00  0.00    +0.000 A 
ATOM     26  N   UNL     1       7.819   5.526  14.551  0.00  0.00    +0.000 NA
ATOM     27  N   UNL     1       8.356   5.757  13.304  0.00  0.00    +0.000 NA
ATOM     28  C   UNL     1       7.715   4.994  12.449  0.00  0.00    +0.000 A 
ATOM     29  N   UNL     1       6.764   4.271  13.105  0.00  0.00    +0.000 N 
ATOM     30  C   UNL     1       5.846   3.347  12.495  0.00  0.00    +0.000 C 
ENDBRANCH  24  25
ENDBRANCH  22  24
ENDBRANCH  20  22
ENDBRANCH   3  16
TORSDOF 6
ENDMDL
MODEL 2
REMARK VINA RESULT:      -8.4      4.754      9.365
REMARK  Name = 
REMARK  9 active torsions:
REMARK  status: ('A' for Active; 'I' for Inactive)
REMARK    1  A    between atoms: C_1  and  C_2
REMARK    2  A    between atoms: C_5  and  C_6
REMARK    3  A    between atoms: N_8  and  C_9
REMARK    4  A    between atoms: C_13  and  C_14
REMARK    5  A    between atoms: C_14  and  C_15
REMARK    6  A    between atoms: C_14  and  S_16
REMARK    7  A    between atoms: S_16  and  C_17
REMARK    8  A    between atoms: N_21  and  C_22
REMARK    9  A    between atoms: C_25  and  C_26
REMARK                            x       y       z     vdW  Elec       q    Type
REMARK                         _______ _______ _______ _____ _____    ______ ____
ROOT
ATOM      1  C   UNL     1       2.571   6.367  19.372  0.00  0.00    +0.000 C 
ATOM      2  O   UNL     1       2.059   5.727  20.290  0.00  0.00    +0.000 OA
ATOM      3  N   UNL     1       2.335   7.702  19.071  0.00  0.00    +0.000 N 
ATOM      4  H   UNL     1       2.742   8.034  18.201  0.00  0.00    +0.000 HD
ENDROOT
BRANCH   1   9
ATOM      5  C   UNL     1       6.131   3.559  15.827  0.00  0.00    +0.000 C 
ATOM      6  C   UNL     1       5.230   4.314  16.763  0.00  0.00    +0.000 A 
ATOM      7  C   UNL     1       3.864   4.003  16.760  0.00  0.00    +0.000 A 
ATOM      8  C   UNL     1       2.994   4.671  17.609  0.00  0.00    +0.000 A 
ATOM      9  C   UNL     1       3.507   5.646  18.450  0.00  0.00    +0.000 A 
ATOM     10  N   UNL     1       4.821   5.991  18.482  0.00  0.00    +0.000 NA
ATOM     11  C   UNL     1       5.681   5.322  17.640  0.00  0.00    +0.000 A 
BRANCH  11  12
ATOM     12  C   UNL     1       7.152   5.739  17.716  0.00  0.00    +0.000 C 
ATOM     13  F   UNL     1       7.458   6.622  18.710  0.00  0.00    +0.000 F 
ATOM     14  F   UNL     1       7.981   4.674  17.919  0.00  0.00    +0.000 F 
ATOM     15  F   UNL     1       7.584   6.333  16.566  0.00  0.00    +0.000 F 
ENDBRANCH  11  12
ENDBRANCH   1   9
BRANCH   3  16
ATOM     16  C   UNL     1       1.478   8.569  19.792  0.00  0.00    +0.000 A 
ATOM     17  C   UNL     1       1.126   8.331  21.122  0.00  0.00    +0.000 A 
ATOM     18  C   UNL     1       0.248   9.179  21.796  0.00  0.00    +0.000 A 
ATOM     19  C   UNL     1      -0.294  10.281  21.142  0.00  0.00    +0.000 A 
ATOM     20  C   UNL     1       0.040  10.560  19.806  0.00  0.00    +0.000 A 
ATOM     21  C   UNL     1       0.955   9.705  19.150  0.00  0.00    +0.000 A 
BRANCH  20  22
ATOM     22  C   UNL     1      -0.559  11.769  19.085  0.00  0.00    +0.000 C 
ATOM     23  C   UNL     1      -0.067  13.071  19.727  0.00  0.00    +0.000 C 
BRANCH  22  24
ATOM     24  S   UNL     1      -2.405  11.705  19.105  0.00  0.00    +0.000 S 
BRANCH  24  25
ATOM     25  C   UNL     1      -2.764  11.138  17.513  0.00  0.00    +0.000 A 
ATOM     26  N   UNL     1      -1.952  10.499  16.703  0.00  0.00    +0.000 NA
ATOM     27  N   UNL     1      -2.641  10.230  15.541  0.00  0.00    +0.000 NA
ATOM     28  C   UNL     1      -3.854  10.712  15.678  0.00  0.00    +0.000 A 
ATOM     29  N   UNL     1      -3.977  11.298  16.903  0.00  0.00    +0.000 N 
ATOM     30  C   UNL     1      -5.153  11.960  17.400  0.00  0.00    +0.000 C 
ENDBRANCH  24  25
ENDBRANCH  22  24
ENDBRANCH  20  22
ENDBRANCH   3  16
TORSDOF 6
ENDMDL
MODEL 3
REMARK VINA RESULT:      -8.3      4.881      9.259
REMARK  Name = 
REMARK  9 active torsions:
REMARK  status: ('A' for Active; 'I' for Inactive)
REMARK    1  A    between atoms: C_1  and  C_2
REMARK    2  A    between atoms: C_5  and  C_6
REMARK    3  A    between atoms: N_8  and  C_9
REMARK    4  A    between atoms: C_13  and  C_14
REMARK    5  A    between atoms: C_14  and  C_15
REMARK    6  A    between atoms: C_14  and  S_16
REMARK    7  A    between atoms: S_16  and  C_17
REMARK    8  A    between atoms: N_21  and  C_22
REMARK    9  A    between atoms: C_25  and  C_26
REMARK                            x       y       z     vdW  Elec       q    Type
REMARK                         _______ _______ _______ _____ _____    ______ ____
ROOT
ATOM      1  C   UNL     1       1.918   7.485  19.964  0.00  0.00    +0.000 C 
ATOM      2  O   UNL     1       2.138   8.275  19.047  0.00  0.00    +0.000 OA
ATOM      3  N   UNL     1       1.174   7.743  21.108  0.00  0.00    +0.000 N 
ATOM      4  H   UNL     1       1.204   7.020  21.822  0.00  0.00    +0.000 HD
ENDROOT
BRANCH   1   9
ATOM      5  C   UNL     1       4.290   2.247  19.703  0.00  0.00    +0.000 C 
ATOM      6  C   UNL     1       3.690   3.625  19.741  0.00  0.00    +0.000 A 
ATOM      7  C   UNL     1       2.683   3.881  20.680  0.00  0.00    +0.000 A 
ATOM      8  C   UNL     1       2.102   5.139  20.756  0.00  0.00    +0.000 A 
ATOM      9  C   UNL     1       2.539   6.124  19.883  0.00  0.00    +0.000 A 
ATOM     10  N   UNL     1       3.504   5.921  18.948  0.00  0.00    +0.000 NA
ATOM     11  C   UNL     1       4.080   4.672  18.881  0.00  0.00    +0.000 A 
BRANCH  11  12
ATOM     12  C   UNL     1       5.167   4.492  17.818  0.00  0.00    +0.000 C 
ATOM     13  F   UNL     1       4.945   3.490  16.919  0.00  0.00    +0.000 F 
ATOM     14  F   UNL     1       5.342   5.615  17.061  0.00  0.00    +0.000 F 
ATOM     15  F   UNL     1       6.387   4.217  18.363  0.00  0.00    +0.000 F 
ENDBRANCH  11  12
ENDBRANCH   1   9
BRANCH   3  16
ATOM     16  C   UNL     1       0.514   8.961  21.404  0.00  0.00    +0.000 A 
ATOM     17  C   UNL     1       0.171   9.325  22.708  0.00  0.00    +0.000 A 
ATOM     18  C   UNL     1      -0.513  10.511  22.966  0.00  0.00    +0.000 A 
ATOM     19  C   UNL     1      -0.869  11.351  21.917  0.00  0.00    +0.000 A 
ATOM     20  C   UNL     1      -0.537  11.026  20.591  0.00  0.00    +0.000 A 
ATOM     21  C   UNL     1       0.184   9.833  20.353  0.00  0.00    +0.000 A 
BRANCH  20  22
ATOM     22  C   UNL     1      -0.932  11.948  19.436  0.00  0.00    +0.000 C 
ATOM     23  C   UNL     1      -0.414  13.368  19.687  0.00  0.00    +0.000 C 
BRANCH  22  24
ATOM     24  S   UNL     1      -2.763  11.968  19.200  0.00  0.00    +0.000 S 
BRANCH  24  25
ATOM     25  C   UNL     1      -2.929  11.332  17.601  0.00  0.00    +0.000 A 
ATOM     26  N   UNL     1      -2.022  10.670  16.919  0.00  0.00    +0.000 NA
ATOM     27  N   UNL     1      -2.567  10.345  15.697  0.00  0.00    +0.000 NA
ATOM     28  C   UNL     1      -3.792  10.817  15.671  0.00  0.00    +0.000 A 
ATOM     29  N   UNL     1      -4.063  11.451  16.847  0.00  0.00    +0.000 N 
ATOM     30  C   UNL     1      -5.294  12.117  17.176  0.00  0.00    +0.000 C 
ENDBRANCH  24  25
ENDBRANCH  22  24
ENDBRANCH  20  22
ENDBRANCH   3  16
TORSDOF 6
ENDMDL
MODEL 4
REMARK VINA RESULT:      -8.1      4.785      9.422
REMARK  Name = 
REMARK  9 active torsions:
REMARK  status: ('A' for Active; 'I' for Inactive)
REMARK    1  A    between atoms: C_1  and  C_2
REMARK    2  A    between atoms: C_5  and  C_6
REMARK    3  A    between atoms: N_8  and  C_9
REMARK    4  A    between atoms: C_13  and  C_14
REMARK    5  A    between atoms: C_14  and  C_15
REMARK    6  A    between atoms: C_14  and  S_16
REMARK    7  A    between atoms: S_16  and  C_17
REMARK    8  A    between atoms: N_21  and  C_22
REMARK    9  A    between atoms: C_25  and  C_26
REMARK                            x       y       z     vdW  Elec       q    Type
REMARK                         _______ _______ _______ _____ _____    ______ ____
ROOT
ATOM      1  C   UNL     1       2.185   8.106  18.531  0.00  0.00    +0.000 C 
ATOM      2  O   UNL     1       1.921   9.056  17.795  0.00  0.00    +0.000 OA
ATOM      3  N   UNL     1       1.829   7.981  19.868  0.00  0.00    +0.000 N 
ATOM      4  H   UNL     1       2.241   7.192  20.359  0.00  0.00    +0.000 HD
ENDROOT
BRANCH   1   9
ATOM      5  C   UNL     1       5.356   3.838  16.327  0.00  0.00    +0.000 C 
ATOM      6  C   UNL     1       4.508   4.928  16.922  0.00  0.00    +0.000 A 
ATOM      7  C   UNL     1       4.854   6.257  16.648  0.00  0.00    +0.000 A 
ATOM      8  C   UNL     1       4.098   7.297  17.172  0.00  0.00    +0.000 A 
ATOM      9  C   UNL     1       3.006   6.987  17.967  0.00  0.00    +0.000 A 
ATOM     10  N   UNL     1       2.638   5.714  18.270  0.00  0.00    +0.000 NA
ATOM     11  C   UNL     1       3.388   4.687  17.744  0.00  0.00    +0.000 A 
BRANCH  11  12
ATOM     12  C   UNL     1       2.931   3.271  18.105  0.00  0.00    +0.000 C 
ATOM     13  F   UNL     1       2.609   2.473  17.047  0.00  0.00    +0.000 F 
ATOM     14  F   UNL     1       3.885   2.580  18.794  0.00  0.00    +0.000 F 
ATOM     15  F   UNL     1       1.823   3.269  18.902  0.00  0.00    +0.000 F 
ENDBRANCH  11  12
ENDBRANCH   1   9
BRANCH   3  16
ATOM     16  C   UNL     1       1.073   8.921  20.610  0.00  0.00    +0.000 A 
ATOM     17  C   UNL     1       0.758   8.726  21.957  0.00  0.00    +0.000 A 
ATOM     18  C   UNL     1      -0.022   9.649  22.652  0.00  0.00    +0.000 A 
ATOM     19  C   UNL     1      -0.503  10.782  22.004  0.00  0.00    +0.000 A 
ATOM     20  C   UNL     1      -0.203  11.019  20.653  0.00  0.00    +0.000 A 
ATOM     21  C   UNL     1       0.614  10.086  19.973  0.00  0.00    +0.000 A 
BRANCH  20  22
ATOM     22  C   UNL     1      -0.735  12.263  19.938  0.00  0.00    +0.000 C 
ATOM     23  C   UNL     1      -0.235  13.532  20.636  0.00  0.00    +0.000 C 
BRANCH  22  24
ATOM     24  S   UNL     1      -2.581  12.253  19.876  0.00  0.00    +0.000 S 
BRANCH  24  25
ATOM     25  C   UNL     1      -2.886  11.674  18.277  0.00  0.00    +0.000 A 
ATOM     26  N   UNL     1      -1.993  11.419  17.348  0.00  0.00    +0.000 NA
ATOM     27  N   UNL     1      -2.662  10.975  16.230  0.00  0.00    +0.000 NA
ATOM     28  C   UNL     1      -3.945  10.970  16.511  0.00  0.00    +0.000 A 
ATOM     29  N   UNL     1      -4.134  11.407  17.788  0.00  0.00    +0.000 N 
ATOM     30  C   UNL     1      -5.407  11.565  18.439  0.00  0.00    +0.000 C 
ENDBRANCH  24  25
ENDBRANCH  22  24
ENDBRANCH  20  22
ENDBRANCH   3  16
TORSDOF 6
ENDMDL
MODEL 5
REMARK VINA RESULT:      -8.1      2.553      3.504
REMARK  Name = 
REMARK  9 active torsions:
REMARK  status: ('A' for Active; 'I' for Inactive)
REMARK    1  A    between atoms: C_1  and  C_2
REMARK    2  A    between atoms: C_5  and  C_6
REMARK    3  A    between atoms: N_8  and  C_9
REMARK    4  A    between atoms: C_13  and  C_14
REMARK    5  A    between atoms: C_14  and  C_15
REMARK    6  A    between atoms: C_14  and  S_16
REMARK    7  A    between atoms: S_16  and  C_17
REMARK    8  A    between atoms: N_21  and  C_22
REMARK    9  A    between atoms: C_25  and  C_26
REMARK                            x       y       z     vdW  Elec       q    Type
REMARK                         _______ _______ _______ _____ _____    ______ ____
ROOT
ATOM      1  C   UNL     1       2.098   8.437  18.322  0.00  0.00    +0.000 C 
ATOM      2  O   UNL     1       2.223   8.698  17.126  0.00  0.00    +0.000 OA
ATOM      3  N   UNL     1       2.426   7.236  18.939  0.00  0.00    +0.000 N 
ATOM      4  H   UNL     1       2.136   7.148  19.908  0.00  0.00    +0.000 HD
ENDROOT
BRANCH   1   9
ATOM      5  C   UNL     1      -0.187  12.488  21.712  0.00  0.00    +0.000 C 
ATOM      6  C   UNL     1       0.397  11.404  20.850  0.00  0.00    +0.000 A 
ATOM      7  C   UNL     1       0.993  11.774  19.638  0.00  0.00    +0.000 A 
ATOM      8  C   UNL     1       1.549  10.808  18.810  0.00  0.00    +0.000 A 
ATOM      9  C   UNL     1       1.495   9.482  19.210  0.00  0.00    +0.000 A 
ATOM     10  N   UNL     1       0.919   9.073  20.371  0.00  0.00    +0.000 NA
ATOM     11  C   UNL     1       0.373  10.035  21.190  0.00  0.00    +0.000 A 
BRANCH  11  12
ATOM     12  C   UNL     1      -0.259   9.529  22.490  0.00  0.00    +0.000 C 
ATOM     13  F   UNL     1      -1.282  10.289  22.977  0.00  0.00    +0.000 F 
ATOM     14  F   UNL     1      -0.781   8.275  22.357  0.00  0.00    +0.000 F 
ATOM     15  F   UNL     1       0.643   9.450  23.511  0.00  0.00    +0.000 F 
ENDBRANCH  11  12
ENDBRANCH   1   9
BRANCH   3  16
ATOM     16  C   UNL     1       2.990   6.107  18.295  0.00  0.00    +0.000 A 
ATOM     17  C   UNL     1       2.649   4.800  18.650  0.00  0.00    +0.000 A 
ATOM     18  C   UNL     1       3.249   3.707  18.027  0.00  0.00    +0.000 A 
ATOM     19  C   UNL     1       4.205   3.909  17.037  0.00  0.00    +0.000 A 
ATOM     20  C   UNL     1       4.571   5.207  16.645  0.00  0.00    +0.000 A 
ATOM     21  C   UNL     1       3.929   6.303  17.268  0.00  0.00    +0.000 A 
BRANCH  20  22
ATOM     22  C   UNL     1       5.625   5.430  15.559  0.00  0.00    +0.000 C 
ATOM     23  C   UNL     1       5.163   4.817  14.233  0.00  0.00    +0.000 C 
BRANCH  22  24
ATOM     24  S   UNL     1       7.253   4.716  16.060  0.00  0.00    +0.000 S 
BRANCH  24  25
ATOM     25  C   UNL     1       7.368   5.203  17.715  0.00  0.00    +0.000 A 
ATOM     26  N   UNL     1       7.262   4.431  18.772  0.00  0.00    +0.000 NA
ATOM     27  N   UNL     1       7.421   5.220  19.889  0.00  0.00    +0.000 NA
ATOM     28  C   UNL     1       7.623   6.451  19.479  0.00  0.00    +0.000 A 
ATOM     29  N   UNL     1       7.593   6.490  18.116  0.00  0.00    +0.000 N 
ATOM     30  C   UNL     1       7.747   7.670  17.308  0.00  0.00    +0.000 C 
ENDBRANCH  24  25
ENDBRANCH  22  24
ENDBRANCH  20  22
ENDBRANCH   3  16
TORSDOF 6
ENDMDL
MODEL 6
REMARK VINA RESULT:      -8.1      5.301     10.589
REMARK  Name = 
REMARK  9 active torsions:
REMARK  status: ('A' for Active; 'I' for Inactive)
REMARK    1  A    between atoms: C_1  and  C_2
REMARK    2  A    between atoms: C_5  and  C_6
REMARK    3  A    between atoms: N_8  and  C_9
REMARK    4  A    between atoms: C_13  and  C_14
REMARK    5  A    between atoms: C_14  and  C_15
REMARK    6  A    between atoms: C_14  and  S_16
REMARK    7  A    between atoms: S_16  and  C_17
REMARK    8  A    between atoms: N_21  and  C_22
REMARK    9  A    between atoms: C_25  and  C_26
REMARK                            x       y       z     vdW  Elec       q    Type
REMARK                         _______ _______ _______ _____ _____    ______ ____
ROOT
ATOM      1  C   UNL     1       2.288   7.766  18.668  0.00  0.00    +0.000 C 
ATOM      2  O   UNL     1       2.033   7.676  19.869  0.00  0.00    +0.000 OA
ATOM      3  N   UNL     1       1.784   8.717  17.790  0.00  0.00    +0.000 N 
ATOM      4  H   UNL     1       1.997   8.564  16.809  0.00  0.00    +0.000 HD
ENDROOT
BRANCH   1   9
ATOM      5  C   UNL     1       5.763   3.834  16.303  0.00  0.00    +0.000 C 
ATOM      6  C   UNL     1       4.842   4.835  16.944  0.00  0.00    +0.000 A 
ATOM      7  C   UNL     1       4.960   6.178  16.564  0.00  0.00    +0.000 A 
ATOM      8  C   UNL     1       4.128   7.137  17.125  0.00  0.00    +0.000 A 
ATOM      9  C   UNL     1       3.191   6.734  18.064  0.00  0.00    +0.000 A 
ATOM     10  N   UNL     1       3.047   5.446  18.472  0.00  0.00    +0.000 NA
ATOM     11  C   UNL     1       3.871   4.498  17.909  0.00  0.00    +0.000 A 
BRANCH  11  12
ATOM     12  C   UNL     1       3.668   3.061  18.394  0.00  0.00    +0.000 C 
ATOM     13  F   UNL     1       3.472   2.134  17.412  0.00  0.00    +0.000 F 
ATOM     14  F   UNL     1       4.735   2.600  19.109  0.00  0.00    +0.000 F 
ATOM     15  F   UNL     1       2.587   2.938  19.218  0.00  0.00    +0.000 F 
ENDBRANCH  11  12
ENDBRANCH   1   9
BRANCH   3  16
ATOM     16  C   UNL     1       0.903   9.771  18.136  0.00  0.00    +0.000 A 
ATOM     17  C   UNL     1       1.352  10.951  18.733  0.00  0.00    +0.000 A 
ATOM     18  C   UNL     1       0.458  11.955  19.100  0.00  0.00    +0.000 A 
ATOM     19  C   UNL     1      -0.905  11.790  18.876  0.00  0.00    +0.000 A 
ATOM     20  C   UNL     1      -1.397  10.621  18.271  0.00  0.00    +0.000 A 
ATOM     21  C   UNL     1      -0.471   9.627  17.879  0.00  0.00    +0.000 A 
BRANCH  20  22
ATOM     22  C   UNL     1      -2.896  10.436  18.028  0.00  0.00    +0.000 C 
ATOM     23  C   UNL     1      -3.145   9.898  16.615  0.00  0.00    +0.000 C 
BRANCH  22  24
ATOM     24  S   UNL     1      -3.808  12.023  18.278  0.00  0.00    +0.000 S 
BRANCH  24  25
ATOM     25  C   UNL     1      -5.310  11.477  18.937  0.00  0.00    +0.000 A 
ATOM     26  N   UNL     1      -6.175  10.672  18.364  0.00  0.00    +0.000 NA
ATOM     27  N   UNL     1      -7.227  10.494  19.235  0.00  0.00    +0.000 NA
ATOM     28  C   UNL     1      -6.970  11.194  20.315  0.00  0.00    +0.000 A 
ATOM     29  N   UNL     1      -5.775  11.835  20.171  0.00  0.00    +0.000 N 
ATOM     30  C   UNL     1      -5.177  12.718  21.136  0.00  0.00    +0.000 C 
ENDBRANCH  24  25
ENDBRANCH  22  24
ENDBRANCH  20  22
ENDBRANCH   3  16
TORSDOF 6
ENDMDL
MODEL 7
REMARK VINA RESULT:      -8.1      5.282     10.520
REMARK  Name = 
REMARK  9 active torsions:
REMARK  status: ('A' for Active; 'I' for Inactive)
REMARK    1  A    between atoms: C_1  and  C_2
REMARK    2  A    between atoms: C_5  and  C_6
REMARK    3  A    between atoms: N_8  and  C_9
REMARK    4  A    between atoms: C_13  and  C_14
REMARK    5  A    between atoms: C_14  and  C_15
REMARK    6  A    between atoms: C_14  and  S_16
REMARK    7  A    between atoms: S_16  and  C_17
REMARK    8  A    between atoms: N_21  and  C_22
REMARK    9  A    between atoms: C_25  and  C_26
REMARK                            x       y       z     vdW  Elec       q    Type
REMARK                         _______ _______ _______ _____ _____    ______ ____
ROOT
ATOM      1  C   UNL     1       2.029   7.795  19.255  0.00  0.00    +0.000 C 
ATOM      2  O   UNL     1       1.903   7.975  20.466  0.00  0.00    +0.000 OA
ATOM      3  N   UNL     1       1.755   8.721  18.256  0.00  0.00    +0.000 N 
ATOM      4  H   UNL     1       1.788   8.362  17.306  0.00  0.00    +0.000 HD
ENDROOT
BRANCH   1   9
ATOM      5  C   UNL     1       3.755   2.623  17.416  0.00  0.00    +0.000 C 
ATOM      6  C   UNL     1       3.281   3.957  17.920  0.00  0.00    +0.000 A 
ATOM      7  C   UNL     1       3.924   5.108  17.447  0.00  0.00    +0.000 A 
ATOM      8  C   UNL     1       3.518   6.362  17.881  0.00  0.00    +0.000 A 
ATOM      9  C   UNL     1       2.473   6.443  18.788  0.00  0.00    +0.000 A 
ATOM     10  N   UNL     1       1.826   5.356  19.283  0.00  0.00    +0.000 NA
ATOM     11  C   UNL     1       2.229   4.114  18.846  0.00  0.00    +0.000 A 
BRANCH  11  12
ATOM     12  C   UNL     1       1.467   2.920  19.425  0.00  0.00    +0.000 C 
ATOM     13  F   UNL     1       2.243   1.947  19.984  0.00  0.00    +0.000 F 
ATOM     14  F   UNL     1       0.598   3.289  20.410  0.00  0.00    +0.000 F 
ATOM     15  F   UNL     1       0.714   2.278  18.486  0.00  0.00    +0.000 F 
ENDBRANCH  11  12
ENDBRANCH   1   9
BRANCH   3  16
ATOM     16  C   UNL     1       1.307  10.048  18.463  0.00  0.00    +0.000 A 
ATOM     17  C   UNL     1       2.144  11.152  18.289  0.00  0.00    +0.000 A 
ATOM     18  C   UNL     1       1.689  12.446  18.539  0.00  0.00    +0.000 A 
ATOM     19  C   UNL     1       0.384  12.652  18.974  0.00  0.00    +0.000 A 
ATOM     20  C   UNL     1      -0.493  11.569  19.155  0.00  0.00    +0.000 A 
ATOM     21  C   UNL     1      -0.021  10.267  18.867  0.00  0.00    +0.000 A 
BRANCH  20  22
ATOM     22  C   UNL     1      -1.927  11.795  19.637  0.00  0.00    +0.000 C 
ATOM     23  C   UNL     1      -2.907  11.690  18.463  0.00  0.00    +0.000 C 
BRANCH  22  24
ATOM     24  S   UNL     1      -2.098  13.436  20.467  0.00  0.00    +0.000 S 
BRANCH  24  25
ATOM     25  C   UNL     1      -3.051  13.043  21.854  0.00  0.00    +0.000 A 
ATOM     26  N   UNL     1      -4.253  12.512  21.858  0.00  0.00    +0.000 NA
ATOM     27  N   UNL     1      -4.642  12.362  23.171  0.00  0.00    +0.000 NA
ATOM     28  C   UNL     1      -3.664  12.803  23.927  0.00  0.00    +0.000 A 
ATOM     29  N   UNL     1      -2.642  13.247  23.142  0.00  0.00    +0.000 N 
ATOM     30  C   UNL     1      -1.414  13.828  23.614  0.00  0.00    +0.000 C 
ENDBRANCH  24  25
ENDBRANCH  22  24
ENDBRANCH  20  22
ENDBRANCH   3  16
TORSDOF 6
ENDMDL
MODEL 8
REMARK VINA RESULT:      -8.1      1.892      2.320
REMARK  Name = 
REMARK  9 active torsions:
REMARK  status: ('A' for Active; 'I' for Inactive)
REMARK    1  A    between atoms: C_1  and  C_2
REMARK    2  A    between atoms: C_5  and  C_6
REMARK    3  A    between atoms: N_8  and  C_9
REMARK    4  A    between atoms: C_13  and  C_14
REMARK    5  A    between atoms: C_14  and  C_15
REMARK    6  A    between atoms: C_14  and  S_16
REMARK    7  A    between atoms: S_16  and  C_17
REMARK    8  A    between atoms: N_21  and  C_22
REMARK    9  A    between atoms: C_25  and  C_26
REMARK                            x       y       z     vdW  Elec       q    Type
REMARK                         _______ _______ _______ _____ _____    ______ ____
ROOT
ATOM      1  C   UNL     1       1.751   8.928  18.348  0.00  0.00    +0.000 C 
ATOM      2  O   UNL     1       2.537   9.295  17.476  0.00  0.00    +0.000 OA
ATOM      3  N   UNL     1       1.802   7.730  19.048  0.00  0.00    +0.000 N 
ATOM      4  H   UNL     1       0.999   7.533  19.639  0.00  0.00    +0.000 HD
ENDROOT
BRANCH   1   9
ATOM      5  C   UNL     1      -2.679  12.369  19.639  0.00  0.00    +0.000 C 
ATOM      6  C   UNL     1      -1.541  11.459  19.271  0.00  0.00    +0.000 A 
ATOM      7  C   UNL     1      -0.375  11.514  20.046  0.00  0.00    +0.000 A 
ATOM      8  C   UNL     1       0.701  10.690  19.748  0.00  0.00    +0.000 A 
ATOM      9  C   UNL     1       0.593   9.823  18.671  0.00  0.00    +0.000 A 
ATOM     10  N   UNL     1      -0.512   9.741  17.885  0.00  0.00    +0.000 NA
ATOM     11  C   UNL     1      -1.578  10.558  18.188  0.00  0.00    +0.000 A 
BRANCH  11  12
ATOM     12  C   UNL     1      -2.803  10.426  17.279  0.00  0.00    +0.000 C 
ATOM     13  F   UNL     1      -3.880   9.801  17.836  0.00  0.00    +0.000 F 
ATOM     14  F   UNL     1      -3.271  11.638  16.863  0.00  0.00    +0.000 F 
ATOM     15  F   UNL     1      -2.533   9.721  16.142  0.00  0.00    +0.000 F 
ENDBRANCH  11  12
ENDBRANCH   1   9
BRANCH   3  16
ATOM     16  C   UNL     1       2.791   6.728  18.895  0.00  0.00    +0.000 A 
ATOM     17  C   UNL     1       2.906   5.653  19.778  0.00  0.00    +0.000 A 
ATOM     18  C   UNL     1       3.915   4.703  19.626  0.00  0.00    +0.000 A 
ATOM     19  C   UNL     1       4.830   4.821  18.585  0.00  0.00    +0.000 A 
ATOM     20  C   UNL     1       4.745   5.883  17.670  0.00  0.00    +0.000 A 
ATOM     21  C   UNL     1       3.697   6.819  17.824  0.00  0.00    +0.000 A 
BRANCH  20  22
ATOM     22  C   UNL     1       5.754   6.015  16.527  0.00  0.00    +0.000 C 
ATOM     23  C   UNL     1       5.159   6.844  15.384  0.00  0.00    +0.000 C 
BRANCH  22  24
ATOM     24  S   UNL     1       6.274   4.355  15.908  0.00  0.00    +0.000 S 
BRANCH  24  25
ATOM     25  C   UNL     1       7.000   4.746  14.389  0.00  0.00    +0.000 A 
ATOM     26  N   UNL     1       8.025   5.543  14.188  0.00  0.00    +0.000 NA
ATOM     27  N   UNL     1       8.279   5.571  12.835  0.00  0.00    +0.000 NA
ATOM     28  C   UNL     1       7.402   4.788  12.251  0.00  0.00    +0.000 A 
ATOM     29  N   UNL     1       6.572   4.250  13.189  0.00  0.00    +0.000 N 
ATOM     30  C   UNL     1       5.469   3.366  12.924  0.00  0.00    +0.000 C 
ENDBRANCH  24  25
ENDBRANCH  22  24
ENDBRANCH  20  22
ENDBRANCH   3  16
TORSDOF 6
ENDMDL
MODEL 9
REMARK VINA RESULT:      -8.0      5.353      9.372
REMARK  Name = 
REMARK  9 active torsions:
REMARK  status: ('A' for Active; 'I' for Inactive)
REMARK    1  A    between atoms: C_1  and  C_2
REMARK    2  A    between atoms: C_5  and  C_6
REMARK    3  A    between atoms: N_8  and  C_9
REMARK    4  A    between atoms: C_13  and  C_14
REMARK    5  A    between atoms: C_14  and  C_15
REMARK    6  A    between atoms: C_14  and  S_16
REMARK    7  A    between atoms: S_16  and  C_17
REMARK    8  A    between atoms: N_21  and  C_22
REMARK    9  A    between atoms: C_25  and  C_26
REMARK                            x       y       z     vdW  Elec       q    Type
REMARK                         _______ _______ _______ _____ _____    ______ ____
ROOT
ATOM      1  C   UNL     1       1.839   7.752  19.938  0.00  0.00    +0.000 C 
ATOM      2  O   UNL     1       1.889   8.599  19.047  0.00  0.00    +0.000 OA
ATOM      3  N   UNL     1       1.275   7.919  21.197  0.00  0.00    +0.000 N 
ATOM      4  H   UNL     1       1.437   7.161  21.854  0.00  0.00    +0.000 HD
ENDROOT
BRANCH   1   9
ATOM      5  C   UNL     1       4.318   2.662  18.907  0.00  0.00    +0.000 C 
ATOM      6  C   UNL     1       3.651   3.975  19.204  0.00  0.00    +0.000 A 
ATOM      7  C   UNL     1       4.088   5.110  18.509  0.00  0.00    +0.000 A 
ATOM      8  C   UNL     1       3.500   6.344  18.746  0.00  0.00    +0.000 A 
ATOM      9  C   UNL     1       2.480   6.423  19.682  0.00  0.00    +0.000 A 
ATOM     10  N   UNL     1       2.029   5.353  20.389  0.00  0.00    +0.000 NA
ATOM     11  C   UNL     1       2.614   4.131  20.147  0.00  0.00    +0.000 A 
BRANCH  11  12
ATOM     12  C   UNL     1       2.069   2.954  20.961  0.00  0.00    +0.000 C 
ATOM     13  F   UNL     1       1.623   1.893  20.228  0.00  0.00    +0.000 F 
ATOM     14  F   UNL     1       3.004   2.433  21.807  0.00  0.00    +0.000 F 
ATOM     15  F   UNL     1       1.013   3.311  21.748  0.00  0.00    +0.000 F 
ENDBRANCH  11  12
ENDBRANCH   1   9
BRANCH   3  16
ATOM     16  C   UNL     1       0.633   9.092  21.662  0.00  0.00    +0.000 A 
ATOM     17  C   UNL     1      -0.150   9.104  22.819  0.00  0.00    +0.000 A 
ATOM     18  C   UNL     1      -0.803  10.264  23.232  0.00  0.00    +0.000 A 
ATOM     19  C   UNL     1      -0.685  11.432  22.487  0.00  0.00    +0.000 A 
ATOM     20  C   UNL     1       0.099  11.465  21.321  0.00  0.00    +0.000 A 
ATOM     21  C   UNL     1       0.778  10.286  20.935  0.00  0.00    +0.000 A 
BRANCH  20  22
ATOM     22  C   UNL     1       0.227  12.749  20.499  0.00  0.00    +0.000 C 
ATOM     23  C   UNL     1       1.030  13.800  21.272  0.00  0.00    +0.000 C 
BRANCH  22  24
ATOM     24  S   UNL     1      -1.436  13.417  20.051  0.00  0.00    +0.000 S 
BRANCH  24  25
ATOM     25  C   UNL     1      -2.003  12.246  18.914  0.00  0.00    +0.000 A 
ATOM     26  N   UNL     1      -1.283  11.599  18.025  0.00  0.00    +0.000 NA
ATOM     27  N   UNL     1      -2.126  10.761  17.329  0.00  0.00    +0.000 NA
ATOM     28  C   UNL     1      -3.335  10.921  17.816  0.00  0.00    +0.000 A 
ATOM     29  N   UNL     1      -3.307  11.851  18.813  0.00  0.00    +0.000 N 
ATOM     30  C   UNL     1      -4.446  12.311  19.562  0.00  0.00    +0.000 C 
ENDBRANCH  24  25
ENDBRANCH  22  24
ENDBRANCH  20  22
ENDBRANCH   3  16
TORSDOF 6
ENDMDL
