MODEL 1
REMARK VINA RESULT:      -8.9      0.000      0.000
REMARK  Name = 
REMARK  9 active torsions:
REMARK  status: ('A' for Active; 'I' for Inactive)
REMARK    1  A    between atoms: C_1  and  N_2
REMARK    2  A    between atoms: C_6  and  C_7
REMARK    3  A    between atoms: C_7  and  C_8
REMARK    4  A    between atoms: C_8  and  C_9
REMARK    5  A    between atoms: C_13  and  N_14
REMARK    6  A    between atoms: C_15  and  C_17
REMARK    7  A    between atoms: C_19  and  C_20
REMARK    8  A    between atoms: C_20  and  N_21
REMARK    9  A    between atoms: C_28  and  C_29
REMARK                            x       y       z     vdW  Elec       q    Type
REMARK                         _______ _______ _______ _____ _____    ______ ____
ROOT
ATOM      1  N   UNL     1       1.046   8.913  19.958  0.00  0.00    +0.000 N 
ATOM      2  C   UNL     1       1.827   8.545  18.895  0.00  0.00    +0.000 C 
ATOM      3  O   UNL     1       2.066   9.229  17.903  0.00  0.00    +0.000 OA
ATOM      4  H   UNL     1       1.033   8.256  20.736  0.00  0.00    +0.000 HD
ENDROOT
BRANCH   1   9
ATOM      5  C   UNL     1      -1.670  11.340  19.301  0.00  0.00    +0.000 A 
ATOM      6  C   UNL     1      -1.233  12.428  20.085  0.00  0.00    +0.000 A 
ATOM      7  C   UNL     1      -0.066  12.358  20.837  0.00  0.00    +0.000 A 
ATOM      8  C   UNL     1       0.701  11.197  20.820  0.00  0.00    +0.000 A 
ATOM      9  C   UNL     1       0.301  10.095  20.066  0.00  0.00    +0.000 A 
ATOM     10  C   UNL     1      -0.880  10.174  19.331  0.00  0.00    +0.000 A 
BRANCH   5  11
ATOM     11  C   UNL     1      -2.968  11.423  18.378  0.00  0.00    +0.000 C 
ATOM     12  C   UNL     1      -3.724  10.081  18.147  0.00  0.00    +0.000 C 
ATOM     13  O   UNL     1      -3.471  10.105  16.731  0.00  0.00    +0.000 OA
ATOM     14  C   UNL     1      -2.768  11.359  16.837  0.00  0.00    +0.000 C 
BRANCH  11  15
ATOM     15  C   UNL     1      -3.882  12.562  18.881  0.00  0.00    +0.000 C 
BRANCH  15  21
ATOM     16  C   UNL     1      -6.879  11.899  17.819  0.00  0.00    +0.000 C 
ATOM     17  N   UNL     1      -6.369  11.886  19.164  0.00  0.00    +0.000 N 
ATOM     18  C   UNL     1      -7.144  11.636  20.262  0.00  0.00    +0.000 A 
ATOM     19  N   UNL     1      -6.409  11.688  21.344  0.00  0.00    +0.000 NA
ATOM     20  N   UNL     1      -5.128  11.989  20.957  0.00  0.00    +0.000 NA
ATOM     21  C   UNL     1      -5.100  12.130  19.645  0.00  0.00    +0.000 A 
ENDBRANCH  15  21
ENDBRANCH  11  15
ENDBRANCH   5  11
ENDBRANCH   1   9
BRANCH   2  22
ATOM     22  C   UNL     1       2.412   7.188  18.974  0.00  0.00    +0.000 A 
ATOM     23  C   UNL     1       3.248   6.796  17.961  0.00  0.00    +0.000 A 
ATOM     24  C   UNL     1       3.712   5.512  18.044  0.00  0.00    +0.000 A 
ATOM     25  N   UNL     1       3.381   4.695  19.070  0.00  0.00    +0.000 NA
ATOM     26  C   UNL     1       2.562   5.169  20.038  0.00  0.00    +0.000 A 
ATOM     27  N   UNL     1       2.047   6.413  20.022  0.00  0.00    +0.000 NA
BRANCH  26  28
ATOM     28  C   UNL     1       2.230   4.275  21.208  0.00  0.00    +0.000 C 
ATOM     29  C   UNL     1       1.194   3.181  21.069  0.00  0.00    +0.000 C 
ATOM     30  C   UNL     1       2.642   2.819  21.215  0.00  0.00    +0.000 C 
ENDBRANCH  26  28
BRANCH  24  31
ATOM     31  C   UNL     1       4.602   4.984  16.938  0.00  0.00    +0.000 C 
BRANCH  31  32
ATOM     32  N   UNL     1       6.037   5.347  17.078  0.00  0.00    +0.000 NA
ATOM     33  C   UNL     1       6.207   6.801  16.913  0.00  0.00    +0.000 C 
ATOM     34  C   UNL     1       7.603   7.307  17.282  0.00  0.00    +0.000 C 
ATOM     35  C   UNL     1       8.000   6.852  18.678  0.00  0.00    +0.000 C 
ATOM     36  C   UNL     1       7.921   5.336  18.748  0.00  0.00    +0.000 C 
ATOM     37  C   UNL     1       6.525   4.843  18.372  0.00  0.00    +0.000 C 
ENDBRANCH  31  32
ENDBRANCH  24  31
ENDBRANCH   2  22
TORSDOF 8
ENDMDL
MODEL 2
REMARK VINA RESULT:      -8.7      1.473      1.980
REMARK  Name = 
REMARK  9 active torsions:
REMARK  status: ('A' for Active; 'I' for Inactive)
REMARK    1  A    between atoms: C_1  and  N_2
REMARK    2  A    between atoms: C_6  and  C_7
REMARK    3  A    between atoms: C_7  and  C_8
REMARK    4  A    between atoms: C_8  and  C_9
REMARK    5  A    between atoms: C_13  and  N_14
REMARK    6  A    between atoms: C_15  and  C_17
REMARK    7  A    between atoms: C_19  and  C_20
REMARK    8  A    between atoms: C_20  and  N_21
REMARK    9  A    between atoms: C_28  and  C_29
REMARK                            x       y       z     vdW  Elec       q    Type
REMARK                         _______ _______ _______ _____ _____    ______ ____
ROOT
ATOM      1  N   UNL     1       1.516   8.969  19.313  0.00  0.00    +0.000 N 
ATOM      2  C   UNL     1       2.236   8.281  18.373  0.00  0.00    +0.000 C 
ATOM      3  O   UNL     1       2.449   8.642  17.218  0.00  0.00    +0.000 OA
ATOM      4  H   UNL     1       1.519   8.563  20.247  0.00  0.00    +0.000 HD
ENDROOT
BRANCH   1   9
ATOM      5  C   UNL     1      -1.237  11.195  18.232  0.00  0.00    +0.000 A 
ATOM      6  C   UNL     1      -0.672  12.455  18.518  0.00  0.00    +0.000 A 
ATOM      7  C   UNL     1       0.596  12.571  19.078  0.00  0.00    +0.000 A 
ATOM      8  C   UNL     1       1.336  11.427  19.362  0.00  0.00    +0.000 A 
ATOM      9  C   UNL     1       0.811  10.162  19.103  0.00  0.00    +0.000 A 
ATOM     10  C   UNL     1      -0.467  10.061  18.557  0.00  0.00    +0.000 A 
BRANCH   5  11
ATOM     11  C   UNL     1      -2.659  11.040  17.526  0.00  0.00    +0.000 C 
ATOM     12  C   UNL     1      -3.204   9.585  17.410  0.00  0.00    +0.000 C 
ATOM     13  O   UNL     1      -3.186   9.621  15.972  0.00  0.00    +0.000 OA
ATOM     14  C   UNL     1      -2.696  10.978  15.973  0.00  0.00    +0.000 C 
BRANCH  11  15
ATOM     15  C   UNL     1      -3.661  12.020  18.175  0.00  0.00    +0.000 C 
BRANCH  15  21
ATOM     16  C   UNL     1      -6.395  13.430  17.130  0.00  0.00    +0.000 C 
ATOM     17  N   UNL     1      -6.226  12.182  17.826  0.00  0.00    +0.000 N 
ATOM     18  C   UNL     1      -7.268  11.393  18.224  0.00  0.00    +0.000 A 
ATOM     19  N   UNL     1      -6.811  10.325  18.826  0.00  0.00    +0.000 NA
ATOM     20  N   UNL     1      -5.442  10.414  18.838  0.00  0.00    +0.000 NA
ATOM     21  C   UNL     1      -5.082  11.541  18.253  0.00  0.00    +0.000 A 
ENDBRANCH  15  21
ENDBRANCH  11  15
ENDBRANCH   5  11
ENDBRANCH   1   9
BRANCH   2  22
ATOM     22  C   UNL     1       2.784   6.980  18.818  0.00  0.00    +0.000 A 
ATOM     23  C   UNL     1       3.943   6.545  18.231  0.00  0.00    +0.000 A 
ATOM     24  C   UNL     1       4.376   5.308  18.627  0.00  0.00    +0.000 A 
ATOM     25  N   UNL     1       3.711   4.579  19.551  0.00  0.00    +0.000 NA
ATOM     26  C   UNL     1       2.582   5.092  20.094  0.00  0.00    +0.000 A 
ATOM     27  N   UNL     1       2.079   6.292  19.746  0.00  0.00    +0.000 NA
BRANCH  26  28
ATOM     28  C   UNL     1       1.866   4.301  21.161  0.00  0.00    +0.000 C 
ATOM     29  C   UNL     1       1.045   3.084  20.793  0.00  0.00    +0.000 C 
ATOM     30  C   UNL     1       2.331   2.913  21.543  0.00  0.00    +0.000 C 
ENDBRANCH  26  28
BRANCH  24  31
ATOM     31  C   UNL     1       5.622   4.732  17.989  0.00  0.00    +0.000 C 
BRANCH  31  32
ATOM     32  N   UNL     1       5.771   5.040  16.541  0.00  0.00    +0.000 NA
ATOM     33  C   UNL     1       7.186   4.930  16.145  0.00  0.00    +0.000 C 
ATOM     34  C   UNL     1       7.412   4.985  14.633  0.00  0.00    +0.000 C 
ATOM     35  C   UNL     1       6.549   3.961  13.913  0.00  0.00    +0.000 C 
ATOM     36  C   UNL     1       5.091   4.203  14.266  0.00  0.00    +0.000 C 
ATOM     37  C   UNL     1       4.879   4.151  15.779  0.00  0.00    +0.000 C 
ENDBRANCH  31  32
ENDBRANCH  24  31
ENDBRANCH   2  22
TORSDOF 8
ENDMDL
MODEL 3
REMARK VINA RESULT:      -8.7      1.202      1.903
REMARK  Name = 
REMARK  9 active torsions:
REMARK  status: ('A' for Active; 'I' for Inactive)
REMARK    1  A    between atoms: C_1  and  N_2
REMARK    2  A    between atoms: C_6  and  C_7
REMARK    3  A    between atoms: C_7  and  C_8
REMARK    4  A    between atoms: C_8  and  C_9
REMARK    5  A    between atoms: C_13  and  N_14
REMARK    6  A    between atoms: C_15  and  C_17
REMARK    7  A    between atoms: C_19  and  C_20
REMARK    8  A    between atoms: C_20  and  N_21
REMARK    9  A    between atoms: C_28  and  C_29
REMARK                            x       y       z     vdW  Elec       q    Type
REMARK                         _______ _______ _______ _____ _____    ______ ____
ROOT
ATOM      1  N   UNL     1       1.281   8.842  19.857  0.00  0.00    +0.000 N 
ATOM      2  C   UNL     1       1.996   8.247  18.852  0.00  0.00    +0.000 C 
ATOM      3  O   UNL     1       2.145   8.686  17.713  0.00  0.00    +0.000 OA
ATOM      4  H   UNL     1       1.342   8.383  20.764  0.00  0.00    +0.000 HD
ENDROOT
BRANCH   1   9
ATOM      5  C   UNL     1      -1.444  11.069  18.710  0.00  0.00    +0.000 A 
ATOM      6  C   UNL     1      -1.062  12.277  19.330  0.00  0.00    +0.000 A 
ATOM      7  C   UNL     1       0.070  12.354  20.133  0.00  0.00    +0.000 A 
ATOM      8  C   UNL     1       0.857  11.224  20.332  0.00  0.00    +0.000 A 
ATOM      9  C   UNL     1       0.512  10.008  19.745  0.00  0.00    +0.000 A 
ATOM     10  C   UNL     1      -0.636   9.942  18.957  0.00  0.00    +0.000 A 
BRANCH   5  11
ATOM     11  C   UNL     1      -2.700  10.975  17.731  0.00  0.00    +0.000 C 
ATOM     12  C   UNL     1      -3.395   9.583  17.652  0.00  0.00    +0.000 C 
ATOM     13  O   UNL     1      -3.078   9.429  16.257  0.00  0.00    +0.000 OA
ATOM     14  C   UNL     1      -2.426  10.715  16.222  0.00  0.00    +0.000 C 
BRANCH  11  15
ATOM     15  C   UNL     1      -3.676  12.131  18.039  0.00  0.00    +0.000 C 
BRANCH  15  21
ATOM     16  C   UNL     1      -4.873  12.471  21.039  0.00  0.00    +0.000 C 
ATOM     17  N   UNL     1      -5.476  11.857  19.886  0.00  0.00    +0.000 N 
ATOM     18  C   UNL     1      -6.692  11.236  19.912  0.00  0.00    +0.000 A 
ATOM     19  N   UNL     1      -6.981  10.778  18.720  0.00  0.00    +0.000 NA
ATOM     20  N   UNL     1      -5.932  11.091  17.894  0.00  0.00    +0.000 NA
ATOM     21  C   UNL     1      -5.011  11.725  18.595  0.00  0.00    +0.000 A 
ENDBRANCH  15  21
ENDBRANCH  11  15
ENDBRANCH   5  11
ENDBRANCH   1   9
BRANCH   2  22
ATOM     22  C   UNL     1       2.624   6.952  19.197  0.00  0.00    +0.000 A 
ATOM     23  C   UNL     1       3.832   6.659  18.621  0.00  0.00    +0.000 A 
ATOM     24  C   UNL     1       4.343   5.424  18.919  0.00  0.00    +0.000 A 
ATOM     25  N   UNL     1       3.702   4.565  19.744  0.00  0.00    +0.000 NA
ATOM     26  C   UNL     1       2.519   4.942  20.283  0.00  0.00    +0.000 A 
ATOM     27  N   UNL     1       1.940   6.131  20.027  0.00  0.00    +0.000 NA
BRANCH  26  28
ATOM     28  C   UNL     1       1.827   4.004  21.241  0.00  0.00    +0.000 C 
ATOM     29  C   UNL     1       1.199   2.721  20.741  0.00  0.00    +0.000 C 
ATOM     30  C   UNL     1       2.433   2.662  21.589  0.00  0.00    +0.000 C 
ENDBRANCH  26  28
BRANCH  24  31
ATOM     31  C   UNL     1       5.650   5.002  18.284  0.00  0.00    +0.000 C 
BRANCH  31  32
ATOM     32  N   UNL     1       5.715   5.211  16.813  0.00  0.00    +0.000 NA
ATOM     33  C   UNL     1       7.115   5.156  16.357  0.00  0.00    +0.000 C 
ATOM     34  C   UNL     1       7.270   5.113  14.836  0.00  0.00    +0.000 C 
ATOM     35  C   UNL     1       6.441   3.990  14.232  0.00  0.00    +0.000 C 
ATOM     36  C   UNL     1       4.988   4.170  14.638  0.00  0.00    +0.000 C 
ATOM     37  C   UNL     1       4.847   4.218  16.159  0.00  0.00    +0.000 C 
ENDBRANCH  31  32
ENDBRANCH  24  31
ENDBRANCH   2  22
TORSDOF 8
ENDMDL
MODEL 4
REMARK VINA RESULT:      -8.7      3.108      5.250
REMARK  Name = 
REMARK  9 active torsions:
REMARK  status: ('A' for Active; 'I' for Inactive)
REMARK    1  A    between atoms: C_1  and  N_2
REMARK    2  A    between atoms: C_6  and  C_7
REMARK    3  A    between atoms: C_7  and  C_8
REMARK    4  A    between atoms: C_8  and  C_9
REMARK    5  A    between atoms: C_13  and  N_14
REMARK    6  A    between atoms: C_15  and  C_17
REMARK    7  A    between atoms: C_19  and  C_20
REMARK    8  A    between atoms: C_20  and  N_21
REMARK    9  A    between atoms: C_28  and  C_29
REMARK                            x       y       z     vdW  Elec       q    Type
REMARK                         _______ _______ _______ _____ _____    ______ ____
ROOT
ATOM      1  N   UNL     1       2.040   7.426  19.676  0.00  0.00    +0.000 N 
ATOM      2  C   UNL     1       2.637   7.632  18.460  0.00  0.00    +0.000 C 
ATOM      3  O   UNL     1       2.743   8.710  17.880  0.00  0.00    +0.000 OA
ATOM      4  H   UNL     1       2.126   6.482  20.048  0.00  0.00    +0.000 HD
ENDROOT
BRANCH   1   9
ATOM      5  C   UNL     1       0.165  10.530  20.415  0.00  0.00    +0.000 A 
ATOM      6  C   UNL     1       0.073  10.442  21.820  0.00  0.00    +0.000 A 
ATOM      7  C   UNL     1       0.606   9.363  22.516  0.00  0.00    +0.000 A 
ATOM      8  C   UNL     1       1.253   8.344  21.824  0.00  0.00    +0.000 A 
ATOM      9  C   UNL     1       1.359   8.387  20.435  0.00  0.00    +0.000 A 
ATOM     10  C   UNL     1       0.805   9.466  19.749  0.00  0.00    +0.000 A 
BRANCH   5  11
ATOM     11  C   UNL     1      -0.378  11.791  19.603  0.00  0.00    +0.000 C 
ATOM     12  C   UNL     1      -1.601  12.526  20.230  0.00  0.00    +0.000 C 
ATOM     13  O   UNL     1      -2.446  12.218  19.106  0.00  0.00    +0.000 OA
ATOM     14  C   UNL     1      -1.371  11.530  18.435  0.00  0.00    +0.000 C 
BRANCH  11  15
ATOM     15  C   UNL     1       0.801  12.734  19.274  0.00  0.00    +0.000 C 
BRANCH  15  21
ATOM     16  C   UNL     1      -0.021  15.872  19.447  0.00  0.00    +0.000 C 
ATOM     17  N   UNL     1       0.787  15.094  20.349  0.00  0.00    +0.000 N 
ATOM     18  C   UNL     1       1.413  15.618  21.444  0.00  0.00    +0.000 A 
ATOM     19  N   UNL     1       2.070  14.676  22.072  0.00  0.00    +0.000 NA
ATOM     20  N   UNL     1       1.884  13.510  21.375  0.00  0.00    +0.000 NA
ATOM     21  C   UNL     1       1.127  13.758  20.322  0.00  0.00    +0.000 A 
ENDBRANCH  15  21
ENDBRANCH  11  15
ENDBRANCH   5  11
ENDBRANCH   1   9
BRANCH   2  22
ATOM     22  C   UNL     1       3.183   6.422  17.805  0.00  0.00    +0.000 A 
ATOM     23  C   UNL     1       2.486   5.252  17.950  0.00  0.00    +0.000 A 
ATOM     24  C   UNL     1       3.063   4.148  17.382  0.00  0.00    +0.000 A 
ATOM     25  N   UNL     1       4.233   4.219  16.707  0.00  0.00    +0.000 NA
ATOM     26  C   UNL     1       4.847   5.420  16.597  0.00  0.00    +0.000 A 
ATOM     27  N   UNL     1       4.356   6.550  17.142  0.00  0.00    +0.000 NA
BRANCH  26  28
ATOM     28  C   UNL     1       6.127   5.510  15.803  0.00  0.00    +0.000 C 
ATOM     29  C   UNL     1       7.340   4.699  16.207  0.00  0.00    +0.000 C 
ATOM     30  C   UNL     1       6.596   4.350  14.952  0.00  0.00    +0.000 C 
ENDBRANCH  26  28
BRANCH  24  31
ATOM     31  C   UNL     1       2.382   2.805  17.540  0.00  0.00    +0.000 C 
BRANCH  31  32
ATOM     32  N   UNL     1       2.245   2.347  18.949  0.00  0.00    +0.000 NA
ATOM     33  C   UNL     1       3.519   2.533  19.665  0.00  0.00    +0.000 C 
ATOM     34  C   UNL     1       3.416   2.325  21.177  0.00  0.00    +0.000 C 
ATOM     35  C   UNL     1       2.309   3.181  21.773  0.00  0.00    +0.000 C 
ATOM     36  C   UNL     1       0.999   2.855  21.076  0.00  0.00    +0.000 C 
ATOM     37  C   UNL     1       1.116   3.061  19.567  0.00  0.00    +0.000 C 
ENDBRANCH  31  32
ENDBRANCH  24  31
ENDBRANCH   2  22
TORSDOF 8
ENDMDL
MODEL 5
REMARK VINA RESULT:      -8.7      2.412      4.828
REMARK  Name = 
REMARK  9 active torsions:
REMARK  status: ('A' for Active; 'I' for Inactive)
REMARK    1  A    between atoms: C_1  and  N_2
REMARK    2  A    between atoms: C_6  and  C_7
REMARK    3  A    between atoms: C_7  and  C_8
REMARK    4  A    between atoms: C_8  and  C_9
REMARK    5  A    between atoms: C_13  and  N_14
REMARK    6  A    between atoms: C_15  and  C_17
REMARK    7  A    between atoms: C_19  and  C_20
REMARK    8  A    between atoms: C_20  and  N_21
REMARK    9  A    between atoms: C_28  and  C_29
REMARK                            x       y       z     vdW  Elec       q    Type
REMARK                         _______ _______ _______ _____ _____    ______ ____
ROOT
ATOM      1  N   UNL     1       1.695   8.214  19.643  0.00  0.00    +0.000 N 
ATOM      2  C   UNL     1       2.273   8.313  18.405  0.00  0.00    +0.000 C 
ATOM      3  O   UNL     1       2.229   9.290  17.662  0.00  0.00    +0.000 OA
ATOM      4  H   UNL     1       1.912   7.363  20.157  0.00  0.00    +0.000 HD
ENDROOT
BRANCH   1   9
ATOM      5  C   UNL     1      -0.833  10.905  19.904  0.00  0.00    +0.000 A 
ATOM      6  C   UNL     1      -0.757  11.191  21.283  0.00  0.00    +0.000 A 
ATOM      7  C   UNL     1       0.104  10.493  22.123  0.00  0.00    +0.000 A 
ATOM      8  C   UNL     1       0.919   9.492  21.603  0.00  0.00    +0.000 A 
ATOM      9  C   UNL     1       0.870   9.171  20.247  0.00  0.00    +0.000 A 
ATOM     10  C   UNL     1      -0.011   9.868  19.421  0.00  0.00    +0.000 A 
BRANCH   5  11
ATOM     11  C   UNL     1      -1.762  11.739  18.912  0.00  0.00    +0.000 C 
ATOM     12  C   UNL     1      -3.029  12.383  19.549  0.00  0.00    +0.000 C 
ATOM     13  O   UNL     1      -3.919  11.599  18.733  0.00  0.00    +0.000 OA
ATOM     14  C   UNL     1      -2.810  10.958  18.070  0.00  0.00    +0.000 C 
BRANCH  11  15
ATOM     15  C   UNL     1      -0.894  12.745  18.123  0.00  0.00    +0.000 C 
BRANCH  15  21
ATOM     16  C   UNL     1       2.313  12.677  18.632  0.00  0.00    +0.000 C 
ATOM     17  N   UNL     1       1.327  13.575  19.173  0.00  0.00    +0.000 N 
ATOM     18  C   UNL     1       1.615  14.550  20.085  0.00  0.00    +0.000 A 
ATOM     19  N   UNL     1       0.525  15.208  20.389  0.00  0.00    +0.000 NA
ATOM     20  N   UNL     1      -0.505  14.651  19.675  0.00  0.00    +0.000 NA
ATOM     21  C   UNL     1      -0.032  13.652  18.953  0.00  0.00    +0.000 A 
ENDBRANCH  15  21
ENDBRANCH  11  15
ENDBRANCH   5  11
ENDBRANCH   1   9
BRANCH   2  22
ATOM     22  C   UNL     1       3.000   7.109  17.944  0.00  0.00    +0.000 A 
ATOM     23  C   UNL     1       2.309   5.927  17.900  0.00  0.00    +0.000 A 
ATOM     24  C   UNL     1       3.039   4.830  17.529  0.00  0.00    +0.000 A 
ATOM     25  N   UNL     1       4.350   4.917  17.209  0.00  0.00    +0.000 NA
ATOM     26  C   UNL     1       4.952   6.129  17.263  0.00  0.00    +0.000 A 
ATOM     27  N   UNL     1       4.310   7.253  17.635  0.00  0.00    +0.000 NA
BRANCH  26  28
ATOM     28  C   UNL     1       6.402   6.236  16.860  0.00  0.00    +0.000 C 
ATOM     29  C   UNL     1       7.487   6.327  17.911  0.00  0.00    +0.000 C 
ATOM     30  C   UNL     1       7.358   5.085  17.083  0.00  0.00    +0.000 C 
ENDBRANCH  26  28
BRANCH  24  31
ATOM     31  C   UNL     1       2.361   3.476  17.504  0.00  0.00    +0.000 C 
BRANCH  31  32
ATOM     32  N   UNL     1       2.243   2.823  18.835  0.00  0.00    +0.000 NA
ATOM     33  C   UNL     1       3.494   2.999  19.595  0.00  0.00    +0.000 C 
ATOM     34  C   UNL     1       3.390   2.581  21.062  0.00  0.00    +0.000 C 
ATOM     35  C   UNL     1       2.219   3.268  21.746  0.00  0.00    +0.000 C 
ATOM     36  C   UNL     1       0.942   2.949  20.986  0.00  0.00    +0.000 C 
ATOM     37  C   UNL     1       1.060   3.366  19.521  0.00  0.00    +0.000 C 
ENDBRANCH  31  32
ENDBRANCH  24  31
ENDBRANCH   2  22
TORSDOF 8
ENDMDL
MODEL 6
REMARK VINA RESULT:      -8.7      1.764      2.487
REMARK  Name = 
REMARK  9 active torsions:
REMARK  status: ('A' for Active; 'I' for Inactive)
REMARK    1  A    between atoms: C_1  and  N_2
REMARK    2  A    between atoms: C_6  and  C_7
REMARK    3  A    between atoms: C_7  and  C_8
REMARK    4  A    between atoms: C_8  and  C_9
REMARK    5  A    between atoms: C_13  and  N_14
REMARK    6  A    between atoms: C_15  and  C_17
REMARK    7  A    between atoms: C_19  and  C_20
REMARK    8  A    between atoms: C_20  and  N_21
REMARK    9  A    between atoms: C_28  and  C_29
REMARK                            x       y       z     vdW  Elec       q    Type
REMARK                         _______ _______ _______ _____ _____    ______ ____
ROOT
ATOM      1  N   UNL     1       1.285   7.755  20.618  0.00  0.00    +0.000 N 
ATOM      2  C   UNL     1       1.976   7.690  19.438  0.00  0.00    +0.000 C 
ATOM      3  O   UNL     1       2.174   8.623  18.664  0.00  0.00    +0.000 OA
ATOM      4  H   UNL     1       1.298   6.904  21.178  0.00  0.00    +0.000 HD
ENDROOT
BRANCH   1   9
ATOM      5  C   UNL     1      -0.373  11.064  20.591  0.00  0.00    +0.000 A 
ATOM      6  C   UNL     1      -0.672  11.209  21.962  0.00  0.00    +0.000 A 
ATOM      7  C   UNL     1      -0.348  10.220  22.884  0.00  0.00    +0.000 A 
ATOM      8  C   UNL     1       0.291   9.059  22.459  0.00  0.00    +0.000 A 
ATOM      9  C   UNL     1       0.597   8.871  21.113  0.00  0.00    +0.000 A 
ATOM     10  C   UNL     1       0.250   9.864  20.198  0.00  0.00    +0.000 A 
BRANCH   5  11
ATOM     11  C   UNL     1      -0.674  12.214  19.528  0.00  0.00    +0.000 C 
ATOM     12  C   UNL     1       0.466  13.255  19.315  0.00  0.00    +0.000 C 
ATOM     13  O   UNL     1      -0.347  14.342  19.795  0.00  0.00    +0.000 OA
ATOM     14  C   UNL     1      -1.468  13.461  20.011  0.00  0.00    +0.000 C 
BRANCH  11  15
ATOM     15  C   UNL     1      -1.175  11.577  18.213  0.00  0.00    +0.000 C 
BRANCH  15  21
ATOM     16  C   UNL     1      -2.947  10.976  15.558  0.00  0.00    +0.000 C 
ATOM     17  N   UNL     1      -3.388  11.299  16.890  0.00  0.00    +0.000 N 
ATOM     18  C   UNL     1      -4.700  11.468  17.229  0.00  0.00    +0.000 A 
ATOM     19  N   UNL     1      -4.795  11.749  18.504  0.00  0.00    +0.000 NA
ATOM     20  N   UNL     1      -3.522  11.778  19.015  0.00  0.00    +0.000 NA
ATOM     21  C   UNL     1      -2.666  11.526  18.042  0.00  0.00    +0.000 A 
ENDBRANCH  15  21
ENDBRANCH  11  15
ENDBRANCH   5  11
ENDBRANCH   1   9
BRANCH   2  22
ATOM     22  C   UNL     1       2.510   6.355  19.085  0.00  0.00    +0.000 A 
ATOM     23  C   UNL     1       3.399   6.281  18.046  0.00  0.00    +0.000 A 
ATOM     24  C   UNL     1       3.816   5.020  17.715  0.00  0.00    +0.000 A 
ATOM     25  N   UNL     1       3.389   3.926  18.386  0.00  0.00    +0.000 NA
ATOM     26  C   UNL     1       2.521   4.091  19.412  0.00  0.00    +0.000 A 
ATOM     27  N   UNL     1       2.049   5.295  19.790  0.00  0.00    +0.000 NA
BRANCH  26  28
ATOM     28  C   UNL     1       2.082   2.876  20.192  0.00  0.00    +0.000 C 
ATOM     29  C   UNL     1       2.709   2.556  21.532  0.00  0.00    +0.000 C 
ATOM     30  C   UNL     1       1.284   3.019  21.469  0.00  0.00    +0.000 C 
ENDBRANCH  26  28
BRANCH  24  31
ATOM     31  C   UNL     1       4.761   4.846  16.545  0.00  0.00    +0.000 C 
BRANCH  31  32
ATOM     32  N   UNL     1       6.161   5.266  16.819  0.00  0.00    +0.000 NA
ATOM     33  C   UNL     1       6.246   6.736  16.870  0.00  0.00    +0.000 C 
ATOM     34  C   UNL     1       7.585   7.262  17.387  0.00  0.00    +0.000 C 
ATOM     35  C   UNL     1       7.940   6.635  18.726  0.00  0.00    +0.000 C 
ATOM     36  C   UNL     1       7.956   5.123  18.579  0.00  0.00    +0.000 C 
ATOM     37  C   UNL     1       6.615   4.610  18.056  0.00  0.00    +0.000 C 
ENDBRANCH  31  32
ENDBRANCH  24  31
ENDBRANCH   2  22
TORSDOF 8
ENDMDL
MODEL 7
REMARK VINA RESULT:      -8.7      2.416      4.475
REMARK  Name = 
REMARK  9 active torsions:
REMARK  status: ('A' for Active; 'I' for Inactive)
REMARK    1  A    between atoms: C_1  and  N_2
REMARK    2  A    between atoms: C_6  and  C_7
REMARK    3  A    between atoms: C_7  and  C_8
REMARK    4  A    between atoms: C_8  and  C_9
REMARK    5  A    between atoms: C_13  and  N_14
REMARK    6  A    between atoms: C_15  and  C_17
REMARK    7  A    between atoms: C_19  and  C_20
REMARK    8  A    between atoms: C_20  and  N_21
REMARK    9  A    between atoms: C_28  and  C_29
REMARK                            x       y       z     vdW  Elec       q    Type
REMARK                         _______ _______ _______ _____ _____    ______ ____
ROOT
ATOM      1  N   UNL     1       0.515   9.194  18.826  0.00  0.00    +0.000 N 
ATOM      2  C   UNL     1       1.705   9.263  18.151  0.00  0.00    +0.000 C 
ATOM      3  O   UNL     1       2.117  10.226  17.509  0.00  0.00    +0.000 OA
ATOM      4  H   UNL     1       0.378   8.350  19.380  0.00  0.00    +0.000 HD
ENDROOT
BRANCH   1   9
ATOM      5  C   UNL     1      -1.677  11.870  20.141  0.00  0.00    +0.000 A 
ATOM      6  C   UNL     1      -2.527  12.070  19.032  0.00  0.00    +0.000 A 
ATOM      7  C   UNL     1      -2.368  11.344  17.857  0.00  0.00    +0.000 A 
ATOM      8  C   UNL     1      -1.358  10.392  17.761  0.00  0.00    +0.000 A 
ATOM      9  C   UNL     1      -0.491  10.169  18.829  0.00  0.00    +0.000 A 
ATOM     10  C   UNL     1      -0.651  10.916  19.995  0.00  0.00    +0.000 A 
BRANCH   5  11
ATOM     11  C   UNL     1      -1.884  12.642  21.522  0.00  0.00    +0.000 C 
ATOM     12  C   UNL     1      -0.615  13.326  22.113  0.00  0.00    +0.000 C 
ATOM     13  O   UNL     1      -0.632  12.494  23.287  0.00  0.00    +0.000 OA
ATOM     14  C   UNL     1      -1.819  11.811  22.834  0.00  0.00    +0.000 C 
BRANCH  11  15
ATOM     15  C   UNL     1      -3.093  13.595  21.399  0.00  0.00    +0.000 C 
BRANCH  15  21
ATOM     16  C   UNL     1      -3.823  14.631  24.390  0.00  0.00    +0.000 C 
ATOM     17  N   UNL     1      -4.535  13.702  23.552  0.00  0.00    +0.000 N 
ATOM     18  C   UNL     1      -5.659  13.035  23.951  0.00  0.00    +0.000 A 
ATOM     19  N   UNL     1      -6.084  12.265  22.981  0.00  0.00    +0.000 NA
ATOM     20  N   UNL     1      -5.220  12.416  21.927  0.00  0.00    +0.000 NA
ATOM     21  C   UNL     1      -4.271  13.267  22.271  0.00  0.00    +0.000 A 
ENDBRANCH  15  21
ENDBRANCH  11  15
ENDBRANCH   5  11
ENDBRANCH   1   9
BRANCH   2  22
ATOM     22  C   UNL     1       2.542   8.044  18.210  0.00  0.00    +0.000 A 
ATOM     23  C   UNL     1       2.338   7.182  19.256  0.00  0.00    +0.000 A 
ATOM     24  C   UNL     1       3.179   6.103  19.304  0.00  0.00    +0.000 A 
ATOM     25  N   UNL     1       4.132   5.896  18.367  0.00  0.00    +0.000 NA
ATOM     26  C   UNL     1       4.255   6.790  17.357  0.00  0.00    +0.000 A 
ATOM     27  N   UNL     1       3.480   7.886  17.247  0.00  0.00    +0.000 NA
BRANCH  26  28
ATOM     28  C   UNL     1       5.286   6.535  16.285  0.00  0.00    +0.000 C 
ATOM     29  C   UNL     1       6.610   5.890  16.631  0.00  0.00    +0.000 C 
ATOM     30  C   UNL     1       5.600   5.127  15.828  0.00  0.00    +0.000 C 
ENDBRANCH  26  28
BRANCH  24  31
ATOM     31  C   UNL     1       3.052   5.129  20.456  0.00  0.00    +0.000 C 
BRANCH  31  32
ATOM     32  N   UNL     1       2.680   3.747  20.054  0.00  0.00    +0.000 NA
ATOM     33  C   UNL     1       1.467   3.775  19.218  0.00  0.00    +0.000 C 
ATOM     34  C   UNL     1       1.143   2.437  18.551  0.00  0.00    +0.000 C 
ATOM     35  C   UNL     1       2.340   1.905  17.781  0.00  0.00    +0.000 C 
ATOM     36  C   UNL     1       3.525   1.783  18.725  0.00  0.00    +0.000 C 
ATOM     37  C   UNL     1       3.835   3.124  19.388  0.00  0.00    +0.000 C 
ENDBRANCH  31  32
ENDBRANCH  24  31
ENDBRANCH   2  22
TORSDOF 8
ENDMDL
MODEL 8
REMARK VINA RESULT:      -8.6      2.838      3.988
REMARK  Name = 
REMARK  9 active torsions:
REMARK  status: ('A' for Active; 'I' for Inactive)
REMARK    1  A    between atoms: C_1  and  N_2
REMARK    2  A    between atoms: C_6  and  C_7
REMARK    3  A    between atoms: C_7  and  C_8
REMARK    4  A    between atoms: C_8  and  C_9
REMARK    5  A    between atoms: C_13  and  N_14
REMARK    6  A    between atoms: C_15  and  C_17
REMARK    7  A    between atoms: C_19  and  C_20
REMARK    8  A    between atoms: C_20  and  N_21
REMARK    9  A    between atoms: C_28  and  C_29
REMARK                            x       y       z     vdW  Elec       q    Type
REMARK                         _______ _______ _______ _____ _____    ______ ____
ROOT
ATOM      1  N   UNL     1       1.328   8.922  19.145  0.00  0.00    +0.000 N 
ATOM      2  C   UNL     1       2.211   8.332  18.281  0.00  0.00    +0.000 C 
ATOM      3  O   UNL     1       2.545   8.765  17.180  0.00  0.00    +0.000 OA
ATOM      4  H   UNL     1       1.240   8.470  20.053  0.00  0.00    +0.000 HD
ENDROOT
BRANCH   1   9
ATOM      5  C   UNL     1       0.416  12.509  19.161  0.00  0.00    +0.000 A 
ATOM      6  C   UNL     1      -0.863  12.449  18.569  0.00  0.00    +0.000 A 
ATOM      7  C   UNL     1      -1.413  11.242  18.151  0.00  0.00    +0.000 A 
ATOM      8  C   UNL     1      -0.699  10.059  18.321  0.00  0.00    +0.000 A 
ATOM      9  C   UNL     1       0.572  10.075  18.894  0.00  0.00    +0.000 A 
ATOM     10  C   UNL     1       1.117  11.295  19.292  0.00  0.00    +0.000 A 
BRANCH   5  11
ATOM     11  C   UNL     1       1.036  13.873  19.710  0.00  0.00    +0.000 C 
ATOM     12  C   UNL     1       0.308  15.176  19.266  0.00  0.00    +0.000 C 
ATOM     13  O   UNL     1       1.462  15.659  18.555  0.00  0.00    +0.000 OA
ATOM     14  C   UNL     1       2.228  14.495  18.928  0.00  0.00    +0.000 C 
BRANCH  11  15
ATOM     15  C   UNL     1       1.228  13.768  21.239  0.00  0.00    +0.000 C 
BRANCH  15  21
ATOM     16  C   UNL     1      -0.614  11.389  22.462  0.00  0.00    +0.000 C 
ATOM     17  N   UNL     1      -0.804  12.813  22.537  0.00  0.00    +0.000 N 
ATOM     18  C   UNL     1      -1.891  13.400  23.120  0.00  0.00    +0.000 A 
ATOM     19  N   UNL     1      -1.788  14.702  23.041  0.00  0.00    +0.000 NA
ATOM     20  N   UNL     1      -0.618  14.983  22.384  0.00  0.00    +0.000 NA
ATOM     21  C   UNL     1      -0.027  13.848  22.059  0.00  0.00    +0.000 A 
ENDBRANCH  15  21
ENDBRANCH  11  15
ENDBRANCH   5  11
ENDBRANCH   1   9
BRANCH   2  22
ATOM     22  C   UNL     1       2.790   7.049  18.739  0.00  0.00    +0.000 A 
ATOM     23  C   UNL     1       3.938   6.616  18.129  0.00  0.00    +0.000 A 
ATOM     24  C   UNL     1       4.400   5.395  18.541  0.00  0.00    +0.000 A 
ATOM     25  N   UNL     1       3.771   4.679  19.501  0.00  0.00    +0.000 NA
ATOM     26  C   UNL     1       2.650   5.189  20.063  0.00  0.00    +0.000 A 
ATOM     27  N   UNL     1       2.121   6.374  19.703  0.00  0.00    +0.000 NA
BRANCH  26  28
ATOM     28  C   UNL     1       1.976   4.413  21.167  0.00  0.00    +0.000 C 
ATOM     29  C   UNL     1       1.089   3.231  20.843  0.00  0.00    +0.000 C 
ATOM     30  C   UNL     1       2.414   3.006  21.507  0.00  0.00    +0.000 C 
ENDBRANCH  26  28
BRANCH  24  31
ATOM     31  C   UNL     1       5.636   4.821  17.881  0.00  0.00    +0.000 C 
BRANCH  31  32
ATOM     32  N   UNL     1       5.744   5.106  16.425  0.00  0.00    +0.000 NA
ATOM     33  C   UNL     1       7.160   5.136  16.022  0.00  0.00    +0.000 C 
ATOM     34  C   UNL     1       7.372   5.175  14.507  0.00  0.00    +0.000 C 
ATOM     35  C   UNL     1       6.619   4.048  13.819  0.00  0.00    +0.000 C 
ATOM     36  C   UNL     1       5.145   4.143  14.177  0.00  0.00    +0.000 C 
ATOM     37  C   UNL     1       4.947   4.109  15.692  0.00  0.00    +0.000 C 
ENDBRANCH  31  32
ENDBRANCH  24  31
ENDBRANCH   2  22
TORSDOF 8
ENDMDL
MODEL 9
REMARK VINA RESULT:      -8.6      3.827     10.113
REMARK  Name = 
REMARK  9 active torsions:
REMARK  status: ('A' for Active; 'I' for Inactive)
REMARK    1  A    between atoms: C_1  and  N_2
REMARK    2  A    between atoms: C_6  and  C_7
REMARK    3  A    between atoms: C_7  and  C_8
REMARK    4  A    between atoms: C_8  and  C_9
REMARK    5  A    between atoms: C_13  and  N_14
REMARK    6  A    between atoms: C_15  and  C_17
REMARK    7  A    between atoms: C_19  and  C_20
REMARK    8  A    between atoms: C_20  and  N_21
REMARK    9  A    between atoms: C_28  and  C_29
REMARK                            x       y       z     vdW  Elec       q    Type
REMARK                         _______ _______ _______ _____ _____    ______ ____
ROOT
ATOM      1  N   UNL     1       2.063   7.247  18.768  0.00  0.00    +0.000 N 
ATOM      2  C   UNL     1       2.045   8.444  18.105  0.00  0.00    +0.000 C 
ATOM      3  O   UNL     1       2.405   8.634  16.945  0.00  0.00    +0.000 OA
ATOM      4  H   UNL     1       1.641   7.257  19.695  0.00  0.00    +0.000 HD
ENDROOT
BRANCH   1   9
ATOM      5  C   UNL     1       4.536   4.895  17.336  0.00  0.00    +0.000 A 
ATOM      6  C   UNL     1       3.733   3.745  17.184  0.00  0.00    +0.000 A 
ATOM      7  C   UNL     1       2.397   3.737  17.566  0.00  0.00    +0.000 A 
ATOM      8  C   UNL     1       1.823   4.884  18.106  0.00  0.00    +0.000 A 
ATOM      9  C   UNL     1       2.582   6.040  18.282  0.00  0.00    +0.000 A 
ATOM     10  C   UNL     1       3.925   6.027  17.910  0.00  0.00    +0.000 A 
BRANCH   5  11
ATOM     11  C   UNL     1       6.051   4.947  16.841  0.00  0.00    +0.000 C 
ATOM     12  C   UNL     1       7.133   4.749  17.944  0.00  0.00    +0.000 C 
ATOM     13  O   UNL     1       7.671   6.069  17.747  0.00  0.00    +0.000 OA
ATOM     14  C   UNL     1       6.721   6.344  16.698  0.00  0.00    +0.000 C 
BRANCH  11  15
ATOM     15  C   UNL     1       6.228   4.000  15.633  0.00  0.00    +0.000 C 
BRANCH  15  21
ATOM     16  C   UNL     1       5.804   3.348  12.479  0.00  0.00    +0.000 C 
ATOM     17  N   UNL     1       6.712   4.276  13.100  0.00  0.00    +0.000 N 
ATOM     18  C   UNL     1       7.626   5.017  12.405  0.00  0.00    +0.000 A 
ATOM     19  N   UNL     1       8.306   5.770  13.232  0.00  0.00    +0.000 NA
ATOM     20  N   UNL     1       7.843   5.515  14.497  0.00  0.00    +0.000 NA
ATOM     21  C   UNL     1       6.894   4.600  14.428  0.00  0.00    +0.000 A 
ENDBRANCH  15  21
ENDBRANCH  11  15
ENDBRANCH   5  11
ENDBRANCH   1   9
BRANCH   2  22
ATOM     22  C   UNL     1       1.553   9.600  18.888  0.00  0.00    +0.000 A 
ATOM     23  C   UNL     1       1.785  10.853  18.386  0.00  0.00    +0.000 A 
ATOM     24  C   UNL     1       1.369  11.891  19.176  0.00  0.00    +0.000 A 
ATOM     25  N   UNL     1       0.753  11.686  20.362  0.00  0.00    +0.000 NA
ATOM     26  C   UNL     1       0.548  10.412  20.775  0.00  0.00    +0.000 A 
ATOM     27  N   UNL     1       0.942   9.337  20.067  0.00  0.00    +0.000 NA
BRANCH  26  28
ATOM     28  C   UNL     1      -0.183  10.182  22.075  0.00  0.00    +0.000 C 
ATOM     29  C   UNL     1      -0.660   8.796  22.453  0.00  0.00    +0.000 C 
ATOM     30  C   UNL     1       0.470   9.425  23.211  0.00  0.00    +0.000 C 
ENDBRANCH  26  28
BRANCH  24  31
ATOM     31  C   UNL     1       1.633  13.309  18.717  0.00  0.00    +0.000 C 
BRANCH  31  32
ATOM     32  N   UNL     1       3.057  13.731  18.812  0.00  0.00    +0.000 NA
ATOM     33  C   UNL     1       3.354  14.736  17.777  0.00  0.00    +0.000 C 
ATOM     34  C   UNL     1       4.716  15.414  17.945  0.00  0.00    +0.000 C 
ATOM     35  C   UNL     1       4.872  15.989  19.343  0.00  0.00    +0.000 C 
ATOM     36  C   UNL     1       4.674  14.880  20.363  0.00  0.00    +0.000 C 
ATOM     37  C   UNL     1       3.314  14.207  20.181  0.00  0.00    +0.000 C 
ENDBRANCH  31  32
ENDBRANCH  24  31
ENDBRANCH   2  22
TORSDOF 8
ENDMDL
