MODEL 1
REMARK VINA RESULT:      -8.8      0.000      0.000
REMARK  Name = 
REMARK  6 active torsions:
REMARK  status: ('A' for Active; 'I' for Inactive)
REMARK    1  A    between atoms: C_1  and  C_2
REMARK    2  A    between atoms: C_2  and  S_3
REMARK    3  A    between atoms: C_2  and  C_10
REMARK    4  A    between atoms: S_3  and  C_4
REMARK    5  A    between atoms: N_8  and  C_9
REMARK    6  A    between atoms: C_14  and  C_15
REMARK                            x       y       z     vdW  Elec       q    Type
REMARK                         _______ _______ _______ _____ _____    ______ ____
ROOT
ATOM      1  C   UNL     1       4.204   4.529  17.011  0.00  0.00    +0.000 A 
ATOM      2  C   UNL     1       3.730   3.216  17.083  0.00  0.00    +0.000 A 
ATOM      3  C   UNL     1       2.676   2.881  17.937  0.00  0.00    +0.000 A 
ATOM      4  C   UNL     1       2.090   3.847  18.762  0.00  0.00    +0.000 A 
ATOM      5  C   UNL     1       2.540   5.173  18.727  0.00  0.00    +0.000 A 
ATOM      6  C   UNL     1       3.570   5.505  17.826  0.00  0.00    +0.000 A 
ENDROOT
BRANCH   5   7
ATOM      7  C   UNL     1       2.032   6.225  19.683  0.00  0.00    +0.000 C 
ATOM      8  O   UNL     1       1.821   5.898  20.848  0.00  0.00    +0.000 OA
ATOM      9  N   UNL     1       1.862   7.485  19.140  0.00  0.00    +0.000 N 
ATOM     10  C   UNL     1       1.350   8.655  19.765  0.00  0.00    +0.000 A 
ATOM     11  C   UNL     1       1.463   9.813  19.007  0.00  0.00    +0.000 A 
ATOM     12  C   UNL     1       1.053  11.028  19.545  0.00  0.00    +0.000 A 
ATOM     13  C   UNL     1       0.418  11.054  20.779  0.00  0.00    +0.000 A 
ATOM     14  C   UNL     1      -0.114  12.258  21.276  0.00  0.00    +0.000 A 
ATOM     15  C   UNL     1      -0.892  12.259  22.427  0.00  0.00    +0.000 A 
ATOM     16  C   UNL     1      -1.083  11.064  23.110  0.00  0.00    +0.000 A 
ATOM     17  C   UNL     1      -0.481   9.878  22.646  0.00  0.00    +0.000 A 
ATOM     18  C   UNL     1       0.265   9.829  21.466  0.00  0.00    +0.000 A 
ATOM     19  N   UNL     1       0.767   8.656  20.981  0.00  0.00    +0.000 NA
ATOM     20  H   UNL     1       2.230   7.633  18.216  0.00  0.00    +0.000 HD
ENDBRANCH   5   7
BRANCH   1  22
ATOM     21  C   UNL     1       5.408   4.353  14.687  0.00  0.00    +0.000 C 
ATOM     22  C   UNL     1       5.383   4.922  16.115  0.00  0.00    +0.000 C 
BRANCH  22  23
ATOM     23  S   UNL     1       7.005   4.595  16.924  0.00  0.00    +0.000 S 
BRANCH  23  24
ATOM     24  C   UNL     1       7.475   6.187  17.398  0.00  0.00    +0.000 A 
ATOM     25  N   UNL     1       7.456   7.264  16.647  0.00  0.00    +0.000 NA
ATOM     26  N   UNL     1       7.915   8.316  17.409  0.00  0.00    +0.000 NA
ATOM     27  C   UNL     1       8.184   7.844  18.606  0.00  0.00    +0.000 A 
ATOM     28  N   UNL     1       7.921   6.508  18.646  0.00  0.00    +0.000 N 
ATOM     29  C   UNL     1       8.082   5.650  19.787  0.00  0.00    +0.000 C 
ENDBRANCH  23  24
ENDBRANCH  22  23
ENDBRANCH   1  22
TORSDOF 4
ENDMDL
MODEL 2
REMARK VINA RESULT:      -8.5      1.925      2.758
REMARK  Name = 
REMARK  6 active torsions:
REMARK  status: ('A' for Active; 'I' for Inactive)
REMARK    1  A    between atoms: C_1  and  C_2
REMARK    2  A    between atoms: C_2  and  S_3
REMARK    3  A    between atoms: C_2  and  C_10
REMARK    4  A    between atoms: S_3  and  C_4
REMARK    5  A    between atoms: N_8  and  C_9
REMARK    6  A    between atoms: C_14  and  C_15
REMARK                            x       y       z     vdW  Elec       q    Type
REMARK                         _______ _______ _______ _____ _____    ______ ____
ROOT
ATOM      1  C   UNL     1       4.077   5.087  17.241  0.00  0.00    +0.000 A 
ATOM      2  C   UNL     1       3.537   3.798  17.296  0.00  0.00    +0.000 A 
ATOM      3  C   UNL     1       2.426   3.520  18.096  0.00  0.00    +0.000 A 
ATOM      4  C   UNL     1       1.845   4.519  18.884  0.00  0.00    +0.000 A 
ATOM      5  C   UNL     1       2.358   5.822  18.866  0.00  0.00    +0.000 A 
ATOM      6  C   UNL     1       3.448   6.098  18.018  0.00  0.00    +0.000 A 
ENDROOT
BRANCH   5   7
ATOM      7  C   UNL     1       1.853   6.904  19.788  0.00  0.00    +0.000 C 
ATOM      8  O   UNL     1       1.622   6.610  20.958  0.00  0.00    +0.000 OA
ATOM      9  N   UNL     1       1.707   8.153  19.213  0.00  0.00    +0.000 N 
ATOM     10  C   UNL     1       1.203   9.345  19.801  0.00  0.00    +0.000 A 
ATOM     11  C   UNL     1       1.342  10.482  19.017  0.00  0.00    +0.000 A 
ATOM     12  C   UNL     1       0.942  11.715  19.519  0.00  0.00    +0.000 A 
ATOM     13  C   UNL     1       0.291  11.780  20.743  0.00  0.00    +0.000 A 
ATOM     14  C   UNL     1      -0.230  13.004  21.203  0.00  0.00    +0.000 A 
ATOM     15  C   UNL     1      -1.023  13.043  22.343  0.00  0.00    +0.000 A 
ATOM     16  C   UNL     1      -1.240  11.868  23.052  0.00  0.00    +0.000 A 
ATOM     17  C   UNL     1      -0.649  10.664  22.626  0.00  0.00    +0.000 A 
ATOM     18  C   UNL     1       0.113  10.575  21.458  0.00  0.00    +0.000 A 
ATOM     19  N   UNL     1       0.605   9.383  21.009  0.00  0.00    +0.000 NA
ATOM     20  H   UNL     1       2.090   8.273  18.290  0.00  0.00    +0.000 HD
ENDBRANCH   5   7
BRANCH   1  22
ATOM     21  C   UNL     1       5.186   6.524  15.348  0.00  0.00    +0.000 C 
ATOM     22  C   UNL     1       5.318   5.416  16.406  0.00  0.00    +0.000 C 
BRANCH  22  23
ATOM     23  S   UNL     1       6.042   3.916  15.622  0.00  0.00    +0.000 S 
BRANCH  23  24
ATOM     24  C   UNL     1       6.950   4.613  14.329  0.00  0.00    +0.000 A 
ATOM     25  N   UNL     1       7.914   5.498  14.439  0.00  0.00    +0.000 NA
ATOM     26  N   UNL     1       8.363   5.789  13.170  0.00  0.00    +0.000 NA
ATOM     27  C   UNL     1       7.665   5.058  12.330  0.00  0.00    +0.000 A 
ATOM     28  N   UNL     1       6.764   4.300  13.015  0.00  0.00    +0.000 N 
ATOM     29  C   UNL     1       5.834   3.368  12.440  0.00  0.00    +0.000 C 
ENDBRANCH  23  24
ENDBRANCH  22  23
ENDBRANCH   1  22
TORSDOF 4
ENDMDL
MODEL 3
REMARK VINA RESULT:      -8.3      4.106      7.283
REMARK  Name = 
REMARK  6 active torsions:
REMARK  status: ('A' for Active; 'I' for Inactive)
REMARK    1  A    between atoms: C_1  and  C_2
REMARK    2  A    between atoms: C_2  and  S_3
REMARK    3  A    between atoms: C_2  and  C_10
REMARK    4  A    between atoms: S_3  and  C_4
REMARK    5  A    between atoms: N_8  and  C_9
REMARK    6  A    between atoms: C_14  and  C_15
REMARK                            x       y       z     vdW  Elec       q    Type
REMARK                         _______ _______ _______ _____ _____    ______ ____
ROOT
ATOM      1  C   UNL     1       4.448   5.555  17.208  0.00  0.00    +0.000 A 
ATOM      2  C   UNL     1       4.851   4.803  16.100  0.00  0.00    +0.000 A 
ATOM      3  C   UNL     1       6.166   4.862  15.633  0.00  0.00    +0.000 A 
ATOM      4  C   UNL     1       7.105   5.699  16.246  0.00  0.00    +0.000 A 
ATOM      5  C   UNL     1       6.742   6.476  17.353  0.00  0.00    +0.000 A 
ATOM      6  C   UNL     1       5.426   6.369  17.842  0.00  0.00    +0.000 A 
ENDROOT
BRANCH   5   7
ATOM      7  C   UNL     1       7.675   7.488  17.972  0.00  0.00    +0.000 C 
ATOM      8  O   UNL     1       8.508   7.092  18.783  0.00  0.00    +0.000 OA
ATOM      9  N   UNL     1       7.502   8.792  17.544  0.00  0.00    +0.000 N 
ATOM     10  C   UNL     1       8.180   9.963  17.980  0.00  0.00    +0.000 A 
ATOM     11  C   UNL     1       7.904  11.103  17.237  0.00  0.00    +0.000 A 
ATOM     12  C   UNL     1       8.561  12.292  17.535  0.00  0.00    +0.000 A 
ATOM     13  C   UNL     1       9.386  12.361  18.649  0.00  0.00    +0.000 A 
ATOM     14  C   UNL     1       9.954  13.590  19.032  0.00  0.00    +0.000 A 
ATOM     15  C   UNL     1      10.643  13.698  20.234  0.00  0.00    +0.000 A 
ATOM     16  C   UNL     1      10.812  12.562  21.017  0.00  0.00    +0.000 A 
ATOM     17  C   UNL     1      10.305  11.322  20.585  0.00  0.00    +0.000 A 
ATOM     18  C   UNL     1       9.565  11.183  19.409  0.00  0.00    +0.000 A 
ATOM     19  N   UNL     1       9.003   9.993  19.048  0.00  0.00    +0.000 NA
ATOM     20  H   UNL     1       6.890   8.932  16.759  0.00  0.00    +0.000 HD
ENDBRANCH   5   7
BRANCH   1  22
ATOM     21  C   UNL     1       2.730   6.206  19.080  0.00  0.00    +0.000 C 
ATOM     22  C   UNL     1       3.005   5.544  17.720  0.00  0.00    +0.000 C 
BRANCH  22  23
ATOM     23  S   UNL     1       2.283   3.850  17.716  0.00  0.00    +0.000 S 
BRANCH  23  24
ATOM     24  C   UNL     1       3.104   3.127  19.053  0.00  0.00    +0.000 A 
ATOM     25  N   UNL     1       4.353   2.720  19.075  0.00  0.00    +0.000 NA
ATOM     26  N   UNL     1       4.603   2.203  20.327  0.00  0.00    +0.000 NA
ATOM     27  C   UNL     1       3.499   2.327  21.030  0.00  0.00    +0.000 A 
ATOM     28  N   UNL     1       2.529   2.905  20.268  0.00  0.00    +0.000 N 
ATOM     29  C   UNL     1       1.191   3.211  20.695  0.00  0.00    +0.000 C 
ENDBRANCH  23  24
ENDBRANCH  22  23
ENDBRANCH   1  22
TORSDOF 4
ENDMDL
MODEL 4
REMARK VINA RESULT:      -8.2      4.520      7.417
REMARK  Name = 
REMARK  6 active torsions:
REMARK  status: ('A' for Active; 'I' for Inactive)
REMARK    1  A    between atoms: C_1  and  C_2
REMARK    2  A    between atoms: C_2  and  S_3
REMARK    3  A    between atoms: C_2  and  C_10
REMARK    4  A    between atoms: S_3  and  C_4
REMARK    5  A    between atoms: N_8  and  C_9
REMARK    6  A    between atoms: C_14  and  C_15
REMARK                            x       y       z     vdW  Elec       q    Type
REMARK                         _______ _______ _______ _____ _____    ______ ____
ROOT
ATOM      1  C   UNL     1       4.939   4.898  17.204  0.00  0.00    +0.000 A 
ATOM      2  C   UNL     1       5.281   4.512  15.904  0.00  0.00    +0.000 A 
ATOM      3  C   UNL     1       6.455   4.975  15.305  0.00  0.00    +0.000 A 
ATOM      4  C   UNL     1       7.301   5.860  15.981  0.00  0.00    +0.000 A 
ATOM      5  C   UNL     1       6.993   6.279  17.281  0.00  0.00    +0.000 A 
ATOM      6  C   UNL     1       5.831   5.766  17.890  0.00  0.00    +0.000 A 
ENDROOT
BRANCH   5   7
ATOM      7  C   UNL     1       7.800   7.328  18.006  0.00  0.00    +0.000 C 
ATOM      8  O   UNL     1       8.515   6.970  18.938  0.00  0.00    +0.000 OA
ATOM      9  N   UNL     1       7.659   8.618  17.529  0.00  0.00    +0.000 N 
ATOM     10  C   UNL     1       8.237   9.815  18.032  0.00  0.00    +0.000 A 
ATOM     11  C   UNL     1       8.044  10.933  17.232  0.00  0.00    +0.000 A 
ATOM     12  C   UNL     1       8.620  12.146  17.595  0.00  0.00    +0.000 A 
ATOM     13  C   UNL     1       9.272  12.258  18.815  0.00  0.00    +0.000 A 
ATOM     14  C   UNL     1       9.748  13.509  19.250  0.00  0.00    +0.000 A 
ATOM     15  C   UNL     1      10.251  13.659  20.536  0.00  0.00    +0.000 A 
ATOM     16  C   UNL     1      10.332  12.543  21.360  0.00  0.00    +0.000 A 
ATOM     17  C   UNL     1       9.924  11.281  20.887  0.00  0.00    +0.000 A 
ATOM     18  C   UNL     1       9.368  11.100  19.619  0.00  0.00    +0.000 A 
ATOM     19  N   UNL     1       8.895   9.888  19.207  0.00  0.00    +0.000 NA
ATOM     20  H   UNL     1       7.164   8.727  16.659  0.00  0.00    +0.000 HD
ENDBRANCH   5   7
BRANCH   1  22
ATOM     21  C   UNL     1       3.151   5.243  19.092  0.00  0.00    +0.000 C 
ATOM     22  C   UNL     1       3.640   4.441  17.876  0.00  0.00    +0.000 C 
BRANCH  22  23
ATOM     23  S   UNL     1       3.678   2.651  18.308  0.00  0.00    +0.000 S 
BRANCH  23  24
ATOM     24  C   UNL     1       2.898   2.657  19.849  0.00  0.00    +0.000 A 
ATOM     25  N   UNL     1       3.487   2.680  21.022  0.00  0.00    +0.000 NA
ATOM     26  N   UNL     1       2.503   2.670  21.986  0.00  0.00    +0.000 NA
ATOM     27  C   UNL     1       1.346   2.655  21.364  0.00  0.00    +0.000 A 
ATOM     28  N   UNL     1       1.545   2.648  20.016  0.00  0.00    +0.000 N 
ATOM     29  C   UNL     1       0.519   2.642  19.010  0.00  0.00    +0.000 C 
ENDBRANCH  23  24
ENDBRANCH  22  23
ENDBRANCH   1  22
TORSDOF 4
ENDMDL
MODEL 5
REMARK VINA RESULT:      -8.2      4.392      7.694
REMARK  Name = 
REMARK  6 active torsions:
REMARK  status: ('A' for Active; 'I' for Inactive)
REMARK    1  A    between atoms: C_1  and  C_2
REMARK    2  A    between atoms: C_2  and  S_3
REMARK    3  A    between atoms: C_2  and  C_10
REMARK    4  A    between atoms: S_3  and  C_4
REMARK    5  A    between atoms: N_8  and  C_9
REMARK    6  A    between atoms: C_14  and  C_15
REMARK                            x       y       z     vdW  Elec       q    Type
REMARK                         _______ _______ _______ _____ _____    ______ ____
ROOT
ATOM      1  C   UNL     1       7.143   5.223  16.999  0.00  0.00    +0.000 A 
ATOM      2  C   UNL     1       7.479   4.500  18.148  0.00  0.00    +0.000 A 
ATOM      3  C   UNL     1       7.980   5.147  19.280  0.00  0.00    +0.000 A 
ATOM      4  C   UNL     1       8.186   6.530  19.280  0.00  0.00    +0.000 A 
ATOM      5  C   UNL     1       7.871   7.292  18.148  0.00  0.00    +0.000 A 
ATOM      6  C   UNL     1       7.321   6.633  17.032  0.00  0.00    +0.000 A 
ENDROOT
BRANCH   5   7
ATOM      7  C   UNL     1       8.190   8.764  18.048  0.00  0.00    +0.000 C 
ATOM      8  O   UNL     1       7.821   9.372  17.048  0.00  0.00    +0.000 OA
ATOM      9  N   UNL     1       8.875   9.295  19.126  0.00  0.00    +0.000 N 
ATOM     10  C   UNL     1       9.363  10.619  19.298  0.00  0.00    +0.000 A 
ATOM     11  C   UNL     1       9.860  10.894  20.564  0.00  0.00    +0.000 A 
ATOM     12  C   UNL     1      10.305  12.177  20.865  0.00  0.00    +0.000 A 
ATOM     13  C   UNL     1      10.367  13.134  19.862  0.00  0.00    +0.000 A 
ATOM     14  C   UNL     1      10.933  14.396  20.122  0.00  0.00    +0.000 A 
ATOM     15  C   UNL     1      11.149  15.295  19.085  0.00  0.00    +0.000 A 
ATOM     16  C   UNL     1      10.741  14.952  17.802  0.00  0.00    +0.000 A 
ATOM     17  C   UNL     1      10.106  13.718  17.567  0.00  0.00    +0.000 A 
ATOM     18  C   UNL     1       9.917  12.768  18.573  0.00  0.00    +0.000 A 
ATOM     19  N   UNL     1       9.380  11.540  18.313  0.00  0.00    +0.000 NA
ATOM     20  H   UNL     1       8.964   8.709  19.939  0.00  0.00    +0.000 HD
ENDBRANCH   5   7
BRANCH   1  22
ATOM     21  C   UNL     1       7.310   4.911  14.400  0.00  0.00    +0.000 C 
ATOM     22  C   UNL     1       6.630   4.541  15.727  0.00  0.00    +0.000 C 
BRANCH  22  23
ATOM     23  S   UNL     1       4.805   4.710  15.540  0.00  0.00    +0.000 S 
BRANCH  23  24
ATOM     24  C   UNL     1       4.262   4.323  17.133  0.00  0.00    +0.000 A 
ATOM     25  N   UNL     1       4.224   3.128  17.677  0.00  0.00    +0.000 NA
ATOM     26  N   UNL     1       3.722   3.264  18.952  0.00  0.00    +0.000 NA
ATOM     27  C   UNL     1       3.484   4.541  19.146  0.00  0.00    +0.000 A 
ATOM     28  N   UNL     1       3.811   5.247  18.028  0.00  0.00    +0.000 N 
ATOM     29  C   UNL     1       3.699   6.670  17.864  0.00  0.00    +0.000 C 
ENDBRANCH  23  24
ENDBRANCH  22  23
ENDBRANCH   1  22
TORSDOF 4
ENDMDL
MODEL 6
REMARK VINA RESULT:      -8.2      4.488      8.220
REMARK  Name = 
REMARK  6 active torsions:
REMARK  status: ('A' for Active; 'I' for Inactive)
REMARK    1  A    between atoms: C_1  and  C_2
REMARK    2  A    between atoms: C_2  and  S_3
REMARK    3  A    between atoms: C_2  and  C_10
REMARK    4  A    between atoms: S_3  and  C_4
REMARK    5  A    between atoms: N_8  and  C_9
REMARK    6  A    between atoms: C_14  and  C_15
REMARK                            x       y       z     vdW  Elec       q    Type
REMARK                         _______ _______ _______ _____ _____    ______ ____
ROOT
ATOM      1  C   UNL     1       5.593   5.669  17.838  0.00  0.00    +0.000 A 
ATOM      2  C   UNL     1       6.363   4.636  18.381  0.00  0.00    +0.000 A 
ATOM      3  C   UNL     1       7.657   4.877  18.850  0.00  0.00    +0.000 A 
ATOM      4  C   UNL     1       8.223   6.153  18.761  0.00  0.00    +0.000 A 
ATOM      5  C   UNL     1       7.489   7.215  18.218  0.00  0.00    +0.000 A 
ATOM      6  C   UNL     1       6.170   6.967  17.794  0.00  0.00    +0.000 A 
ENDROOT
BRANCH   5   7
ATOM      7  C   UNL     1       8.093   8.578  17.982  0.00  0.00    +0.000 C 
ATOM      8  O   UNL     1       7.973   9.082  16.868  0.00  0.00    +0.000 OA
ATOM      9  N   UNL     1       8.728   9.142  19.073  0.00  0.00    +0.000 N 
ATOM     10  C   UNL     1       9.433  10.373  19.147  0.00  0.00    +0.000 A 
ATOM     11  C   UNL     1       9.814  10.748  20.429  0.00  0.00    +0.000 A 
ATOM     12  C   UNL     1      10.454  11.966  20.628  0.00  0.00    +0.000 A 
ATOM     13  C   UNL     1      10.821  12.735  19.532  0.00  0.00    +0.000 A 
ATOM     14  C   UNL     1      11.580  13.906  19.713  0.00  0.00    +0.000 A 
ATOM     15  C   UNL     1      12.090  14.587  18.614  0.00  0.00    +0.000 A 
ATOM     16  C   UNL     1      11.787  14.128  17.339  0.00  0.00    +0.000 A 
ATOM     17  C   UNL     1      10.962  13.000  17.169  0.00  0.00    +0.000 A 
ATOM     18  C   UNL     1      10.472  12.260  18.248  0.00  0.00    +0.000 A 
ATOM     19  N   UNL     1       9.748  11.117  18.067  0.00  0.00    +0.000 NA
ATOM     20  H   UNL     1       8.602   8.679  19.958  0.00  0.00    +0.000 HD
ENDBRANCH   5   7
BRANCH   1  22
ATOM     21  C   UNL     1       2.999   5.963  18.097  0.00  0.00    +0.000 C 
ATOM     22  C   UNL     1       4.187   5.431  17.279  0.00  0.00    +0.000 C 
BRANCH  22  23
ATOM     23  S   UNL     1       3.895   3.658  16.873  0.00  0.00    +0.000 S 
BRANCH  23  24
ATOM     24  C   UNL     1       2.671   3.244  18.018  0.00  0.00    +0.000 A 
ATOM     25  N   UNL     1       1.373   3.343  17.845  0.00  0.00    +0.000 NA
ATOM     26  N   UNL     1       0.761   2.915  19.003  0.00  0.00    +0.000 NA
ATOM     27  C   UNL     1       1.711   2.557  19.838  0.00  0.00    +0.000 A 
ATOM     28  N   UNL     1       2.930   2.746  19.260  0.00  0.00    +0.000 N 
ATOM     29  C   UNL     1       4.203   2.457  19.862  0.00  0.00    +0.000 C 
ENDBRANCH  23  24
ENDBRANCH  22  23
ENDBRANCH   1  22
TORSDOF 4
ENDMDL
MODEL 7
REMARK VINA RESULT:      -8.2      4.773     10.158
REMARK  Name = 
REMARK  6 active torsions:
REMARK  status: ('A' for Active; 'I' for Inactive)
REMARK    1  A    between atoms: C_1  and  C_2
REMARK    2  A    between atoms: C_2  and  S_3
REMARK    3  A    between atoms: C_2  and  C_10
REMARK    4  A    between atoms: S_3  and  C_4
REMARK    5  A    between atoms: N_8  and  C_9
REMARK    6  A    between atoms: C_14  and  C_15
REMARK                            x       y       z     vdW  Elec       q    Type
REMARK                         _______ _______ _______ _____ _____    ______ ____
ROOT
ATOM      1  C   UNL     1      -2.264  10.725  18.198  0.00  0.00    +0.000 A 
ATOM      2  C   UNL     1      -2.289  11.556  19.323  0.00  0.00    +0.000 A 
ATOM      3  C   UNL     1      -1.120  11.828  20.039  0.00  0.00    +0.000 A 
ATOM      4  C   UNL     1       0.098  11.252  19.663  0.00  0.00    +0.000 A 
ATOM      5  C   UNL     1       0.167  10.409  18.547  0.00  0.00    +0.000 A 
ATOM      6  C   UNL     1      -1.010  10.182  17.808  0.00  0.00    +0.000 A 
ENDROOT
BRANCH   5   7
ATOM      7  C   UNL     1       1.424   9.662  18.174  0.00  0.00    +0.000 C 
ATOM      8  O   UNL     1       2.193  10.183  17.370  0.00  0.00    +0.000 OA
ATOM      9  N   UNL     1       1.594   8.440  18.798  0.00  0.00    +0.000 N 
ATOM     10  C   UNL     1       2.635   7.489  18.612  0.00  0.00    +0.000 A 
ATOM     11  C   UNL     1       2.621   6.432  19.512  0.00  0.00    +0.000 A 
ATOM     12  C   UNL     1       3.630   5.476  19.464  0.00  0.00    +0.000 A 
ATOM     13  C   UNL     1       4.566   5.516  18.439  0.00  0.00    +0.000 A 
ATOM     14  C   UNL     1       5.514   4.485  18.306  0.00  0.00    +0.000 A 
ATOM     15  C   UNL     1       6.342   4.434  17.192  0.00  0.00    +0.000 A 
ATOM     16  C   UNL     1       6.260   5.448  16.246  0.00  0.00    +0.000 A 
ATOM     17  C   UNL     1       5.361   6.516  16.429  0.00  0.00    +0.000 A 
ATOM     18  C   UNL     1       4.478   6.577  17.509  0.00  0.00    +0.000 A 
ATOM     19  N   UNL     1       3.552   7.572  17.626  0.00  0.00    +0.000 NA
ATOM     20  H   UNL     1       0.961   8.224  19.550  0.00  0.00    +0.000 HD
ENDBRANCH   5   7
BRANCH   1  22
ATOM     21  C   UNL     1      -3.360   9.876  15.971  0.00  0.00    +0.000 C 
ATOM     22  C   UNL     1      -3.533  10.375  17.415  0.00  0.00    +0.000 C 
BRANCH  22  23
ATOM     23  S   UNL     1      -4.761  11.747  17.438  0.00  0.00    +0.000 S 
BRANCH  23  24
ATOM     24  C   UNL     1      -5.831  11.224  18.690  0.00  0.00    +0.000 A 
ATOM     25  N   UNL     1      -6.401  10.046  18.789  0.00  0.00    +0.000 NA
ATOM     26  N   UNL     1      -7.177  10.050  19.927  0.00  0.00    +0.000 NA
ATOM     27  C   UNL     1      -7.041  11.229  20.490  0.00  0.00    +0.000 A 
ATOM     28  N   UNL     1      -6.201  12.002  19.746  0.00  0.00    +0.000 N 
ATOM     29  C   UNL     1      -5.803  13.349  20.049  0.00  0.00    +0.000 C 
ENDBRANCH  23  24
ENDBRANCH  22  23
ENDBRANCH   1  22
TORSDOF 4
ENDMDL
MODEL 8
REMARK VINA RESULT:      -8.2      4.306      7.759
REMARK  Name = 
REMARK  6 active torsions:
REMARK  status: ('A' for Active; 'I' for Inactive)
REMARK    1  A    between atoms: C_1  and  C_2
REMARK    2  A    between atoms: C_2  and  S_3
REMARK    3  A    between atoms: C_2  and  C_10
REMARK    4  A    between atoms: S_3  and  C_4
REMARK    5  A    between atoms: N_8  and  C_9
REMARK    6  A    between atoms: C_14  and  C_15
REMARK                            x       y       z     vdW  Elec       q    Type
REMARK                         _______ _______ _______ _____ _____    ______ ____
ROOT
ATOM      1  C   UNL     1       6.771   5.474  17.146  0.00  0.00    +0.000 A 
ATOM      2  C   UNL     1       7.306   4.685  18.169  0.00  0.00    +0.000 A 
ATOM      3  C   UNL     1       8.072   5.256  19.188  0.00  0.00    +0.000 A 
ATOM      4  C   UNL     1       8.348   6.628  19.191  0.00  0.00    +0.000 A 
ATOM      5  C   UNL     1       7.839   7.453  18.181  0.00  0.00    +0.000 A 
ATOM      6  C   UNL     1       7.028   6.871  17.188  0.00  0.00    +0.000 A 
ENDROOT
BRANCH   5   7
ATOM      7  C   UNL     1       8.209   8.912  18.065  0.00  0.00    +0.000 C 
ATOM      8  O   UNL     1       7.821   9.533  17.079  0.00  0.00    +0.000 OA
ATOM      9  N   UNL     1       8.957   9.418  19.112  0.00  0.00    +0.000 N 
ATOM     10  C   UNL     1       9.500  10.723  19.260  0.00  0.00    +0.000 A 
ATOM     11  C   UNL     1      10.060  10.980  20.505  0.00  0.00    +0.000 A 
ATOM     12  C   UNL     1      10.564  12.245  20.784  0.00  0.00    +0.000 A 
ATOM     13  C   UNL     1      10.621  13.199  19.777  0.00  0.00    +0.000 A 
ATOM     14  C   UNL     1      11.244  14.439  20.011  0.00  0.00    +0.000 A 
ATOM     15  C   UNL     1      11.450  15.329  18.964  0.00  0.00    +0.000 A 
ATOM     16  C   UNL     1      10.977  15.000  17.700  0.00  0.00    +0.000 A 
ATOM     17  C   UNL     1      10.287  13.790  17.494  0.00  0.00    +0.000 A 
ATOM     18  C   UNL     1      10.104  12.849  18.509  0.00  0.00    +0.000 A 
ATOM     19  N   UNL     1       9.512  11.642  18.273  0.00  0.00    +0.000 NA
ATOM     20  H   UNL     1       9.057   8.829  19.922  0.00  0.00    +0.000 HD
ENDBRANCH   5   7
BRANCH   1  22
ATOM     21  C   UNL     1       5.390   5.845  14.947  0.00  0.00    +0.000 C 
ATOM     22  C   UNL     1       5.961   4.873  15.993  0.00  0.00    +0.000 C 
BRANCH  22  23
ATOM     23  S   UNL     1       4.612   3.773  16.595  0.00  0.00    +0.000 S 
BRANCH  23  24
ATOM     24  C   UNL     1       3.917   4.740  17.846  0.00  0.00    +0.000 A 
ATOM     25  N   UNL     1       3.403   5.941  17.711  0.00  0.00    +0.000 NA
ATOM     26  N   UNL     1       2.967   6.353  18.951  0.00  0.00    +0.000 NA
ATOM     27  C   UNL     1       3.220   5.380  19.798  0.00  0.00    +0.000 A 
ATOM     28  N   UNL     1       3.817   4.343  19.146  0.00  0.00    +0.000 N 
ATOM     29  C   UNL     1       4.231   3.101  19.737  0.00  0.00    +0.000 C 
ENDBRANCH  23  24
ENDBRANCH  22  23
ENDBRANCH   1  22
TORSDOF 4
ENDMDL
MODEL 9
REMARK VINA RESULT:      -8.1      2.261      3.527
REMARK  Name = 
REMARK  6 active torsions:
REMARK  status: ('A' for Active; 'I' for Inactive)
REMARK    1  A    between atoms: C_1  and  C_2
REMARK    2  A    between atoms: C_2  and  S_3
REMARK    3  A    between atoms: C_2  and  C_10
REMARK    4  A    between atoms: S_3  and  C_4
REMARK    5  A    between atoms: N_8  and  C_9
REMARK    6  A    between atoms: C_14  and  C_15
REMARK                            x       y       z     vdW  Elec       q    Type
REMARK                         _______ _______ _______ _____ _____    ______ ____
ROOT
ATOM      1  C   UNL     1       2.601   4.355  18.564  0.00  0.00    +0.000 A 
ATOM      2  C   UNL     1       2.359   3.980  19.889  0.00  0.00    +0.000 A 
ATOM      3  C   UNL     1       1.982   4.928  20.844  0.00  0.00    +0.000 A 
ATOM      4  C   UNL     1       1.866   6.279  20.502  0.00  0.00    +0.000 A 
ATOM      5  C   UNL     1       2.106   6.699  19.188  0.00  0.00    +0.000 A 
ATOM      6  C   UNL     1       2.438   5.726  18.226  0.00  0.00    +0.000 A 
ENDROOT
BRANCH   5   7
ATOM      7  C   UNL     1       2.119   8.156  18.794  0.00  0.00    +0.000 C 
ATOM      8  O   UNL     1       2.895   8.512  17.911  0.00  0.00    +0.000 OA
ATOM      9  N   UNL     1       1.226   8.962  19.476  0.00  0.00    +0.000 N 
ATOM     10  C   UNL     1       1.046  10.368  19.371  0.00  0.00    +0.000 A 
ATOM     11  C   UNL     1      -0.050  10.865  20.064  0.00  0.00    +0.000 A 
ATOM     12  C   UNL     1      -0.359  12.218  19.979  0.00  0.00    +0.000 A 
ATOM     13  C   UNL     1       0.501  13.079  19.312  0.00  0.00    +0.000 A 
ATOM     14  C   UNL     1       0.266  14.467  19.328  0.00  0.00    +0.000 A 
ATOM     15  C   UNL     1       1.209  15.343  18.805  0.00  0.00    +0.000 A 
ATOM     16  C   UNL     1       2.354  14.824  18.214  0.00  0.00    +0.000 A 
ATOM     17  C   UNL     1       2.542  13.431  18.135  0.00  0.00    +0.000 A 
ATOM     18  C   UNL     1       1.641  12.521  18.693  0.00  0.00    +0.000 A 
ATOM     19  N   UNL     1       1.881  11.177  18.687  0.00  0.00    +0.000 NA
ATOM     20  H   UNL     1       0.547   8.496  20.054  0.00  0.00    +0.000 HD
ENDBRANCH   5   7
BRANCH   1  22
ATOM     21  C   UNL     1       3.286   1.897  17.955  0.00  0.00    +0.000 C 
ATOM     22  C   UNL     1       3.054   3.348  17.502  0.00  0.00    +0.000 C 
BRANCH  22  23
ATOM     23  S   UNL     1       4.535   3.937  16.578  0.00  0.00    +0.000 S 
BRANCH  23  24
ATOM     24  C   UNL     1       5.495   4.592  17.856  0.00  0.00    +0.000 A 
ATOM     25  N   UNL     1       5.832   3.984  18.970  0.00  0.00    +0.000 NA
ATOM     26  N   UNL     1       6.592   4.861  19.712  0.00  0.00    +0.000 NA
ATOM     27  C   UNL     1       6.703   5.970  19.016  0.00  0.00    +0.000 A 
ATOM     28  N   UNL     1       6.029   5.846  17.839  0.00  0.00    +0.000 N 
ATOM     29  C   UNL     1       5.932   6.846  16.812  0.00  0.00    +0.000 C 
ENDBRANCH  23  24
ENDBRANCH  22  23
ENDBRANCH   1  22
TORSDOF 4
ENDMDL
