MODEL 1
REMARK VINA RESULT:      -9.8      0.000      0.000
REMARK  Name = 
REMARK  9 active torsions:
REMARK  status: ('A' for Active; 'I' for Inactive)
REMARK    1  A    between atoms: C_1  and  N_2
REMARK    2  A    between atoms: C_6  and  C_7
REMARK    3  A    between atoms: C_7  and  C_8
REMARK    4  A    between atoms: C_8  and  C_9
REMARK    5  A    between atoms: C_13  and  N_14
REMARK    6  A    between atoms: C_19  and  C_20
REMARK    7  A    between atoms: C_20  and  N_21
REMARK    8  A    between atoms: C_24  and  C_25
REMARK    9  A    between atoms: C_29  and  C_30
REMARK                            x       y       z     vdW  Elec       q    Type
REMARK                         _______ _______ _______ _____ _____    ______ ____
ROOT
ATOM      1  N   UNL     1       2.341   7.377  19.320  0.00  0.00    +0.000 N 
ATOM      2  C   UNL     1       1.594   7.768  20.504  0.00  0.00    +0.000 C 
ATOM      3  C   UNL     1       0.991   9.065  20.145  0.00  0.00    +0.000 A 
ATOM      4  C   UNL     1       1.269   9.369  18.816  0.00  0.00    +0.000 A 
ATOM      5  C   UNL     1       0.752  10.518  18.236  0.00  0.00    +0.000 A 
ATOM      6  C   UNL     1      -0.049  11.364  19.037  0.00  0.00    +0.000 A 
ATOM      7  C   UNL     1      -0.275  11.048  20.399  0.00  0.00    +0.000 A 
ATOM      8  C   UNL     1       0.250   9.893  20.982  0.00  0.00    +0.000 A 
ATOM      9  C   UNL     1       2.162   8.299  18.285  0.00  0.00    +0.000 C 
ATOM     10  O   UNL     1       2.626   8.312  17.152  0.00  0.00    +0.000 OA
ENDROOT
BRANCH   1  15
ATOM     11  C   UNL     1       5.444   5.321  18.859  0.00  0.00    +0.000 A 
ATOM     12  C   UNL     1       4.990   4.082  19.323  0.00  0.00    +0.000 A 
ATOM     13  C   UNL     1       3.689   3.925  19.836  0.00  0.00    +0.000 A 
ATOM     14  C   UNL     1       2.787   4.999  19.878  0.00  0.00    +0.000 A 
ATOM     15  C   UNL     1       3.186   6.240  19.413  0.00  0.00    +0.000 A 
ATOM     16  C   UNL     1       4.514   6.366  18.950  0.00  0.00    +0.000 A 
BRANCH  11  17
ATOM     17  C   UNL     1       6.922   5.617  18.260  0.00  0.00    +0.000 C 
ATOM     18  C   UNL     1       7.992   6.044  19.301  0.00  0.00    +0.000 C 
ATOM     19  O   UNL     1       8.207   7.318  18.664  0.00  0.00    +0.000 OA
ATOM     20  C   UNL     1       7.198   7.038  17.673  0.00  0.00    +0.000 C 
BRANCH  17  21
ATOM     21  C   UNL     1       7.400   4.479  17.322  0.00  0.00    +0.000 C 
BRANCH  21  27
ATOM     22  C   UNL     1       4.722   3.479  15.963  0.00  0.00    +0.000 C 
ATOM     23  N   UNL     1       5.809   4.179  15.332  0.00  0.00    +0.000 N 
ATOM     24  C   UNL     1       5.862   4.500  14.009  0.00  0.00    +0.000 A 
ATOM     25  N   UNL     1       7.000   5.095  13.747  0.00  0.00    +0.000 NA
ATOM     26  N   UNL     1       7.713   5.155  14.918  0.00  0.00    +0.000 NA
ATOM     27  C   UNL     1       6.987   4.627  15.886  0.00  0.00    +0.000 A 
ENDBRANCH  21  27
ENDBRANCH  17  21
ENDBRANCH  11  17
ENDBRANCH   1  15
BRANCH   8  28
ATOM     28  C   UNL     1       0.032   9.589  22.441  0.00  0.00    +0.000 C 
ATOM     29  F   UNL     1       1.168   9.272  23.116  0.00  0.00    +0.000 F 
ATOM     30  F   UNL     1      -0.524  10.636  23.109  0.00  0.00    +0.000 F 
ATOM     31  F   UNL     1      -0.805   8.531  22.628  0.00  0.00    +0.000 F 
ENDBRANCH   8  28
BRANCH   6  32
ATOM     32  C   UNL     1      -0.736  12.595  18.479  0.00  0.00    +0.000 C 
BRANCH  32  33
ATOM     33  N   UNL     1       0.096  13.804  18.557  0.00  0.00    +0.000 NA
ATOM     34  C   UNL     1      -0.221  14.637  19.717  0.00  0.00    +0.000 C 
ATOM     35  C   UNL     1       1.066  15.362  20.072  0.00  0.00    +0.000 C 
ATOM     36  C   UNL     1       2.183  14.441  19.607  0.00  0.00    +0.000 C 
ATOM     37  C   UNL     1       2.870  13.705  20.749  0.00  0.00    +0.000 C 
ATOM     38  F   UNL     1       3.131  15.190  18.977  0.00  0.00    +0.000 F 
ATOM     39  C   UNL     1       1.531  13.486  18.605  0.00  0.00    +0.000 C 
ENDBRANCH  32  33
ENDBRANCH   6  32
TORSDOF 7
ENDMDL
MODEL 2
REMARK VINA RESULT:      -9.7      3.239      8.899
REMARK  Name = 
REMARK  9 active torsions:
REMARK  status: ('A' for Active; 'I' for Inactive)
REMARK    1  A    between atoms: C_1  and  N_2
REMARK    2  A    between atoms: C_6  and  C_7
REMARK    3  A    between atoms: C_7  and  C_8
REMARK    4  A    between atoms: C_8  and  C_9
REMARK    5  A    between atoms: C_13  and  N_14
REMARK    6  A    between atoms: C_19  and  C_20
REMARK    7  A    between atoms: C_20  and  N_21
REMARK    8  A    between atoms: C_24  and  C_25
REMARK    9  A    between atoms: C_29  and  C_30
REMARK                            x       y       z     vdW  Elec       q    Type
REMARK                         _______ _______ _______ _____ _____    ______ ____
ROOT
ATOM      1  N   UNL     1       1.475   7.917  20.161  0.00  0.00    +0.000 N 
ATOM      2  C   UNL     1       1.508   6.586  20.744  0.00  0.00    +0.000 C 
ATOM      3  C   UNL     1       2.160   5.753  19.716  0.00  0.00    +0.000 A 
ATOM      4  C   UNL     1       2.579   6.546  18.653  0.00  0.00    +0.000 A 
ATOM      5  C   UNL     1       3.274   5.986  17.591  0.00  0.00    +0.000 A 
ATOM      6  C   UNL     1       3.529   4.596  17.624  0.00  0.00    +0.000 A 
ATOM      7  C   UNL     1       3.050   3.810  18.699  0.00  0.00    +0.000 A 
ATOM      8  C   UNL     1       2.346   4.374  19.765  0.00  0.00    +0.000 A 
ATOM      9  C   UNL     1       2.117   7.939  18.919  0.00  0.00    +0.000 C 
ATOM     10  O   UNL     1       2.286   8.864  18.136  0.00  0.00    +0.000 OA
ENDROOT
BRANCH   1  15
ATOM     11  C   UNL     1      -0.634  10.992  20.566  0.00  0.00    +0.000 A 
ATOM     12  C   UNL     1      -0.628  11.113  21.959  0.00  0.00    +0.000 A 
ATOM     13  C   UNL     1       0.017  10.165  22.773  0.00  0.00    +0.000 A 
ATOM     14  C   UNL     1       0.704   9.073  22.218  0.00  0.00    +0.000 A 
ATOM     15  C   UNL     1       0.741   8.923  20.842  0.00  0.00    +0.000 A 
ATOM     16  C   UNL     1       0.042   9.871  20.064  0.00  0.00    +0.000 A 
BRANCH  11  17
ATOM     17  C   UNL     1      -1.354  12.018  19.535  0.00  0.00    +0.000 C 
ATOM     18  C   UNL     1      -0.480  12.491  18.343  0.00  0.00    +0.000 C 
ATOM     19  O   UNL     1      -0.566  13.874  18.735  0.00  0.00    +0.000 OA
ATOM     20  C   UNL     1      -1.348  13.537  19.899  0.00  0.00    +0.000 C 
BRANCH  17  21
ATOM     21  C   UNL     1      -2.754  11.511  19.105  0.00  0.00    +0.000 C 
BRANCH  21  27
ATOM     22  C   UNL     1      -5.077  12.036  17.021  0.00  0.00    +0.000 C 
ATOM     23  N   UNL     1      -3.874  11.277  16.809  0.00  0.00    +0.000 N 
ATOM     24  C   UNL     1      -3.559  10.627  15.654  0.00  0.00    +0.000 A 
ATOM     25  N   UNL     1      -2.419   9.998  15.802  0.00  0.00    +0.000 NA
ATOM     26  N   UNL     1      -1.983  10.228  17.083  0.00  0.00    +0.000 NA
ATOM     27  C   UNL     1      -2.845  11.024  17.688  0.00  0.00    +0.000 A 
ENDBRANCH  21  27
ENDBRANCH  17  21
ENDBRANCH  11  17
ENDBRANCH   1  15
BRANCH   8  28
ATOM     28  C   UNL     1       1.810   3.521  20.884  0.00  0.00    +0.000 C 
ATOM     29  F   UNL     1       2.153   2.208  20.792  0.00  0.00    +0.000 F 
ATOM     30  F   UNL     1       2.241   3.938  22.105  0.00  0.00    +0.000 F 
ATOM     31  F   UNL     1       0.449   3.534  20.936  0.00  0.00    +0.000 F 
ENDBRANCH   8  28
BRANCH   6  32
ATOM     32  C   UNL     1       4.357   3.900  16.561  0.00  0.00    +0.000 C 
BRANCH  32  33
ATOM     33  N   UNL     1       5.804   4.071  16.756  0.00  0.00    +0.000 NA
ATOM     34  C   UNL     1       6.480   4.587  15.565  0.00  0.00    +0.000 C 
ATOM     35  C   UNL     1       7.685   5.359  16.074  0.00  0.00    +0.000 C 
ATOM     36  C   UNL     1       7.290   5.849  17.458  0.00  0.00    +0.000 C 
ATOM     37  C   UNL     1       6.951   7.333  17.495  0.00  0.00    +0.000 C 
ATOM     38  F   UNL     1       8.337   5.648  18.306  0.00  0.00    +0.000 F 
ATOM     39  C   UNL     1       6.110   4.970  17.877  0.00  0.00    +0.000 C 
ENDBRANCH  32  33
ENDBRANCH   6  32
TORSDOF 7
ENDMDL
MODEL 3
REMARK VINA RESULT:      -9.4      3.078      8.974
REMARK  Name = 
REMARK  9 active torsions:
REMARK  status: ('A' for Active; 'I' for Inactive)
REMARK    1  A    between atoms: C_1  and  N_2
REMARK    2  A    between atoms: C_6  and  C_7
REMARK    3  A    between atoms: C_7  and  C_8
REMARK    4  A    between atoms: C_8  and  C_9
REMARK    5  A    between atoms: C_13  and  N_14
REMARK    6  A    between atoms: C_19  and  C_20
REMARK    7  A    between atoms: C_20  and  N_21
REMARK    8  A    between atoms: C_24  and  C_25
REMARK    9  A    between atoms: C_29  and  C_30
REMARK                            x       y       z     vdW  Elec       q    Type
REMARK                         _______ _______ _______ _____ _____    ______ ____
ROOT
ATOM      1  N   UNL     1       1.455   8.031  20.183  0.00  0.00    +0.000 N 
ATOM      2  C   UNL     1       1.553   6.680  20.708  0.00  0.00    +0.000 C 
ATOM      3  C   UNL     1       2.210   5.916  19.630  0.00  0.00    +0.000 A 
ATOM      4  C   UNL     1       2.572   6.768  18.593  0.00  0.00    +0.000 A 
ATOM      5  C   UNL     1       3.260   6.281  17.491  0.00  0.00    +0.000 A 
ATOM      6  C   UNL     1       3.568   4.901  17.458  0.00  0.00    +0.000 A 
ATOM      7  C   UNL     1       3.146   4.053  18.510  0.00  0.00    +0.000 A 
ATOM      8  C   UNL     1       2.449   4.544  19.616  0.00  0.00    +0.000 A 
ATOM      9  C   UNL     1       2.064   8.130  18.929  0.00  0.00    +0.000 C 
ATOM     10  O   UNL     1       2.179   9.093  18.182  0.00  0.00    +0.000 OA
ENDROOT
BRANCH   1  15
ATOM     11  C   UNL     1      -0.742  11.014  20.771  0.00  0.00    +0.000 A 
ATOM     12  C   UNL     1      -0.717  11.067  22.168  0.00  0.00    +0.000 A 
ATOM     13  C   UNL     1      -0.028  10.101  22.925  0.00  0.00    +0.000 A 
ATOM     14  C   UNL     1       0.683   9.061  22.307  0.00  0.00    +0.000 A 
ATOM     15  C   UNL     1       0.702   8.979  20.925  0.00  0.00    +0.000 A 
ATOM     16  C   UNL     1      -0.040   9.941  20.204  0.00  0.00    +0.000 A 
BRANCH  11  17
ATOM     17  C   UNL     1      -1.511  12.064  19.803  0.00  0.00    +0.000 C 
ATOM     18  C   UNL     1      -2.748  12.765  20.426  0.00  0.00    +0.000 C 
ATOM     19  O   UNL     1      -3.643  12.223  19.437  0.00  0.00    +0.000 OA
ATOM     20  C   UNL     1      -2.570  11.494  18.806  0.00  0.00    +0.000 C 
BRANCH  17  21
ATOM     21  C   UNL     1      -0.524  13.050  19.127  0.00  0.00    +0.000 C 
BRANCH  21  27
ATOM     22  C   UNL     1       2.534  12.590  18.451  0.00  0.00    +0.000 C 
ATOM     23  N   UNL     1       1.987  13.211  19.628  0.00  0.00    +0.000 N 
ATOM     24  C   UNL     1       2.725  13.680  20.673  0.00  0.00    +0.000 A 
ATOM     25  N   UNL     1       1.925  14.145  21.601  0.00  0.00    +0.000 NA
ATOM     26  N   UNL     1       0.637  13.965  21.163  0.00  0.00    +0.000 NA
ATOM     27  C   UNL     1       0.668  13.425  19.959  0.00  0.00    +0.000 A 
ENDBRANCH  21  27
ENDBRANCH  17  21
ENDBRANCH  11  17
ENDBRANCH   1  15
BRANCH   8  28
ATOM     28  C   UNL     1       1.974   3.625  20.709  0.00  0.00    +0.000 C 
ATOM     29  F   UNL     1       2.337   2.326  20.537  0.00  0.00    +0.000 F 
ATOM     30  F   UNL     1       2.445   3.988  21.932  0.00  0.00    +0.000 F 
ATOM     31  F   UNL     1       0.616   3.608  20.815  0.00  0.00    +0.000 F 
ENDBRANCH   8  28
BRANCH   6  32
ATOM     32  C   UNL     1       4.394   4.283  16.347  0.00  0.00    +0.000 C 
BRANCH  32  33
ATOM     33  N   UNL     1       5.829   4.578  16.465  0.00  0.00    +0.000 NA
ATOM     34  C   UNL     1       6.125   6.007  16.359  0.00  0.00    +0.000 C 
ATOM     35  C   UNL     1       7.389   6.231  17.172  0.00  0.00    +0.000 C 
ATOM     36  C   UNL     1       7.370   5.152  18.243  0.00  0.00    +0.000 C 
ATOM     37  C   UNL     1       6.989   5.678  19.620  0.00  0.00    +0.000 C 
ATOM     38  F   UNL     1       8.618   4.616  18.342  0.00  0.00    +0.000 F 
ATOM     39  C   UNL     1       6.393   4.091  17.732  0.00  0.00    +0.000 C 
ENDBRANCH  32  33
ENDBRANCH   6  32
TORSDOF 7
ENDMDL
MODEL 4
REMARK VINA RESULT:      -9.4      3.117      9.023
REMARK  Name = 
REMARK  9 active torsions:
REMARK  status: ('A' for Active; 'I' for Inactive)
REMARK    1  A    between atoms: C_1  and  N_2
REMARK    2  A    between atoms: C_6  and  C_7
REMARK    3  A    between atoms: C_7  and  C_8
REMARK    4  A    between atoms: C_8  and  C_9
REMARK    5  A    between atoms: C_13  and  N_14
REMARK    6  A    between atoms: C_19  and  C_20
REMARK    7  A    between atoms: C_20  and  N_21
REMARK    8  A    between atoms: C_24  and  C_25
REMARK    9  A    between atoms: C_29  and  C_30
REMARK                            x       y       z     vdW  Elec       q    Type
REMARK                         _______ _______ _______ _____ _____    ______ ____
ROOT
ATOM      1  N   UNL     1       1.430   7.921  20.312  0.00  0.00    +0.000 N 
ATOM      2  C   UNL     1       1.520   6.587  20.879  0.00  0.00    +0.000 C 
ATOM      3  C   UNL     1       2.123   5.774  19.806  0.00  0.00    +0.000 A 
ATOM      4  C   UNL     1       2.464   6.583  18.728  0.00  0.00    +0.000 A 
ATOM      5  C   UNL     1       3.104   6.045  17.620  0.00  0.00    +0.000 A 
ATOM      6  C   UNL     1       3.383   4.659  17.624  0.00  0.00    +0.000 A 
ATOM      7  C   UNL     1       2.982   3.855  18.719  0.00  0.00    +0.000 A 
ATOM      8  C   UNL     1       2.335   4.398  19.830  0.00  0.00    +0.000 A 
ATOM      9  C   UNL     1       1.996   7.965  19.034  0.00  0.00    +0.000 C 
ATOM     10  O   UNL     1       2.103   8.900  18.252  0.00  0.00    +0.000 OA
ENDROOT
BRANCH   1  15
ATOM     11  C   UNL     1       0.348  11.364  21.335  0.00  0.00    +0.000 A 
ATOM     12  C   UNL     1      -0.429  11.055  22.456  0.00  0.00    +0.000 A 
ATOM     13  C   UNL     1      -0.646   9.722  22.851  0.00  0.00    +0.000 A 
ATOM     14  C   UNL     1      -0.070   8.651  22.152  0.00  0.00    +0.000 A 
ATOM     15  C   UNL     1       0.722   8.909  21.046  0.00  0.00    +0.000 A 
ATOM     16  C   UNL     1       0.877  10.258  20.656  0.00  0.00    +0.000 A 
BRANCH  11  17
ATOM     17  C   UNL     1       0.653  12.859  20.785  0.00  0.00    +0.000 C 
ATOM     18  C   UNL     1       2.154  13.239  20.680  0.00  0.00    +0.000 C 
ATOM     19  O   UNL     1       2.018  14.330  21.611  0.00  0.00    +0.000 OA
ATOM     20  C   UNL     1       0.621  14.034  21.815  0.00  0.00    +0.000 C 
BRANCH  17  21
ATOM     21  C   UNL     1      -0.151  13.172  19.497  0.00  0.00    +0.000 C 
BRANCH  21  27
ATOM     22  C   UNL     1      -1.646  10.940  17.825  0.00  0.00    +0.000 C 
ATOM     23  N   UNL     1      -2.219  11.820  18.808  0.00  0.00    +0.000 N 
ATOM     24  C   UNL     1      -3.536  11.845  19.155  0.00  0.00    +0.000 A 
ATOM     25  N   UNL     1      -3.738  12.786  20.044  0.00  0.00    +0.000 NA
ATOM     26  N   UNL     1      -2.533  13.400  20.275  0.00  0.00    +0.000 NA
ATOM     27  C   UNL     1      -1.605  12.802  19.551  0.00  0.00    +0.000 A 
ENDBRANCH  21  27
ENDBRANCH  17  21
ENDBRANCH  11  17
ENDBRANCH   1  15
BRANCH   8  28
ATOM     28  C   UNL     1       1.881   3.526  20.970  0.00  0.00    +0.000 C 
ATOM     29  F   UNL     1       2.331   3.927  22.188  0.00  0.00    +0.000 F 
ATOM     30  F   UNL     1       0.525   3.469  21.070  0.00  0.00    +0.000 F 
ATOM     31  F   UNL     1       2.305   2.238  20.836  0.00  0.00    +0.000 F 
ENDBRANCH   8  28
BRANCH   6  32
ATOM     32  C   UNL     1       4.157   3.987  16.507  0.00  0.00    +0.000 C 
BRANCH  32  33
ATOM     33  N   UNL     1       5.599   3.898  16.778  0.00  0.00    +0.000 NA
ATOM     34  C   UNL     1       6.417   4.330  15.645  0.00  0.00    +0.000 C 
ATOM     35  C   UNL     1       7.707   4.864  16.245  0.00  0.00    +0.000 C 
ATOM     36  C   UNL     1       7.326   5.368  17.627  0.00  0.00    +0.000 C 
ATOM     37  C   UNL     1       7.244   6.886  17.712  0.00  0.00    +0.000 C 
ATOM     38  F   UNL     1       8.274   4.960  18.516  0.00  0.00    +0.000 F 
ATOM     39  C   UNL     1       5.992   4.692  17.951  0.00  0.00    +0.000 C 
ENDBRANCH  32  33
ENDBRANCH   6  32
TORSDOF 7
ENDMDL
MODEL 5
REMARK VINA RESULT:      -9.4      2.975      8.905
REMARK  Name = 
REMARK  9 active torsions:
REMARK  status: ('A' for Active; 'I' for Inactive)
REMARK    1  A    between atoms: C_1  and  N_2
REMARK    2  A    between atoms: C_6  and  C_7
REMARK    3  A    between atoms: C_7  and  C_8
REMARK    4  A    between atoms: C_8  and  C_9
REMARK    5  A    between atoms: C_13  and  N_14
REMARK    6  A    between atoms: C_19  and  C_20
REMARK    7  A    between atoms: C_20  and  N_21
REMARK    8  A    between atoms: C_24  and  C_25
REMARK    9  A    between atoms: C_29  and  C_30
REMARK                            x       y       z     vdW  Elec       q    Type
REMARK                         _______ _______ _______ _____ _____    ______ ____
ROOT
ATOM      1  N   UNL     1       1.492   7.956  20.106  0.00  0.00    +0.000 N 
ATOM      2  C   UNL     1       1.535   6.635  20.709  0.00  0.00    +0.000 C 
ATOM      3  C   UNL     1       2.161   5.783  19.681  0.00  0.00    +0.000 A 
ATOM      4  C   UNL     1       2.557   6.557  18.596  0.00  0.00    +0.000 A 
ATOM      5  C   UNL     1       3.226   5.979  17.527  0.00  0.00    +0.000 A 
ATOM      6  C   UNL     1       3.478   4.588  17.576  0.00  0.00    +0.000 A 
ATOM      7  C   UNL     1       3.021   3.821  18.675  0.00  0.00    +0.000 A 
ATOM      8  C   UNL     1       2.344   4.405  19.748  0.00  0.00    +0.000 A 
ATOM      9  C   UNL     1       2.105   7.956  18.849  0.00  0.00    +0.000 C 
ATOM     10  O   UNL     1       2.259   8.868  18.048  0.00  0.00    +0.000 OA
ENDROOT
BRANCH   1  15
ATOM     11  C   UNL     1      -0.582  11.055  20.510  0.00  0.00    +0.000 A 
ATOM     12  C   UNL     1      -0.557  11.188  21.902  0.00  0.00    +0.000 A 
ATOM     13  C   UNL     1       0.091  10.241  22.716  0.00  0.00    +0.000 A 
ATOM     14  C   UNL     1       0.760   9.139  22.163  0.00  0.00    +0.000 A 
ATOM     15  C   UNL     1       0.777   8.975  20.788  0.00  0.00    +0.000 A 
ATOM     16  C   UNL     1       0.076   9.923  20.010  0.00  0.00    +0.000 A 
BRANCH  11  17
ATOM     17  C   UNL     1      -1.306  12.078  19.480  0.00  0.00    +0.000 C 
ATOM     18  C   UNL     1      -2.856  12.097  19.536  0.00  0.00    +0.000 C 
ATOM     19  O   UNL     1      -2.984  11.678  18.164  0.00  0.00    +0.000 OA
ATOM     20  C   UNL     1      -1.552  11.585  18.018  0.00  0.00    +0.000 C 
BRANCH  17  21
ATOM     21  C   UNL     1      -0.672  13.492  19.535  0.00  0.00    +0.000 C 
BRANCH  21  27
ATOM     22  C   UNL     1       1.490  14.547  21.592  0.00  0.00    +0.000 C 
ATOM     23  N   UNL     1       1.729  13.991  20.287  0.00  0.00    +0.000 N 
ATOM     24  C   UNL     1       2.957  13.859  19.712  0.00  0.00    +0.000 A 
ATOM     25  N   UNL     1       2.826  13.359  18.508  0.00  0.00    +0.000 NA
ATOM     26  N   UNL     1       1.486  13.171  18.282  0.00  0.00    +0.000 NA
ATOM     27  C   UNL     1       0.819  13.526  19.365  0.00  0.00    +0.000 A 
ENDBRANCH  21  27
ENDBRANCH  17  21
ENDBRANCH  11  17
ENDBRANCH   1  15
BRANCH   8  28
ATOM     28  C   UNL     1       1.832   3.571  20.892  0.00  0.00    +0.000 C 
ATOM     29  F   UNL     1       2.186   2.260  20.824  0.00  0.00    +0.000 F 
ATOM     30  F   UNL     1       2.276   4.018  22.097  0.00  0.00    +0.000 F 
ATOM     31  F   UNL     1       0.472   3.573  20.963  0.00  0.00    +0.000 F 
ENDBRANCH   8  28
BRANCH   6  32
ATOM     32  C   UNL     1       4.279   3.873  16.506  0.00  0.00    +0.000 C 
BRANCH  32  33
ATOM     33  N   UNL     1       5.731   3.982  16.705  0.00  0.00    +0.000 NA
ATOM     34  C   UNL     1       6.427   4.508  15.530  0.00  0.00    +0.000 C 
ATOM     35  C   UNL     1       7.661   5.217  16.061  0.00  0.00    +0.000 C 
ATOM     36  C   UNL     1       7.284   5.680  17.459  0.00  0.00    +0.000 C 
ATOM     37  C   UNL     1       7.002   7.175  17.541  0.00  0.00    +0.000 C 
ATOM     38  F   UNL     1       8.321   5.414  18.301  0.00  0.00    +0.000 F 
ATOM     39  C   UNL     1       6.071   4.835  17.853  0.00  0.00    +0.000 C 
ENDBRANCH  32  33
ENDBRANCH   6  32
TORSDOF 7
ENDMDL
MODEL 6
REMARK VINA RESULT:      -9.4      3.055      9.148
REMARK  Name = 
REMARK  9 active torsions:
REMARK  status: ('A' for Active; 'I' for Inactive)
REMARK    1  A    between atoms: C_1  and  N_2
REMARK    2  A    between atoms: C_6  and  C_7
REMARK    3  A    between atoms: C_7  and  C_8
REMARK    4  A    between atoms: C_8  and  C_9
REMARK    5  A    between atoms: C_13  and  N_14
REMARK    6  A    between atoms: C_19  and  C_20
REMARK    7  A    between atoms: C_20  and  N_21
REMARK    8  A    between atoms: C_24  and  C_25
REMARK    9  A    between atoms: C_29  and  C_30
REMARK                            x       y       z     vdW  Elec       q    Type
REMARK                         _______ _______ _______ _____ _____    ______ ____
ROOT
ATOM      1  N   UNL     1       1.478   7.898  20.259  0.00  0.00    +0.000 N 
ATOM      2  C   UNL     1       1.527   6.556  20.814  0.00  0.00    +0.000 C 
ATOM      3  C   UNL     1       2.142   5.742  19.749  0.00  0.00    +0.000 A 
ATOM      4  C   UNL     1       2.527   6.554  18.688  0.00  0.00    +0.000 A 
ATOM      5  C   UNL     1       3.185   6.014  17.592  0.00  0.00    +0.000 A 
ATOM      6  C   UNL     1       3.436   4.623  17.589  0.00  0.00    +0.000 A 
ATOM      7  C   UNL     1       2.991   3.817  18.665  0.00  0.00    +0.000 A 
ATOM      8  C   UNL     1       2.326   4.362  19.765  0.00  0.00    +0.000 A 
ATOM      9  C   UNL     1       2.078   7.943  18.997  0.00  0.00    +0.000 C 
ATOM     10  O   UNL     1       2.224   8.883  18.227  0.00  0.00    +0.000 OA
ENDROOT
BRANCH   1  15
ATOM     11  C   UNL     1      -0.469  11.055  20.811  0.00  0.00    +0.000 A 
ATOM     12  C   UNL     1      -0.524  11.070  22.208  0.00  0.00    +0.000 A 
ATOM     13  C   UNL     1       0.028  10.026  22.973  0.00  0.00    +0.000 A 
ATOM     14  C   UNL     1       0.677   8.941  22.365  0.00  0.00    +0.000 A 
ATOM     15  C   UNL     1       0.772   8.892  20.984  0.00  0.00    +0.000 A 
ATOM     16  C   UNL     1       0.165   9.937  20.253  0.00  0.00    +0.000 A 
BRANCH  11  17
ATOM     17  C   UNL     1      -1.080  12.197  19.833  0.00  0.00    +0.000 C 
ATOM     18  C   UNL     1      -2.576  12.026  19.458  0.00  0.00    +0.000 C 
ATOM     19  O   UNL     1      -2.287  11.920  18.052  0.00  0.00    +0.000 OA
ATOM     20  C   UNL     1      -0.869  12.026  18.294  0.00  0.00    +0.000 C 
BRANCH  17  21
ATOM     21  C   UNL     1      -0.731  13.624  20.329  0.00  0.00    +0.000 C 
BRANCH  21  27
ATOM     22  C   UNL     1      -0.220  16.210  18.577  0.00  0.00    +0.000 C 
ATOM     23  N   UNL     1       0.767  15.294  19.084  0.00  0.00    +0.000 N 
ATOM     24  C   UNL     1       2.106  15.389  18.854  0.00  0.00    +0.000 A 
ATOM     25  N   UNL     1       2.721  14.379  19.417  0.00  0.00    +0.000 NA
ATOM     26  N   UNL     1       1.766  13.598  20.019  0.00  0.00    +0.000 NA
ATOM     27  C   UNL     1       0.585  14.161  19.843  0.00  0.00    +0.000 A 
ENDBRANCH  21  27
ENDBRANCH  17  21
ENDBRANCH  11  17
ENDBRANCH   1  15
BRANCH   8  28
ATOM     28  C   UNL     1       1.825   3.488  20.883  0.00  0.00    +0.000 C 
ATOM     29  F   UNL     1       0.475   3.500  21.035  0.00  0.00    +0.000 F 
ATOM     30  F   UNL     1       2.173   2.183  20.715  0.00  0.00    +0.000 F 
ATOM     31  F   UNL     1       2.326   3.861  22.094  0.00  0.00    +0.000 F 
ENDBRANCH   8  28
BRANCH   6  32
ATOM     32  C   UNL     1       4.226   3.947  16.486  0.00  0.00    +0.000 C 
BRANCH  32  33
ATOM     33  N   UNL     1       5.669   3.893  16.760  0.00  0.00    +0.000 NA
ATOM     34  C   UNL     1       6.479   4.337  15.626  0.00  0.00    +0.000 C 
ATOM     35  C   UNL     1       7.755   4.905  16.224  0.00  0.00    +0.000 C 
ATOM     36  C   UNL     1       7.359   5.408  17.602  0.00  0.00    +0.000 C 
ATOM     37  C   UNL     1       7.242   6.925  17.678  0.00  0.00    +0.000 C 
ATOM     38  F   UNL     1       8.316   5.029  18.495  0.00  0.00    +0.000 F 
ATOM     39  C   UNL     1       6.041   4.704  17.929  0.00  0.00    +0.000 C 
ENDBRANCH  32  33
ENDBRANCH   6  32
TORSDOF 7
ENDMDL
MODEL 7
REMARK VINA RESULT:      -9.3      1.188      1.744
REMARK  Name = 
REMARK  9 active torsions:
REMARK  status: ('A' for Active; 'I' for Inactive)
REMARK    1  A    between atoms: C_1  and  N_2
REMARK    2  A    between atoms: C_6  and  C_7
REMARK    3  A    between atoms: C_7  and  C_8
REMARK    4  A    between atoms: C_8  and  C_9
REMARK    5  A    between atoms: C_13  and  N_14
REMARK    6  A    between atoms: C_19  and  C_20
REMARK    7  A    between atoms: C_20  and  N_21
REMARK    8  A    between atoms: C_24  and  C_25
REMARK    9  A    between atoms: C_29  and  C_30
REMARK                            x       y       z     vdW  Elec       q    Type
REMARK                         _______ _______ _______ _____ _____    ______ ____
ROOT
ATOM      1  N   UNL     1       2.002   7.621  19.571  0.00  0.00    +0.000 N 
ATOM      2  C   UNL     1       1.241   7.962  20.761  0.00  0.00    +0.000 C 
ATOM      3  C   UNL     1       0.731   9.320  20.492  0.00  0.00    +0.000 A 
ATOM      4  C   UNL     1       1.071   9.710  19.201  0.00  0.00    +0.000 A 
ATOM      5  C   UNL     1       0.645  10.933  18.702  0.00  0.00    +0.000 A 
ATOM      6  C   UNL     1      -0.129  11.761  19.547  0.00  0.00    +0.000 A 
ATOM      7  C   UNL     1      -0.420  11.352  20.872  0.00  0.00    +0.000 A 
ATOM      8  C   UNL     1       0.014  10.123  21.373  0.00  0.00    +0.000 A 
ATOM      9  C   UNL     1       1.914   8.632  18.609  0.00  0.00    +0.000 C 
ATOM     10  O   UNL     1       2.416   8.706  17.496  0.00  0.00    +0.000 OA
ENDROOT
BRANCH   1  15
ATOM     11  C   UNL     1       4.910   5.362  18.858  0.00  0.00    +0.000 A 
ATOM     12  C   UNL     1       4.412   4.154  19.357  0.00  0.00    +0.000 A 
ATOM     13  C   UNL     1       3.150   4.082  19.974  0.00  0.00    +0.000 A 
ATOM     14  C   UNL     1       2.329   5.214  20.091  0.00  0.00    +0.000 A 
ATOM     15  C   UNL     1       2.773   6.429  19.594  0.00  0.00    +0.000 A 
ATOM     16  C   UNL     1       4.064   6.467  19.024  0.00  0.00    +0.000 A 
BRANCH  11  17
ATOM     17  C   UNL     1       6.352   5.561  18.141  0.00  0.00    +0.000 C 
ATOM     18  C   UNL     1       7.222   4.282  18.024  0.00  0.00    +0.000 C 
ATOM     19  O   UNL     1       8.286   4.845  18.815  0.00  0.00    +0.000 OA
ATOM     20  C   UNL     1       7.540   6.062  19.022  0.00  0.00    +0.000 C 
BRANCH  17  21
ATOM     21  C   UNL     1       6.226   6.341  16.807  0.00  0.00    +0.000 C 
BRANCH  21  27
ATOM     22  C   UNL     1       4.302   4.068  15.736  0.00  0.00    +0.000 C 
ATOM     23  N   UNL     1       5.524   4.528  15.132  0.00  0.00    +0.000 N 
ATOM     24  C   UNL     1       6.067   4.020  13.991  0.00  0.00    +0.000 A 
ATOM     25  N   UNL     1       7.198   4.628  13.735  0.00  0.00    +0.000 NA
ATOM     26  N   UNL     1       7.409   5.545  14.734  0.00  0.00    +0.000 NA
ATOM     27  C   UNL     1       6.387   5.509  15.567  0.00  0.00    +0.000 A 
ENDBRANCH  21  27
ENDBRANCH  17  21
ENDBRANCH  11  17
ENDBRANCH   1  15
BRANCH   8  28
ATOM     28  C   UNL     1      -0.271   9.719  22.795  0.00  0.00    +0.000 C 
ATOM     29  F   UNL     1      -1.004   8.580  22.911  0.00  0.00    +0.000 F 
ATOM     30  F   UNL     1       0.867   9.507  23.510  0.00  0.00    +0.000 F 
ATOM     31  F   UNL     1      -0.973  10.670  23.472  0.00  0.00    +0.000 F 
ENDBRANCH   8  28
BRANCH   6  32
ATOM     32  C   UNL     1      -0.721  13.073  19.073  0.00  0.00    +0.000 C 
BRANCH  32  33
ATOM     33  N   UNL     1      -0.005  14.248  19.590  0.00  0.00    +0.000 NA
ATOM     34  C   UNL     1       1.172  14.593  18.792  0.00  0.00    +0.000 C 
ATOM     35  C   UNL     1       1.355  16.093  18.949  0.00  0.00    +0.000 C 
ATOM     36  C   UNL     1      -0.039  16.640  19.211  0.00  0.00    +0.000 C 
ATOM     37  C   UNL     1      -0.644  17.344  18.004  0.00  0.00    +0.000 C 
ATOM     38  F   UNL     1       0.034  17.551  20.221  0.00  0.00    +0.000 F 
ATOM     39  C   UNL     1      -0.869  15.436  19.661  0.00  0.00    +0.000 C 
ENDBRANCH  32  33
ENDBRANCH   6  32
TORSDOF 7
ENDMDL
MODEL 8
REMARK VINA RESULT:      -9.3      3.035      8.991
REMARK  Name = 
REMARK  9 active torsions:
REMARK  status: ('A' for Active; 'I' for Inactive)
REMARK    1  A    between atoms: C_1  and  N_2
REMARK    2  A    between atoms: C_6  and  C_7
REMARK    3  A    between atoms: C_7  and  C_8
REMARK    4  A    between atoms: C_8  and  C_9
REMARK    5  A    between atoms: C_13  and  N_14
REMARK    6  A    between atoms: C_19  and  C_20
REMARK    7  A    between atoms: C_20  and  N_21
REMARK    8  A    between atoms: C_24  and  C_25
REMARK    9  A    between atoms: C_29  and  C_30
REMARK                            x       y       z     vdW  Elec       q    Type
REMARK                         _______ _______ _______ _____ _____    ______ ____
ROOT
ATOM      1  N   UNL     1       1.533   7.774  20.329  0.00  0.00    +0.000 N 
ATOM      2  C   UNL     1       1.570   6.434  20.889  0.00  0.00    +0.000 C 
ATOM      3  C   UNL     1       2.173   5.609  19.826  0.00  0.00    +0.000 A 
ATOM      4  C   UNL     1       2.562   6.413  18.760  0.00  0.00    +0.000 A 
ATOM      5  C   UNL     1       3.210   5.862  17.664  0.00  0.00    +0.000 A 
ATOM      6  C   UNL     1       3.447   4.468  17.665  0.00  0.00    +0.000 A 
ATOM      7  C   UNL     1       2.998   3.671  18.746  0.00  0.00    +0.000 A 
ATOM      8  C   UNL     1       2.343   4.227  19.847  0.00  0.00    +0.000 A 
ATOM      9  C   UNL     1       2.128   7.807  19.064  0.00  0.00    +0.000 C 
ATOM     10  O   UNL     1       2.281   8.743  18.290  0.00  0.00    +0.000 OA
ENDROOT
BRANCH   1  15
ATOM     11  C   UNL     1      -0.029  11.121  20.978  0.00  0.00    +0.000 A 
ATOM     12  C   UNL     1      -0.362  10.980  22.329  0.00  0.00    +0.000 A 
ATOM     13  C   UNL     1      -0.127   9.777  23.018  0.00  0.00    +0.000 A 
ATOM     14  C   UNL     1       0.475   8.678  22.385  0.00  0.00    +0.000 A 
ATOM     15  C   UNL     1       0.839   8.778  21.053  0.00  0.00    +0.000 A 
ATOM     16  C   UNL     1       0.543   9.987  20.385  0.00  0.00    +0.000 A 
BRANCH  11  17
ATOM     17  C   UNL     1      -0.265  12.455  20.085  0.00  0.00    +0.000 C 
ATOM     18  C   UNL     1      -1.638  12.545  19.367  0.00  0.00    +0.000 C 
ATOM     19  O   UNL     1      -1.034  12.585  18.060  0.00  0.00    +0.000 OA
ATOM     20  C   UNL     1       0.288  12.460  18.624  0.00  0.00    +0.000 C 
BRANCH  17  21
ATOM     21  C   UNL     1       0.102  13.742  20.868  0.00  0.00    +0.000 C 
BRANCH  21  27
ATOM     22  C   UNL     1       1.384  16.032  19.100  0.00  0.00    +0.000 C 
ATOM     23  N   UNL     1       2.067  15.149  20.007  0.00  0.00    +0.000 N 
ATOM     24  C   UNL     1       3.412  15.147  20.226  0.00  0.00    +0.000 A 
ATOM     25  N   UNL     1       3.717  14.197  21.074  0.00  0.00    +0.000 NA
ATOM     26  N   UNL     1       2.552  13.553  21.410  0.00  0.00    +0.000 NA
ATOM     27  C   UNL     1       1.547  14.142  20.789  0.00  0.00    +0.000 A 
ENDBRANCH  21  27
ENDBRANCH  17  21
ENDBRANCH  11  17
ENDBRANCH   1  15
BRANCH   8  28
ATOM     28  C   UNL     1       1.837   3.363  20.971  0.00  0.00    +0.000 C 
ATOM     29  F   UNL     1       2.164   2.049  20.849  0.00  0.00    +0.000 F 
ATOM     30  F   UNL     1       2.314   3.759  22.182  0.00  0.00    +0.000 F 
ATOM     31  F   UNL     1       0.479   3.388  21.070  0.00  0.00    +0.000 F 
ENDBRANCH   8  28
BRANCH   6  32
ATOM     32  C   UNL     1       4.226   3.779  16.562  0.00  0.00    +0.000 C 
BRANCH  32  33
ATOM     33  N   UNL     1       5.679   3.961  16.683  0.00  0.00    +0.000 NA
ATOM     34  C   UNL     1       6.285   4.517  15.473  0.00  0.00    +0.000 C 
ATOM     35  C   UNL     1       7.508   5.289  15.938  0.00  0.00    +0.000 C 
ATOM     36  C   UNL     1       7.183   5.736  17.354  0.00  0.00    +0.000 C 
ATOM     37  C   UNL     1       6.832   7.214  17.452  0.00  0.00    +0.000 C 
ATOM     38  F   UNL     1       8.276   5.524  18.139  0.00  0.00    +0.000 F 
ATOM     39  C   UNL     1       6.037   4.832  17.812  0.00  0.00    +0.000 C 
ENDBRANCH  32  33
ENDBRANCH   6  32
TORSDOF 7
ENDMDL
MODEL 9
REMARK VINA RESULT:      -9.3      3.043      9.203
REMARK  Name = 
REMARK  9 active torsions:
REMARK  status: ('A' for Active; 'I' for Inactive)
REMARK    1  A    between atoms: C_1  and  N_2
REMARK    2  A    between atoms: C_6  and  C_7
REMARK    3  A    between atoms: C_7  and  C_8
REMARK    4  A    between atoms: C_8  and  C_9
REMARK    5  A    between atoms: C_13  and  N_14
REMARK    6  A    between atoms: C_19  and  C_20
REMARK    7  A    between atoms: C_20  and  N_21
REMARK    8  A    between atoms: C_24  and  C_25
REMARK    9  A    between atoms: C_29  and  C_30
REMARK                            x       y       z     vdW  Elec       q    Type
REMARK                         _______ _______ _______ _____ _____    ______ ____
ROOT
ATOM      1  N   UNL     1       1.498   8.001  20.191  0.00  0.00    +0.000 N 
ATOM      2  C   UNL     1       1.573   6.650  20.719  0.00  0.00    +0.000 C 
ATOM      3  C   UNL     1       2.219   5.873  19.646  0.00  0.00    +0.000 A 
ATOM      4  C   UNL     1       2.597   6.716  18.606  0.00  0.00    +0.000 A 
ATOM      5  C   UNL     1       3.279   6.214  17.507  0.00  0.00    +0.000 A 
ATOM      6  C   UNL     1       3.565   4.830  17.479  0.00  0.00    +0.000 A 
ATOM      7  C   UNL     1       3.127   3.992  18.533  0.00  0.00    +0.000 A 
ATOM      8  C   UNL     1       2.437   4.498  19.636  0.00  0.00    +0.000 A 
ATOM      9  C   UNL     1       2.110   8.087  18.937  0.00  0.00    +0.000 C 
ATOM     10  O   UNL     1       2.242   9.045  18.188  0.00  0.00    +0.000 OA
ENDROOT
BRANCH   1  15
ATOM     11  C   UNL     1      -0.598  11.058  20.772  0.00  0.00    +0.000 A 
ATOM     12  C   UNL     1      -0.617  11.081  22.170  0.00  0.00    +0.000 A 
ATOM     13  C   UNL     1       0.008  10.073  22.927  0.00  0.00    +0.000 A 
ATOM     14  C   UNL     1       0.697   9.018  22.310  0.00  0.00    +0.000 A 
ATOM     15  C   UNL     1       0.759   8.964  20.928  0.00  0.00    +0.000 A 
ATOM     16  C   UNL     1       0.079   9.969  20.205  0.00  0.00    +0.000 A 
BRANCH  11  17
ATOM     17  C   UNL     1      -1.292  12.158  19.803  0.00  0.00    +0.000 C 
ATOM     18  C   UNL     1      -2.126  13.251  20.522  0.00  0.00    +0.000 C 
ATOM     19  O   UNL     1      -3.341  12.871  19.849  0.00  0.00    +0.000 OA
ATOM     20  C   UNL     1      -2.669  11.796  19.161  0.00  0.00    +0.000 C 
BRANCH  17  21
ATOM     21  C   UNL     1      -0.285  12.733  18.773  0.00  0.00    +0.000 C 
BRANCH  21  27
ATOM     22  C   UNL     1       2.130  13.412  20.703  0.00  0.00    +0.000 C 
ATOM     23  N   UNL     1       1.324  14.342  19.958  0.00  0.00    +0.000 N 
ATOM     24  C   UNL     1       1.465  15.697  19.995  0.00  0.00    +0.000 A 
ATOM     25  N   UNL     1       0.552  16.254  19.239  0.00  0.00    +0.000 NA
ATOM     26  N   UNL     1      -0.212  15.247  18.704  0.00  0.00    +0.000 NA
ATOM     27  C   UNL     1       0.267  14.087  19.114  0.00  0.00    +0.000 A 
ENDBRANCH  21  27
ENDBRANCH  17  21
ENDBRANCH  11  17
ENDBRANCH   1  15
BRANCH   8  28
ATOM     28  C   UNL     1       1.945   3.589  20.731  0.00  0.00    +0.000 C 
ATOM     29  F   UNL     1       0.592   3.558  20.860  0.00  0.00    +0.000 F 
ATOM     30  F   UNL     1       2.335   2.299  20.546  0.00  0.00    +0.000 F 
ATOM     31  F   UNL     1       2.415   3.956  21.956  0.00  0.00    +0.000 F 
ENDBRANCH   8  28
BRANCH   6  32
ATOM     32  C   UNL     1       4.383   4.195  16.372  0.00  0.00    +0.000 C 
BRANCH  32  33
ATOM     33  N   UNL     1       5.817   4.505  16.465  0.00  0.00    +0.000 NA
ATOM     34  C   UNL     1       6.099   5.933  16.320  0.00  0.00    +0.000 C 
ATOM     35  C   UNL     1       7.370   6.188  17.113  0.00  0.00    +0.000 C 
ATOM     36  C   UNL     1       7.372   5.136  18.210  0.00  0.00    +0.000 C 
ATOM     37  C   UNL     1       7.002   5.693  19.578  0.00  0.00    +0.000 C 
ATOM     38  F   UNL     1       8.627   4.613  18.309  0.00  0.00    +0.000 F 
ATOM     39  C   UNL     1       6.399   4.054  17.738  0.00  0.00    +0.000 C 
ENDBRANCH  32  33
ENDBRANCH   6  32
TORSDOF 7
ENDMDL
