MODEL 1
REMARK VINA RESULT:      -9.6      0.000      0.000
REMARK  Name = 
REMARK  7 active torsions:
REMARK  status: ('A' for Active; 'I' for Inactive)
REMARK    1  A    between atoms: C_1  and  N_2
REMARK    2  A    between atoms: C_6  and  C_7
REMARK    3  A    between atoms: C_7  and  C_8
REMARK    4  A    between atoms: C_8  and  C_9
REMARK    5  A    between atoms: C_13  and  N_14
REMARK    6  A    between atoms: C_19  and  N_20
REMARK    7  A    between atoms: C_29  and  C_30
REMARK                            x       y       z     vdW  Elec       q    Type
REMARK                         _______ _______ _______ _____ _____    ______ ____
ROOT
ATOM      1  N   UNL     1       2.331   7.388  19.361  0.00  0.00    +0.000 N 
ATOM      2  C   UNL     1       1.594   7.671  20.580  0.00  0.00    +0.000 C 
ATOM      3  C   UNL     1       0.990   9.001  20.353  0.00  0.00    +0.000 A 
ATOM      4  C   UNL     1       1.224   9.395  19.035  0.00  0.00    +0.000 A 
ATOM      5  C   UNL     1       0.662  10.567  18.553  0.00  0.00    +0.000 A 
ATOM      6  C   UNL     1      -0.108  11.380  19.402  0.00  0.00    +0.000 A 
ATOM      7  C   UNL     1      -0.257  10.977  20.758  0.00  0.00    +0.000 A 
ATOM      8  C   UNL     1       0.290   9.781  21.252  0.00  0.00    +0.000 A 
ATOM      9  C   UNL     1       2.121   8.387  18.402  0.00  0.00    +0.000 C 
ATOM     10  O   UNL     1       2.562   8.503  17.270  0.00  0.00    +0.000 OA
ENDROOT
BRANCH   6  11
ATOM     11  N   UNL     1      -0.735  12.536  18.958  0.00  0.00    +0.000 N 
ATOM     12  C   UNL     1       0.014  13.563  18.215  0.00  0.00    +0.000 C 
ATOM     13  C   UNL     1       0.190  14.850  19.040  0.00  0.00    +0.000 C 
ATOM     14  N   UNL     1      -1.102  15.398  19.487  0.00  0.00    +0.000 NA
ATOM     15  C   UNL     1      -1.833  14.353  20.264  0.00  0.00    +0.000 C 
ATOM     16  C   UNL     1      -1.706  14.414  21.771  0.00  0.00    +0.000 C 
ATOM     17  C   UNL     1      -2.981  14.855  21.115  0.00  0.00    +0.000 C 
ATOM     18  C   UNL     1      -1.996  12.974  19.587  0.00  0.00    +0.000 C 
ATOM     19  H   UNL     1      -1.653  15.644  18.665  0.00  0.00    +0.000 HD
ENDBRANCH   6  11
BRANCH   1  24
ATOM     20  C   UNL     1       5.443   5.389  18.722  0.00  0.00    +0.000 A 
ATOM     21  C   UNL     1       4.991   4.118  19.103  0.00  0.00    +0.000 A 
ATOM     22  C   UNL     1       3.689   3.914  19.585  0.00  0.00    +0.000 A 
ATOM     23  C   UNL     1       2.783   4.976  19.689  0.00  0.00    +0.000 A 
ATOM     24  C   UNL     1       3.185   6.259  19.332  0.00  0.00    +0.000 A 
ATOM     25  C   UNL     1       4.513   6.426  18.887  0.00  0.00    +0.000 A 
BRANCH  20  26
ATOM     26  C   UNL     1       6.928   5.693  18.160  0.00  0.00    +0.000 C 
ATOM     27  C   UNL     1       7.949   6.103  19.266  0.00  0.00    +0.000 C 
ATOM     28  O   UNL     1       8.161   7.404  18.692  0.00  0.00    +0.000 OA
ATOM     29  C   UNL     1       7.218   7.134  17.632  0.00  0.00    +0.000 C 
BRANCH  26  30
ATOM     30  C   UNL     1       7.449   4.551  17.222  0.00  0.00    +0.000 C 
BRANCH  30  36
ATOM     31  C   UNL     1       4.779   3.312  15.744  0.00  0.00    +0.000 C 
ATOM     32  N   UNL     1       5.873   4.081  15.200  0.00  0.00    +0.000 N 
ATOM     33  C   UNL     1       5.939   4.398  13.872  0.00  0.00    +0.000 A 
ATOM     34  N   UNL     1       7.057   5.037  13.625  0.00  0.00    +0.000 NA
ATOM     35  N   UNL     1       7.736   5.151  14.811  0.00  0.00    +0.000 NA
ATOM     36  C   UNL     1       7.016   4.613  15.780  0.00  0.00    +0.000 A 
ENDBRANCH  30  36
ENDBRANCH  26  30
ENDBRANCH  20  26
ENDBRANCH   1  24
BRANCH   8  37
ATOM     37  C   UNL     1       0.142   9.392  22.704  0.00  0.00    +0.000 C 
ATOM     38  F   UNL     1      -0.485  10.331  23.466  0.00  0.00    +0.000 F 
ATOM     39  F   UNL     1      -0.582   8.249  22.862  0.00  0.00    +0.000 F 
ATOM     40  F   UNL     1       1.336   9.172  23.318  0.00  0.00    +0.000 F 
ENDBRANCH   8  37
TORSDOF 6
ENDMDL
MODEL 2
REMARK VINA RESULT:      -9.2      1.029      1.266
REMARK  Name = 
REMARK  7 active torsions:
REMARK  status: ('A' for Active; 'I' for Inactive)
REMARK    1  A    between atoms: C_1  and  N_2
REMARK    2  A    between atoms: C_6  and  C_7
REMARK    3  A    between atoms: C_7  and  C_8
REMARK    4  A    between atoms: C_8  and  C_9
REMARK    5  A    between atoms: C_13  and  N_14
REMARK    6  A    between atoms: C_19  and  N_20
REMARK    7  A    between atoms: C_29  and  C_30
REMARK                            x       y       z     vdW  Elec       q    Type
REMARK                         _______ _______ _______ _____ _____    ______ ____
ROOT
ATOM      1  N   UNL     1       2.037   7.526  19.106  0.00  0.00    +0.000 N 
ATOM      2  C   UNL     1       1.300   7.788  20.329  0.00  0.00    +0.000 C 
ATOM      3  C   UNL     1       0.964   9.226  20.264  0.00  0.00    +0.000 A 
ATOM      4  C   UNL     1       1.337   9.731  19.018  0.00  0.00    +0.000 A 
ATOM      5  C   UNL     1       1.027  11.039  18.680  0.00  0.00    +0.000 A 
ATOM      6  C   UNL     1       0.375  11.870  19.608  0.00  0.00    +0.000 A 
ATOM      7  C   UNL     1       0.082  11.336  20.893  0.00  0.00    +0.000 A 
ATOM      8  C   UNL     1       0.372  10.005  21.238  0.00  0.00    +0.000 A 
ATOM      9  C   UNL     1       2.066   8.659  18.282  0.00  0.00    +0.000 C 
ATOM     10  O   UNL     1       2.581   8.831  17.190  0.00  0.00    +0.000 OA
ENDROOT
BRANCH   6  11
ATOM     11  N   UNL     1      -0.003  13.171  19.303  0.00  0.00    +0.000 N 
ATOM     12  C   UNL     1       0.943  14.104  18.671  0.00  0.00    +0.000 C 
ATOM     13  C   UNL     1       1.364  15.229  19.633  0.00  0.00    +0.000 C 
ATOM     14  N   UNL     1       0.203  15.970  20.154  0.00  0.00    +0.000 NA
ATOM     15  C   UNL     1      -0.731  15.012  20.818  0.00  0.00    +0.000 C 
ATOM     16  C   UNL     1      -0.611  14.877  22.320  0.00  0.00    +0.000 C 
ATOM     17  C   UNL     1      -1.764  15.633  21.734  0.00  0.00    +0.000 C 
ATOM     18  C   UNL     1      -1.159  13.778  19.993  0.00  0.00    +0.000 C 
ATOM     19  H   UNL     1      -0.280  16.412  19.372  0.00  0.00    +0.000 HD
ENDBRANCH   6  11
BRANCH   1  24
ATOM     20  C   UNL     1       4.572   5.022  17.925  0.00  0.00    +0.000 A 
ATOM     21  C   UNL     1       4.009   3.850  18.449  0.00  0.00    +0.000 A 
ATOM     22  C   UNL     1       2.824   3.874  19.199  0.00  0.00    +0.000 A 
ATOM     23  C   UNL     1       2.147   5.075  19.441  0.00  0.00    +0.000 A 
ATOM     24  C   UNL     1       2.668   6.268  18.951  0.00  0.00    +0.000 A 
ATOM     25  C   UNL     1       3.881   6.204  18.233  0.00  0.00    +0.000 A 
BRANCH  20  26
ATOM     26  C   UNL     1       5.933   5.065  17.054  0.00  0.00    +0.000 C 
ATOM     27  C   UNL     1       7.218   4.735  17.875  0.00  0.00    +0.000 C 
ATOM     28  O   UNL     1       7.788   6.035  17.645  0.00  0.00    +0.000 OA
ATOM     29  C   UNL     1       6.635   6.450  16.880  0.00  0.00    +0.000 C 
BRANCH  26  30
ATOM     30  C   UNL     1       5.811   4.238  15.728  0.00  0.00    +0.000 C 
BRANCH  30  36
ATOM     31  C   UNL     1       5.758   3.348  12.558  0.00  0.00    +0.000 C 
ATOM     32  N   UNL     1       6.614   4.283  13.249  0.00  0.00    +0.000 N 
ATOM     33  C   UNL     1       7.611   4.958  12.602  0.00  0.00    +0.000 A 
ATOM     34  N   UNL     1       8.280   5.688  13.463  0.00  0.00    +0.000 NA
ATOM     35  N   UNL     1       7.710   5.497  14.695  0.00  0.00    +0.000 NA
ATOM     36  C   UNL     1       6.677   4.680  14.577  0.00  0.00    +0.000 A 
ENDBRANCH  30  36
ENDBRANCH  26  30
ENDBRANCH  20  26
ENDBRANCH   1  24
BRANCH   8  37
ATOM     37  C   UNL     1       0.077   9.472  22.620  0.00  0.00    +0.000 C 
ATOM     38  F   UNL     1      -0.522  10.376  23.445  0.00  0.00    +0.000 F 
ATOM     39  F   UNL     1      -0.756   8.394  22.591  0.00  0.00    +0.000 F 
ATOM     40  F   UNL     1       1.195   9.069  23.282  0.00  0.00    +0.000 F 
ENDBRANCH   8  37
TORSDOF 6
ENDMDL
MODEL 3
REMARK VINA RESULT:      -9.1      2.348      9.587
REMARK  Name = 
REMARK  7 active torsions:
REMARK  status: ('A' for Active; 'I' for Inactive)
REMARK    1  A    between atoms: C_1  and  N_2
REMARK    2  A    between atoms: C_6  and  C_7
REMARK    3  A    between atoms: C_7  and  C_8
REMARK    4  A    between atoms: C_8  and  C_9
REMARK    5  A    between atoms: C_13  and  N_14
REMARK    6  A    between atoms: C_19  and  N_20
REMARK    7  A    between atoms: C_29  and  C_30
REMARK                            x       y       z     vdW  Elec       q    Type
REMARK                         _______ _______ _______ _____ _____    ______ ____
ROOT
ATOM      1  N   UNL     1       1.616   8.031  20.018  0.00  0.00    +0.000 N 
ATOM      2  C   UNL     1       1.593   6.741  20.683  0.00  0.00    +0.000 C 
ATOM      3  C   UNL     1       2.517   5.896  19.897  0.00  0.00    +0.000 A 
ATOM      4  C   UNL     1       3.157   6.682  18.939  0.00  0.00    +0.000 A 
ATOM      5  C   UNL     1       4.152   6.133  18.145  0.00  0.00    +0.000 A 
ATOM      6  C   UNL     1       4.487   4.774  18.276  0.00  0.00    +0.000 A 
ATOM      7  C   UNL     1       3.756   3.994  19.213  0.00  0.00    +0.000 A 
ATOM      8  C   UNL     1       2.761   4.544  20.038  0.00  0.00    +0.000 A 
ATOM      9  C   UNL     1       2.554   8.046  18.979  0.00  0.00    +0.000 C 
ATOM     10  O   UNL     1       2.860   8.933  18.199  0.00  0.00    +0.000 OA
ENDROOT
BRANCH   6  11
ATOM     11  N   UNL     1       5.509   4.187  17.543  0.00  0.00    +0.000 N 
ATOM     12  C   UNL     1       6.919   4.501  17.827  0.00  0.00    +0.000 C 
ATOM     13  C   UNL     1       7.562   5.316  16.691  0.00  0.00    +0.000 C 
ATOM     14  N   UNL     1       7.454   4.630  15.392  0.00  0.00    +0.000 NA
ATOM     15  C   UNL     1       6.015   4.347  15.107  0.00  0.00    +0.000 C 
ATOM     16  C   UNL     1       5.290   5.340  14.225  0.00  0.00    +0.000 C 
ATOM     17  C   UNL     1       5.688   4.006  13.668  0.00  0.00    +0.000 C 
ATOM     18  C   UNL     1       5.221   3.616  16.212  0.00  0.00    +0.000 C 
ATOM     19  H   UNL     1       7.959   3.746  15.447  0.00  0.00    +0.000 HD
ENDBRANCH   6  11
BRANCH   1  24
ATOM     20  C   UNL     1      -0.988  10.712  19.668  0.00  0.00    +0.000 A 
ATOM     21  C   UNL     1      -1.139  11.073  21.014  0.00  0.00    +0.000 A 
ATOM     22  C   UNL     1      -0.415  10.436  22.033  0.00  0.00    +0.000 A 
ATOM     23  C   UNL     1       0.503   9.420  21.739  0.00  0.00    +0.000 A 
ATOM     24  C   UNL     1       0.683   9.018  20.420  0.00  0.00    +0.000 A 
ATOM     25  C   UNL     1      -0.091   9.659  19.431  0.00  0.00    +0.000 A 
BRANCH  20  26
ATOM     26  C   UNL     1      -1.790  11.403  18.447  0.00  0.00    +0.000 C 
ATOM     27  C   UNL     1      -3.227  11.881  18.826  0.00  0.00    +0.000 C 
ATOM     28  O   UNL     1      -3.851  10.989  17.885  0.00  0.00    +0.000 OA
ATOM     29  C   UNL     1      -2.570  10.465  17.472  0.00  0.00    +0.000 C 
BRANCH  26  30
ATOM     30  C   UNL     1      -0.937  12.505  17.730  0.00  0.00    +0.000 C 
BRANCH  30  36
ATOM     31  C   UNL     1       2.322  12.432  18.200  0.00  0.00    +0.000 C 
ATOM     32  N   UNL     1       1.318  13.296  18.772  0.00  0.00    +0.000 N 
ATOM     33  C   UNL     1       1.636  14.268  19.679  0.00  0.00    +0.000 A 
ATOM     34  N   UNL     1       0.543  14.863  20.093  0.00  0.00    +0.000 NA
ATOM     35  N   UNL     1      -0.514  14.279  19.441  0.00  0.00    +0.000 NA
ATOM     36  C   UNL     1      -0.060  13.357  18.610  0.00  0.00    +0.000 A 
ENDBRANCH  30  36
ENDBRANCH  26  30
ENDBRANCH  20  26
ENDBRANCH   1  24
BRANCH   8  37
ATOM     37  C   UNL     1       1.979   3.686  21.004  0.00  0.00    +0.000 C 
ATOM     38  F   UNL     1       0.628   3.771  20.847  0.00  0.00    +0.000 F 
ATOM     39  F   UNL     1       2.280   2.364  20.880  0.00  0.00    +0.000 F 
ATOM     40  F   UNL     1       2.209   4.008  22.305  0.00  0.00    +0.000 F 
ENDBRANCH   8  37
TORSDOF 6
ENDMDL
MODEL 4
REMARK VINA RESULT:      -9.1      2.904     10.232
REMARK  Name = 
REMARK  7 active torsions:
REMARK  status: ('A' for Active; 'I' for Inactive)
REMARK    1  A    between atoms: C_1  and  N_2
REMARK    2  A    between atoms: C_6  and  C_7
REMARK    3  A    between atoms: C_7  and  C_8
REMARK    4  A    between atoms: C_8  and  C_9
REMARK    5  A    between atoms: C_13  and  N_14
REMARK    6  A    between atoms: C_19  and  N_20
REMARK    7  A    between atoms: C_29  and  C_30
REMARK                            x       y       z     vdW  Elec       q    Type
REMARK                         _______ _______ _______ _____ _____    ______ ____
ROOT
ATOM      1  N   UNL     1       1.556   8.542  19.395  0.00  0.00    +0.000 N 
ATOM      2  C   UNL     1       1.524   7.335  20.202  0.00  0.00    +0.000 C 
ATOM      3  C   UNL     1       2.459   6.408  19.529  0.00  0.00    +0.000 A 
ATOM      4  C   UNL     1       3.112   7.081  18.497  0.00  0.00    +0.000 A 
ATOM      5  C   UNL     1       4.117   6.447  17.784  0.00  0.00    +0.000 A 
ATOM      6  C   UNL     1       4.450   5.112  18.072  0.00  0.00    +0.000 A 
ATOM      7  C   UNL     1       3.706   4.442  19.082  0.00  0.00    +0.000 A 
ATOM      8  C   UNL     1       2.699   5.081  19.826  0.00  0.00    +0.000 A 
ATOM      9  C   UNL     1       2.509   8.440  18.374  0.00  0.00    +0.000 C 
ATOM     10  O   UNL     1       2.826   9.234  17.503  0.00  0.00    +0.000 OA
ENDROOT
BRANCH   6  11
ATOM     11  N   UNL     1       5.481   4.446  17.425  0.00  0.00    +0.000 N 
ATOM     12  C   UNL     1       6.888   4.767  17.717  0.00  0.00    +0.000 C 
ATOM     13  C   UNL     1       7.572   5.466  16.528  0.00  0.00    +0.000 C 
ATOM     14  N   UNL     1       7.487   4.664  15.296  0.00  0.00    +0.000 NA
ATOM     15  C   UNL     1       6.053   4.374  14.999  0.00  0.00    +0.000 C 
ATOM     16  C   UNL     1       5.365   5.290  14.010  0.00  0.00    +0.000 C 
ATOM     17  C   UNL     1       5.758   3.905  13.590  0.00  0.00    +0.000 C 
ATOM     18  C   UNL     1       5.220   3.758  16.145  0.00  0.00    +0.000 C 
ATOM     19  H   UNL     1       7.978   3.783  15.446  0.00  0.00    +0.000 HD
ENDBRANCH   6  11
BRANCH   1  24
ATOM     20  C   UNL     1      -1.444  10.742  18.902  0.00  0.00    +0.000 A 
ATOM     21  C   UNL     1      -1.285  11.609  19.992  0.00  0.00    +0.000 A 
ATOM     22  C   UNL     1      -0.221  11.467  20.895  0.00  0.00    +0.000 A 
ATOM     23  C   UNL     1       0.736  10.459  20.731  0.00  0.00    +0.000 A 
ATOM     24  C   UNL     1       0.618   9.567  19.670  0.00  0.00    +0.000 A 
ATOM     25  C   UNL     1      -0.486   9.722  18.807  0.00  0.00    +0.000 A 
BRANCH  20  26
ATOM     26  C   UNL     1      -2.645  10.849  17.825  0.00  0.00    +0.000 C 
ATOM     27  C   UNL     1      -3.383   9.498  17.567  0.00  0.00    +0.000 C 
ATOM     28  O   UNL     1      -3.002   9.472  16.180  0.00  0.00    +0.000 OA
ATOM     29  C   UNL     1      -2.275  10.712  16.314  0.00  0.00    +0.000 C 
BRANCH  26  30
ATOM     30  C   UNL     1      -3.616  12.038  18.141  0.00  0.00    +0.000 C 
BRANCH  30  36
ATOM     31  C   UNL     1      -4.888  12.548  21.136  0.00  0.00    +0.000 C 
ATOM     32  N   UNL     1      -5.466  11.917  19.974  0.00  0.00    +0.000 N 
ATOM     33  C   UNL     1      -6.728  11.391  19.993  0.00  0.00    +0.000 A 
ATOM     34  N   UNL     1      -6.987  10.820  18.841  0.00  0.00    +0.000 NA
ATOM     35  N   UNL     1      -5.881  10.979  18.046  0.00  0.00    +0.000 NA
ATOM     36  C   UNL     1      -4.967  11.674  18.701  0.00  0.00    +0.000 A 
ENDBRANCH  30  36
ENDBRANCH  26  30
ENDBRANCH  20  26
ENDBRANCH   1  24
BRANCH   8  37
ATOM     37  C   UNL     1       1.904   4.337  20.872  0.00  0.00    +0.000 C 
ATOM     38  F   UNL     1       0.564   4.580  20.822  0.00  0.00    +0.000 F 
ATOM     39  F   UNL     1       2.036   2.986  20.757  0.00  0.00    +0.000 F 
ATOM     40  F   UNL     1       2.277   4.648  22.142  0.00  0.00    +0.000 F 
ENDBRANCH   8  37
TORSDOF 6
ENDMDL
MODEL 5
REMARK VINA RESULT:      -9.0      3.068      4.637
REMARK  Name = 
REMARK  7 active torsions:
REMARK  status: ('A' for Active; 'I' for Inactive)
REMARK    1  A    between atoms: C_1  and  N_2
REMARK    2  A    between atoms: C_6  and  C_7
REMARK    3  A    between atoms: C_7  and  C_8
REMARK    4  A    between atoms: C_8  and  C_9
REMARK    5  A    between atoms: C_13  and  N_14
REMARK    6  A    between atoms: C_19  and  N_20
REMARK    7  A    between atoms: C_29  and  C_30
REMARK                            x       y       z     vdW  Elec       q    Type
REMARK                         _______ _______ _______ _____ _____    ______ ____
ROOT
ATOM      1  N   UNL     1       1.031   9.314  19.765  0.00  0.00    +0.000 N 
ATOM      2  C   UNL     1       0.054  10.104  19.037  0.00  0.00    +0.000 C 
ATOM      3  C   UNL     1      -0.738  10.782  20.085  0.00  0.00    +0.000 A 
ATOM      4  C   UNL     1      -0.162  10.533  21.331  0.00  0.00    +0.000 A 
ATOM      5  C   UNL     1      -0.668  11.151  22.464  0.00  0.00    +0.000 A 
ATOM      6  C   UNL     1      -1.788  11.995  22.364  0.00  0.00    +0.000 A 
ATOM      7  C   UNL     1      -2.388  12.160  21.085  0.00  0.00    +0.000 A 
ATOM      8  C   UNL     1      -1.871  11.556  19.927  0.00  0.00    +0.000 A 
ATOM      9  C   UNL     1       0.949   9.557  21.142  0.00  0.00    +0.000 C 
ATOM     10  O   UNL     1       1.592   9.090  22.068  0.00  0.00    +0.000 OA
ENDROOT
BRANCH   6  11
ATOM     11  N   UNL     1      -2.303  12.678  23.457  0.00  0.00    +0.000 N 
ATOM     12  C   UNL     1      -3.593  12.290  24.051  0.00  0.00    +0.000 C 
ATOM     13  C   UNL     1      -4.680  13.350  23.799  0.00  0.00    +0.000 C 
ATOM     14  N   UNL     1      -4.279  14.677  24.298  0.00  0.00    +0.000 NA
ATOM     15  C   UNL     1      -2.985  15.067  23.663  0.00  0.00    +0.000 C 
ATOM     16  C   UNL     1      -3.070  15.960  22.443  0.00  0.00    +0.000 C 
ATOM     17  C   UNL     1      -2.628  16.536  23.755  0.00  0.00    +0.000 C 
ATOM     18  C   UNL     1      -1.831  14.045  23.756  0.00  0.00    +0.000 C 
ATOM     19  H   UNL     1      -4.146  14.619  25.308  0.00  0.00    +0.000 HD
ENDBRANCH   6  11
BRANCH   1  24
ATOM     20  C   UNL     1       2.681   6.050  18.923  0.00  0.00    +0.000 A 
ATOM     21  C   UNL     1       3.438   6.446  17.812  0.00  0.00    +0.000 A 
ATOM     22  C   UNL     1       3.398   7.761  17.325  0.00  0.00    +0.000 A 
ATOM     23  C   UNL     1       2.607   8.736  17.945  0.00  0.00    +0.000 A 
ATOM     24  C   UNL     1       1.829   8.392  19.045  0.00  0.00    +0.000 A 
ATOM     25  C   UNL     1       1.871   7.051  19.480  0.00  0.00    +0.000 A 
BRANCH  20  26
ATOM     26  C   UNL     1       2.681   4.553  19.535  0.00  0.00    +0.000 C 
ATOM     27  C   UNL     1       1.276   3.874  19.539  0.00  0.00    +0.000 C 
ATOM     28  O   UNL     1       1.249   3.769  20.973  0.00  0.00    +0.000 OA
ATOM     29  C   UNL     1       2.541   4.406  21.084  0.00  0.00    +0.000 C 
BRANCH  26  30
ATOM     30  C   UNL     1       3.804   3.659  18.906  0.00  0.00    +0.000 C 
BRANCH  30  36
ATOM     31  C   UNL     1       5.796   4.014  16.307  0.00  0.00    +0.000 C 
ATOM     32  N   UNL     1       5.980   4.409  17.682  0.00  0.00    +0.000 N 
ATOM     33  C   UNL     1       7.126   5.022  18.108  0.00  0.00    +0.000 A 
ATOM     34  N   UNL     1       7.070   5.214  19.404  0.00  0.00    +0.000 NA
ATOM     35  N   UNL     1       5.864   4.728  19.840  0.00  0.00    +0.000 NA
ATOM     36  C   UNL     1       5.176   4.273  18.806  0.00  0.00    +0.000 A 
ENDBRANCH  30  36
ENDBRANCH  26  30
ENDBRANCH  20  26
ENDBRANCH   1  24
BRANCH   8  37
ATOM     37  C   UNL     1      -2.546  11.723  18.587  0.00  0.00    +0.000 C 
ATOM     38  F   UNL     1      -1.794  12.393  17.669  0.00  0.00    +0.000 F 
ATOM     39  F   UNL     1      -2.849  10.527  18.008  0.00  0.00    +0.000 F 
ATOM     40  F   UNL     1      -3.715  12.413  18.664  0.00  0.00    +0.000 F 
ENDBRANCH   8  37
TORSDOF 6
ENDMDL
MODEL 6
REMARK VINA RESULT:      -9.0      1.565      2.519
REMARK  Name = 
REMARK  7 active torsions:
REMARK  status: ('A' for Active; 'I' for Inactive)
REMARK    1  A    between atoms: C_1  and  N_2
REMARK    2  A    between atoms: C_6  and  C_7
REMARK    3  A    between atoms: C_7  and  C_8
REMARK    4  A    between atoms: C_8  and  C_9
REMARK    5  A    between atoms: C_13  and  N_14
REMARK    6  A    between atoms: C_19  and  N_20
REMARK    7  A    between atoms: C_29  and  C_30
REMARK                            x       y       z     vdW  Elec       q    Type
REMARK                         _______ _______ _______ _____ _____    ______ ____
ROOT
ATOM      1  N   UNL     1       2.312   7.280  19.099  0.00  0.00    +0.000 N 
ATOM      2  C   UNL     1       1.567   7.587  20.307  0.00  0.00    +0.000 C 
ATOM      3  C   UNL     1       1.166   9.001  20.153  0.00  0.00    +0.000 A 
ATOM      4  C   UNL     1       1.512   9.441  18.876  0.00  0.00    +0.000 A 
ATOM      5  C   UNL     1       1.142  10.710  18.456  0.00  0.00    +0.000 A 
ATOM      6  C   UNL     1       0.456  11.569  19.333  0.00  0.00    +0.000 A 
ATOM      7  C   UNL     1       0.191  11.104  20.651  0.00  0.00    +0.000 A 
ATOM      8  C   UNL     1       0.542   9.813  21.080  0.00  0.00    +0.000 A 
ATOM      9  C   UNL     1       2.287   8.358  18.205  0.00  0.00    +0.000 C 
ATOM     10  O   UNL     1       2.790   8.483  17.101  0.00  0.00    +0.000 OA
ENDROOT
BRANCH   6  11
ATOM     11  N   UNL     1       0.018  12.828  18.949  0.00  0.00    +0.000 N 
ATOM     12  C   UNL     1       0.976  13.868  18.537  0.00  0.00    +0.000 C 
ATOM     13  C   UNL     1       1.055  15.011  19.565  0.00  0.00    +0.000 C 
ATOM     14  N   UNL     1      -0.264  15.616  19.815  0.00  0.00    +0.000 NA
ATOM     15  C   UNL     1      -1.214  14.553  20.260  0.00  0.00    +0.000 C 
ATOM     16  C   UNL     1      -1.412  14.401  21.753  0.00  0.00    +0.000 C 
ATOM     17  C   UNL     1      -2.483  15.045  20.925  0.00  0.00    +0.000 C 
ATOM     18  C   UNL     1      -1.318  13.298  19.366  0.00  0.00    +0.000 C 
ATOM     19  H   UNL     1      -0.608  16.022  18.944  0.00  0.00    +0.000 HD
ENDBRANCH   6  11
BRANCH   1  24
ATOM     20  C   UNL     1       4.637   4.667  17.738  0.00  0.00    +0.000 A 
ATOM     21  C   UNL     1       4.381   3.627  18.643  0.00  0.00    +0.000 A 
ATOM     22  C   UNL     1       3.473   3.780  19.701  0.00  0.00    +0.000 A 
ATOM     23  C   UNL     1       2.774   4.978  19.885  0.00  0.00    +0.000 A 
ATOM     24  C   UNL     1       2.999   6.045  19.021  0.00  0.00    +0.000 A 
ATOM     25  C   UNL     1       3.946   5.862  17.992  0.00  0.00    +0.000 A 
BRANCH  20  26
ATOM     26  C   UNL     1       5.669   4.559  16.499  0.00  0.00    +0.000 C 
ATOM     27  C   UNL     1       5.300   5.472  15.289  0.00  0.00    +0.000 C 
ATOM     28  O   UNL     1       5.121   4.352  14.404  0.00  0.00    +0.000 OA
ATOM     29  C   UNL     1       5.432   3.417  15.460  0.00  0.00    +0.000 C 
BRANCH  26  30
ATOM     30  C   UNL     1       7.160   4.707  16.959  0.00  0.00    +0.000 C 
BRANCH  30  36
ATOM     31  C   UNL     1       8.068   5.708  19.962  0.00  0.00    +0.000 C 
ATOM     32  N   UNL     1       7.967   6.445  18.726  0.00  0.00    +0.000 N 
ATOM     33  C   UNL     1       8.248   7.782  18.659  0.00  0.00    +0.000 A 
ATOM     34  N   UNL     1       8.015   8.223  17.446  0.00  0.00    +0.000 NA
ATOM     35  N   UNL     1       7.580   7.159  16.698  0.00  0.00    +0.000 NA
ATOM     36  C   UNL     1       7.583   6.069  17.446  0.00  0.00    +0.000 A 
ENDBRANCH  30  36
ENDBRANCH  26  30
ENDBRANCH  20  26
ENDBRANCH   1  24
BRANCH   8  37
ATOM     37  C   UNL     1       0.277   9.356  22.494  0.00  0.00    +0.000 C 
ATOM     38  F   UNL     1      -0.577   8.298  22.581  0.00  0.00    +0.000 F 
ATOM     39  F   UNL     1       1.414   8.963  23.133  0.00  0.00    +0.000 F 
ATOM     40  F   UNL     1      -0.277  10.327  23.269  0.00  0.00    +0.000 F 
ENDBRANCH   8  37
TORSDOF 6
ENDMDL
MODEL 7
REMARK VINA RESULT:      -9.0      2.898     10.267
REMARK  Name = 
REMARK  7 active torsions:
REMARK  status: ('A' for Active; 'I' for Inactive)
REMARK    1  A    between atoms: C_1  and  N_2
REMARK    2  A    between atoms: C_6  and  C_7
REMARK    3  A    between atoms: C_7  and  C_8
REMARK    4  A    between atoms: C_8  and  C_9
REMARK    5  A    between atoms: C_13  and  N_14
REMARK    6  A    between atoms: C_19  and  N_20
REMARK    7  A    between atoms: C_29  and  C_30
REMARK                            x       y       z     vdW  Elec       q    Type
REMARK                         _______ _______ _______ _____ _____    ______ ____
ROOT
ATOM      1  N   UNL     1       1.498   8.537  19.142  0.00  0.00    +0.000 N 
ATOM      2  C   UNL     1       1.482   7.375  20.012  0.00  0.00    +0.000 C 
ATOM      3  C   UNL     1       2.462   6.444  19.414  0.00  0.00    +0.000 A 
ATOM      4  C   UNL     1       3.121   7.081  18.363  0.00  0.00    +0.000 A 
ATOM      5  C   UNL     1       4.164   6.442  17.710  0.00  0.00    +0.000 A 
ATOM      6  C   UNL     1       4.529   5.136  18.079  0.00  0.00    +0.000 A 
ATOM      7  C   UNL     1       3.780   4.498  19.106  0.00  0.00    +0.000 A 
ATOM      8  C   UNL     1       2.736   5.143  19.788  0.00  0.00    +0.000 A 
ATOM      9  C   UNL     1       2.480   8.411  18.150  0.00  0.00    +0.000 C 
ATOM     10  O   UNL     1       2.794   9.167  17.246  0.00  0.00    +0.000 OA
ENDROOT
BRANCH   6  11
ATOM     11  N   UNL     1       5.597   4.470  17.494  0.00  0.00    +0.000 N 
ATOM     12  C   UNL     1       6.985   4.820  17.837  0.00  0.00    +0.000 C 
ATOM     13  C   UNL     1       7.710   5.499  16.661  0.00  0.00    +0.000 C 
ATOM     14  N   UNL     1       7.690   4.664  15.448  0.00  0.00    +0.000 NA
ATOM     15  C   UNL     1       6.274   4.343  15.098  0.00  0.00    +0.000 C 
ATOM     16  C   UNL     1       5.617   5.222  14.057  0.00  0.00    +0.000 C 
ATOM     17  C   UNL     1       6.047   3.834  13.690  0.00  0.00    +0.000 C 
ATOM     18  C   UNL     1       5.401   3.744  16.223  0.00  0.00    +0.000 C 
ATOM     19  H   UNL     1       8.187   3.794  15.643  0.00  0.00    +0.000 HD
ENDBRANCH   6  11
BRANCH   1  24
ATOM     20  C   UNL     1      -1.585  10.575  18.485  0.00  0.00    +0.000 A 
ATOM     21  C   UNL     1      -1.458  11.532  19.501  0.00  0.00    +0.000 A 
ATOM     22  C   UNL     1      -0.388  11.504  20.408  0.00  0.00    +0.000 A 
ATOM     23  C   UNL     1       0.607  10.523  20.322  0.00  0.00    +0.000 A 
ATOM     24  C   UNL     1       0.522   9.544  19.337  0.00  0.00    +0.000 A 
ATOM     25  C   UNL     1      -0.589   9.587  18.468  0.00  0.00    +0.000 A 
BRANCH  20  26
ATOM     26  C   UNL     1      -2.791  10.549  17.409  0.00  0.00    +0.000 C 
ATOM     27  C   UNL     1      -2.574   9.534  16.243  0.00  0.00    +0.000 C 
ATOM     28  O   UNL     1      -2.563  10.570  15.246  0.00  0.00    +0.000 OA
ATOM     29  C   UNL     1      -2.746  11.594  16.249  0.00  0.00    +0.000 C 
BRANCH  26  30
ATOM     30  C   UNL     1      -4.193  10.417  18.097  0.00  0.00    +0.000 C 
BRANCH  30  36
ATOM     31  C   UNL     1      -4.821  12.623  20.461  0.00  0.00    +0.000 C 
ATOM     32  N   UNL     1      -5.300  12.553  19.101  0.00  0.00    +0.000 N 
ATOM     33  C   UNL     1      -6.171  13.478  18.596  0.00  0.00    +0.000 A 
ATOM     34  N   UNL     1      -6.501  13.151  17.369  0.00  0.00    +0.000 NA
ATOM     35  N   UNL     1      -5.831  11.996  17.057  0.00  0.00    +0.000 NA
ATOM     36  C   UNL     1      -5.070  11.642  18.079  0.00  0.00    +0.000 A 
ENDBRANCH  30  36
ENDBRANCH  26  30
ENDBRANCH  20  26
ENDBRANCH   1  24
BRANCH   8  37
ATOM     37  C   UNL     1       1.937   4.432  20.854  0.00  0.00    +0.000 C 
ATOM     38  F   UNL     1       2.268   4.792  22.125  0.00  0.00    +0.000 F 
ATOM     39  F   UNL     1       0.600   4.670  20.743  0.00  0.00    +0.000 F 
ATOM     40  F   UNL     1       2.086   3.081  20.815  0.00  0.00    +0.000 F 
ENDBRANCH   8  37
TORSDOF 6
ENDMDL
MODEL 8
REMARK VINA RESULT:      -9.0      1.302      1.919
REMARK  Name = 
REMARK  7 active torsions:
REMARK  status: ('A' for Active; 'I' for Inactive)
REMARK    1  A    between atoms: C_1  and  N_2
REMARK    2  A    between atoms: C_6  and  C_7
REMARK    3  A    between atoms: C_7  and  C_8
REMARK    4  A    between atoms: C_8  and  C_9
REMARK    5  A    between atoms: C_13  and  N_14
REMARK    6  A    between atoms: C_19  and  N_20
REMARK    7  A    between atoms: C_29  and  C_30
REMARK                            x       y       z     vdW  Elec       q    Type
REMARK                         _______ _______ _______ _____ _____    ______ ____
ROOT
ATOM      1  N   UNL     1       2.323   7.177  19.453  0.00  0.00    +0.000 N 
ATOM      2  C   UNL     1       1.705   7.525  20.720  0.00  0.00    +0.000 C 
ATOM      3  C   UNL     1       0.913   8.739  20.431  0.00  0.00    +0.000 A 
ATOM      4  C   UNL     1       0.937   8.990  19.060  0.00  0.00    +0.000 A 
ATOM      5  C   UNL     1       0.178  10.022  18.530  0.00  0.00    +0.000 A 
ATOM      6  C   UNL     1      -0.584  10.842  19.381  0.00  0.00    +0.000 A 
ATOM      7  C   UNL     1      -0.519  10.596  20.780  0.00  0.00    +0.000 A 
ATOM      8  C   UNL     1       0.230   9.540  21.325  0.00  0.00    +0.000 A 
ATOM      9  C   UNL     1       1.875   8.019  18.426  0.00  0.00    +0.000 C 
ATOM     10  O   UNL     1       2.161   8.043  17.240  0.00  0.00    +0.000 OA
ENDROOT
BRANCH   6  11
ATOM     11  N   UNL     1      -1.402  11.856  18.900  0.00  0.00    +0.000 N 
ATOM     12  C   UNL     1      -1.939  12.885  19.804  0.00  0.00    +0.000 C 
ATOM     13  C   UNL     1      -3.460  12.744  19.990  0.00  0.00    +0.000 C 
ATOM     14  N   UNL     1      -4.178  12.783  18.705  0.00  0.00    +0.000 NA
ATOM     15  C   UNL     1      -3.640  11.713  17.812  0.00  0.00    +0.000 C 
ATOM     16  C   UNL     1      -4.407  10.409  17.779  0.00  0.00    +0.000 C 
ATOM     17  C   UNL     1      -4.506  11.358  16.622  0.00  0.00    +0.000 C 
ATOM     18  C   UNL     1      -2.108  11.679  17.616  0.00  0.00    +0.000 C 
ATOM     19  H   UNL     1      -4.014  13.690  18.268  0.00  0.00    +0.000 HD
ENDBRANCH   6  11
BRANCH   1  24
ATOM     20  C   UNL     1       5.598   5.507  18.697  0.00  0.00    +0.000 A 
ATOM     21  C   UNL     1       5.337   4.229  19.210  0.00  0.00    +0.000 A 
ATOM     22  C   UNL     1       4.112   3.917  19.817  0.00  0.00    +0.000 A 
ATOM     23  C   UNL     1       3.092   4.871  19.919  0.00  0.00    +0.000 A 
ATOM     24  C   UNL     1       3.305   6.157  19.434  0.00  0.00    +0.000 A 
ATOM     25  C   UNL     1       4.563   6.440  18.864  0.00  0.00    +0.000 A 
BRANCH  20  26
ATOM     26  C   UNL     1       6.986   5.934  17.986  0.00  0.00    +0.000 C 
ATOM     27  C   UNL     1       8.038   6.538  18.968  0.00  0.00    +0.000 C 
ATOM     28  O   UNL     1       8.046   7.809  18.293  0.00  0.00    +0.000 OA
ATOM     29  C   UNL     1       7.060   7.355  17.341  0.00  0.00    +0.000 C 
BRANCH  26  30
ATOM     30  C   UNL     1       7.563   4.790  17.083  0.00  0.00    +0.000 C 
BRANCH  30  36
ATOM     31  C   UNL     1       4.806   3.540  15.785  0.00  0.00    +0.000 C 
ATOM     32  N   UNL     1       5.908   4.223  15.151  0.00  0.00    +0.000 N 
ATOM     33  C   UNL     1       5.942   4.433  13.800  0.00  0.00    +0.000 A 
ATOM     34  N   UNL     1       7.074   5.010  13.471  0.00  0.00    +0.000 NA
ATOM     35  N   UNL     1       7.794   5.190  14.625  0.00  0.00    +0.000 NA
ATOM     36  C   UNL     1       7.086   4.756  15.654  0.00  0.00    +0.000 A 
ENDBRANCH  30  36
ENDBRANCH  26  30
ENDBRANCH  20  26
ENDBRANCH   1  24
BRANCH   8  37
ATOM     37  C   UNL     1       0.306   9.320  22.817  0.00  0.00    +0.000 C 
ATOM     38  F   UNL     1      -0.281  10.306  23.551  0.00  0.00    +0.000 F 
ATOM     39  F   UNL     1      -0.304   8.165  23.201  0.00  0.00    +0.000 F 
ATOM     40  F   UNL     1       1.584   9.245  23.277  0.00  0.00    +0.000 F 
ENDBRANCH   8  37
TORSDOF 6
ENDMDL
MODEL 9
REMARK VINA RESULT:      -9.0      2.362      9.604
REMARK  Name = 
REMARK  7 active torsions:
REMARK  status: ('A' for Active; 'I' for Inactive)
REMARK    1  A    between atoms: C_1  and  N_2
REMARK    2  A    between atoms: C_6  and  C_7
REMARK    3  A    between atoms: C_7  and  C_8
REMARK    4  A    between atoms: C_8  and  C_9
REMARK    5  A    between atoms: C_13  and  N_14
REMARK    6  A    between atoms: C_19  and  N_20
REMARK    7  A    between atoms: C_29  and  C_30
REMARK                            x       y       z     vdW  Elec       q    Type
REMARK                         _______ _______ _______ _____ _____    ______ ____
ROOT
ATOM      1  N   UNL     1       1.614   8.005  20.054  0.00  0.00    +0.000 N 
ATOM      2  C   UNL     1       1.615   6.717  20.724  0.00  0.00    +0.000 C 
ATOM      3  C   UNL     1       2.533   5.878  19.925  0.00  0.00    +0.000 A 
ATOM      4  C   UNL     1       3.149   6.667  18.953  0.00  0.00    +0.000 A 
ATOM      5  C   UNL     1       4.135   6.124  18.144  0.00  0.00    +0.000 A 
ATOM      6  C   UNL     1       4.485   4.768  18.274  0.00  0.00    +0.000 A 
ATOM      7  C   UNL     1       3.777   3.984  19.227  0.00  0.00    +0.000 A 
ATOM      8  C   UNL     1       2.791   4.529  20.067  0.00  0.00    +0.000 A 
ATOM      9  C   UNL     1       2.535   8.024  18.998  0.00  0.00    +0.000 C 
ATOM     10  O   UNL     1       2.819   8.912  18.211  0.00  0.00    +0.000 OA
ENDROOT
BRANCH   6  11
ATOM     11  N   UNL     1       5.499   4.187  17.525  0.00  0.00    +0.000 N 
ATOM     12  C   UNL     1       6.912   4.491  17.804  0.00  0.00    +0.000 C 
ATOM     13  C   UNL     1       7.551   5.320  16.676  0.00  0.00    +0.000 C 
ATOM     14  N   UNL     1       7.431   4.654  15.368  0.00  0.00    +0.000 NA
ATOM     15  C   UNL     1       5.990   4.381  15.089  0.00  0.00    +0.000 C 
ATOM     16  C   UNL     1       5.262   5.390  14.227  0.00  0.00    +0.000 C 
ATOM     17  C   UNL     1       5.651   4.063  13.648  0.00  0.00    +0.000 C 
ATOM     18  C   UNL     1       5.200   3.637  16.188  0.00  0.00    +0.000 C 
ATOM     19  H   UNL     1       7.933   3.767  15.407  0.00  0.00    +0.000 HD
ENDBRANCH   6  11
BRANCH   1  24
ATOM     20  C   UNL     1      -0.917  10.759  19.740  0.00  0.00    +0.000 A 
ATOM     21  C   UNL     1      -1.133  11.038  21.097  0.00  0.00    +0.000 A 
ATOM     22  C   UNL     1      -0.477  10.323  22.109  0.00  0.00    +0.000 A 
ATOM     23  C   UNL     1       0.436   9.307  21.800  0.00  0.00    +0.000 A 
ATOM     24  C   UNL     1       0.680   8.985  20.469  0.00  0.00    +0.000 A 
ATOM     25  C   UNL     1      -0.028   9.704  19.483  0.00  0.00    +0.000 A 
BRANCH  20  26
ATOM     26  C   UNL     1      -1.639  11.543  18.525  0.00  0.00    +0.000 C 
ATOM     27  C   UNL     1      -3.111  11.962  18.831  0.00  0.00    +0.000 C 
ATOM     28  O   UNL     1      -3.640  11.148  17.770  0.00  0.00    +0.000 OA
ATOM     29  C   UNL     1      -2.320  10.682  17.414  0.00  0.00    +0.000 C 
BRANCH  26  30
ATOM     30  C   UNL     1      -0.759  12.718  17.975  0.00  0.00    +0.000 C 
BRANCH  30  36
ATOM     31  C   UNL     1      -0.894  14.841  20.489  0.00  0.00    +0.000 C 
ATOM     32  N   UNL     1       0.227  14.117  19.941  0.00  0.00    +0.000 N 
ATOM     33  C   UNL     1       1.491  14.260  20.444  0.00  0.00    +0.000 A 
ATOM     34  N   UNL     1       2.333  13.550  19.731  0.00  0.00    +0.000 NA
ATOM     35  N   UNL     1       1.612  12.923  18.747  0.00  0.00    +0.000 NA
ATOM     36  C   UNL     1       0.332  13.224  18.884  0.00  0.00    +0.000 A 
ENDBRANCH  30  36
ENDBRANCH  26  30
ENDBRANCH  20  26
ENDBRANCH   1  24
BRANCH   8  37
ATOM     37  C   UNL     1       2.034   3.668  21.049  0.00  0.00    +0.000 C 
ATOM     38  F   UNL     1       2.279   3.973  22.354  0.00  0.00    +0.000 F 
ATOM     39  F   UNL     1       0.685   3.774  20.896  0.00  0.00    +0.000 F 
ATOM     40  F   UNL     1       2.327   2.345  20.929  0.00  0.00    +0.000 F 
ENDBRANCH   8  37
TORSDOF 6
ENDMDL
