MODEL 1
REMARK VINA RESULT:      -9.5      0.000      0.000
REMARK  Name = 
REMARK  8 active torsions:
REMARK  status: ('A' for Active; 'I' for Inactive)
REMARK    1  A    between atoms: C_1  and  C_2
REMARK    2  A    between atoms: C_4  and  C_5
REMARK    3  A    between atoms: N_7  and  C_8
REMARK    4  A    between atoms: C_12  and  C_13
REMARK    5  A    between atoms: C_13  and  C_14
REMARK    6  A    between atoms: C_14  and  C_15
REMARK    7  A    between atoms: N_19  and  C_20
REMARK    8  A    between atoms: C_27  and  C_28
REMARK                            x       y       z     vdW  Elec       q    Type
REMARK                         _______ _______ _______ _____ _____    ______ ____
ROOT
ATOM      1  C   UNL     1       2.536   6.086  18.411  0.00  0.00    +0.000 A 
ATOM      2  C   UNL     1       1.752   4.978  18.100  0.00  0.00    +0.000 A 
ATOM      3  C   UNL     1       2.278   3.917  17.369  0.00  0.00    +0.000 A 
ATOM      4  C   UNL     1       3.607   3.950  16.955  0.00  0.00    +0.000 A 
ATOM      5  C   UNL     1       4.454   5.034  17.260  0.00  0.00    +0.000 A 
ATOM      6  C   UNL     1       3.867   6.114  17.964  0.00  0.00    +0.000 A 
ENDROOT
BRANCH   1   9
ATOM      7  C   UNL     1       1.750   8.436  18.654  0.00  0.00    +0.000 C 
ATOM      8  O   UNL     1       1.783   8.753  17.466  0.00  0.00    +0.000 OA
ATOM      9  N   UNL     1       2.056   7.188  19.155  0.00  0.00    +0.000 N 
ATOM     10  H   UNL     1       1.856   7.022  20.146  0.00  0.00    +0.000 HD
BRANCH   7  14
ATOM     11  C   UNL     1      -0.279   9.499  23.055  0.00  0.00    +0.000 C 
ATOM     12  C   UNL     1       0.372  10.012  21.796  0.00  0.00    +0.000 A 
ATOM     13  C   UNL     1       0.784   8.997  20.785  0.00  0.00    +0.000 A 
ATOM     14  C   UNL     1       1.347   9.466  19.655  0.00  0.00    +0.000 A 
ATOM     15  N   UNL     1       1.520  10.837  19.497  0.00  0.00    +0.000 N 
ATOM     16  N   UNL     1       2.063  11.507  18.439  0.00  0.00    +0.000 NA
ATOM     17  C   UNL     1       2.042  12.794  18.800  0.00  0.00    +0.000 A 
ATOM     18  C   UNL     1       2.590  13.841  17.902  0.00  0.00    +0.000 C 
ATOM     19  C   UNL     1       1.467  12.978  20.073  0.00  0.00    +0.000 A 
ATOM     20  C   UNL     1       1.124  11.721  20.506  0.00  0.00    +0.000 A 
ATOM     21  N   UNL     1       0.535  11.297  21.663  0.00  0.00    +0.000 NA
ENDBRANCH   7  14
ENDBRANCH   1   9
BRANCH   5  22
ATOM     22  C   UNL     1       6.011   5.007  16.866  0.00  0.00    +0.000 C 
ATOM     23  C   UNL     1       6.761   6.360  16.720  0.00  0.00    +0.000 C 
ATOM     24  O   UNL     1       7.857   5.880  17.547  0.00  0.00    +0.000 OA
ATOM     25  C   UNL     1       7.008   4.820  18.049  0.00  0.00    +0.000 C 
BRANCH  22  26
ATOM     26  C   UNL     1       6.309   3.991  15.750  0.00  0.00    +0.000 C 
BRANCH  26  27
ATOM     27  C   UNL     1       6.939   4.593  14.541  0.00  0.00    +0.000 A 
ATOM     28  N   UNL     1       7.917   5.477  14.525  0.00  0.00    +0.000 NA
ATOM     29  N   UNL     1       8.227   5.752  13.215  0.00  0.00    +0.000 NA
ATOM     30  C   UNL     1       7.437   5.028  12.458  0.00  0.00    +0.000 A 
ATOM     31  N   UNL     1       6.609   4.289  13.245  0.00  0.00    +0.000 N 
ATOM     32  C   UNL     1       5.609   3.363  12.789  0.00  0.00    +0.000 C 
ENDBRANCH  26  27
ENDBRANCH  22  26
ENDBRANCH   5  22
TORSDOF 5
ENDMDL
MODEL 2
REMARK VINA RESULT:      -9.3      3.190      9.193
REMARK  Name = 
REMARK  8 active torsions:
REMARK  status: ('A' for Active; 'I' for Inactive)
REMARK    1  A    between atoms: C_1  and  C_2
REMARK    2  A    between atoms: C_4  and  C_5
REMARK    3  A    between atoms: N_7  and  C_8
REMARK    4  A    between atoms: C_12  and  C_13
REMARK    5  A    between atoms: C_13  and  C_14
REMARK    6  A    between atoms: C_14  and  C_15
REMARK    7  A    between atoms: N_19  and  C_20
REMARK    8  A    between atoms: C_27  and  C_28
REMARK                            x       y       z     vdW  Elec       q    Type
REMARK                         _______ _______ _______ _____ _____    ______ ____
ROOT
ATOM      1  C   UNL     1       0.895   9.074  21.048  0.00  0.00    +0.000 A 
ATOM      2  C   UNL     1       0.524   9.024  22.390  0.00  0.00    +0.000 A 
ATOM      3  C   UNL     1      -0.310   9.997  22.933  0.00  0.00    +0.000 A 
ATOM      4  C   UNL     1      -0.797  11.023  22.129  0.00  0.00    +0.000 A 
ATOM      5  C   UNL     1      -0.475  11.111  20.759  0.00  0.00    +0.000 A 
ATOM      6  C   UNL     1       0.415  10.130  20.257  0.00  0.00    +0.000 A 
ENDROOT
BRANCH   1   9
ATOM      7  C   UNL     1       2.004   8.000  19.094  0.00  0.00    +0.000 C 
ATOM      8  O   UNL     1       1.608   8.774  18.223  0.00  0.00    +0.000 OA
ATOM      9  N   UNL     1       1.734   8.110  20.442  0.00  0.00    +0.000 N 
ATOM     10  H   UNL     1       2.237   7.478  21.071  0.00  0.00    +0.000 HD
BRANCH   7  14
ATOM     11  C   UNL     1       5.433   6.127  16.037  0.00  0.00    +0.000 C 
ATOM     12  C   UNL     1       4.524   5.905  17.219  0.00  0.00    +0.000 A 
ATOM     13  C   UNL     1       3.673   7.054  17.642  0.00  0.00    +0.000 A 
ATOM     14  C   UNL     1       2.849   6.841  18.686  0.00  0.00    +0.000 A 
ATOM     15  N   UNL     1       2.841   5.596  19.306  0.00  0.00    +0.000 N 
ATOM     16  N   UNL     1       2.088   5.181  20.367  0.00  0.00    +0.000 NA
ATOM     17  C   UNL     1       2.490   3.928  20.603  0.00  0.00    +0.000 A 
ATOM     18  C   UNL     1       1.909   3.146  21.723  0.00  0.00    +0.000 C 
ATOM     19  C   UNL     1       3.479   3.507  19.693  0.00  0.00    +0.000 A 
ATOM     20  C   UNL     1       3.688   4.576  18.858  0.00  0.00    +0.000 A 
ATOM     21  N   UNL     1       4.530   4.738  17.794  0.00  0.00    +0.000 NA
ENDBRANCH   7  14
ENDBRANCH   1   9
BRANCH   5  22
ATOM     22  C   UNL     1      -1.129  12.241  19.824  0.00  0.00    +0.000 C 
ATOM     23  C   UNL     1      -0.928  13.731  20.213  0.00  0.00    +0.000 C 
ATOM     24  O   UNL     1      -0.533  14.069  18.854  0.00  0.00    +0.000 OA
ATOM     25  C   UNL     1      -0.286  12.668  18.584  0.00  0.00    +0.000 C 
BRANCH  22  26
ATOM     26  C   UNL     1      -2.562  11.883  19.398  0.00  0.00    +0.000 C 
BRANCH  26  27
ATOM     27  C   UNL     1      -2.641  11.149  18.104  0.00  0.00    +0.000 A 
ATOM     28  N   UNL     1      -1.740  10.318  17.619  0.00  0.00    +0.000 NA
ATOM     29  N   UNL     1      -2.203   9.833  16.418  0.00  0.00    +0.000 NA
ATOM     30  C   UNL     1      -3.378  10.374  16.198  0.00  0.00    +0.000 A 
ATOM     31  N   UNL     1      -3.692  11.209  17.224  0.00  0.00    +0.000 N 
ATOM     32  C   UNL     1      -4.901  11.976  17.354  0.00  0.00    +0.000 C 
ENDBRANCH  26  27
ENDBRANCH  22  26
ENDBRANCH   5  22
TORSDOF 5
ENDMDL
MODEL 3
REMARK VINA RESULT:      -9.3      3.317      9.141
REMARK  Name = 
REMARK  8 active torsions:
REMARK  status: ('A' for Active; 'I' for Inactive)
REMARK    1  A    between atoms: C_1  and  C_2
REMARK    2  A    between atoms: C_4  and  C_5
REMARK    3  A    between atoms: N_7  and  C_8
REMARK    4  A    between atoms: C_12  and  C_13
REMARK    5  A    between atoms: C_13  and  C_14
REMARK    6  A    between atoms: C_14  and  C_15
REMARK    7  A    between atoms: N_19  and  C_20
REMARK    8  A    between atoms: C_27  and  C_28
REMARK                            x       y       z     vdW  Elec       q    Type
REMARK                         _______ _______ _______ _____ _____    ______ ____
ROOT
ATOM      1  C   UNL     1       0.677   8.887  21.317  0.00  0.00    +0.000 A 
ATOM      2  C   UNL     1       0.203   9.203  22.588  0.00  0.00    +0.000 A 
ATOM      3  C   UNL     1      -0.445  10.412  22.824  0.00  0.00    +0.000 A 
ATOM      4  C   UNL     1      -0.640  11.311  21.780  0.00  0.00    +0.000 A 
ATOM      5  C   UNL     1      -0.203  11.035  20.469  0.00  0.00    +0.000 A 
ATOM      6  C   UNL     1       0.494   9.817  20.281  0.00  0.00    +0.000 A 
ENDROOT
BRANCH   1   9
ATOM      7  C   UNL     1       2.008   7.377  19.850  0.00  0.00    +0.000 C 
ATOM      8  O   UNL     1       2.193   8.159  18.919  0.00  0.00    +0.000 OA
ATOM      9  N   UNL     1       1.337   7.672  21.018  0.00  0.00    +0.000 N 
ATOM     10  H   UNL     1       1.373   6.973  21.766  0.00  0.00    +0.000 HD
BRANCH   7  14
ATOM     11  C   UNL     1       2.213   2.749  21.627  0.00  0.00    +0.000 C 
ATOM     12  C   UNL     1       2.657   3.728  20.569  0.00  0.00    +0.000 A 
ATOM     13  C   UNL     1       2.128   5.118  20.669  0.00  0.00    +0.000 A 
ATOM     14  C   UNL     1       2.545   5.991  19.733  0.00  0.00    +0.000 A 
ATOM     15  N   UNL     1       3.419   5.560  18.739  0.00  0.00    +0.000 N 
ATOM     16  N   UNL     1       3.954   6.279  17.710  0.00  0.00    +0.000 NA
ATOM     17  C   UNL     1       4.683   5.397  17.018  0.00  0.00    +0.000 A 
ATOM     18  C   UNL     1       5.404   5.810  15.788  0.00  0.00    +0.000 C 
ATOM     19  C   UNL     1       4.653   4.113  17.597  0.00  0.00    +0.000 A 
ATOM     20  C   UNL     1       3.851   4.229  18.706  0.00  0.00    +0.000 A 
ATOM     21  N   UNL     1       3.469   3.311  19.642  0.00  0.00    +0.000 NA
ENDBRANCH   7  14
ENDBRANCH   1   9
BRANCH   5  22
ATOM     22  C   UNL     1      -0.530  12.037  19.257  0.00  0.00    +0.000 C 
ATOM     23  C   UNL     1      -1.124  13.433  19.591  0.00  0.00    +0.000 C 
ATOM     24  O   UNL     1      -0.159  14.089  18.723  0.00  0.00    +0.000 OA
ATOM     25  C   UNL     1       0.664  12.898  18.747  0.00  0.00    +0.000 C 
BRANCH  22  26
ATOM     26  C   UNL     1      -1.213  11.320  18.080  0.00  0.00    +0.000 C 
BRANCH  26  27
ATOM     27  C   UNL     1      -2.692  11.494  18.045  0.00  0.00    +0.000 A 
ATOM     28  N   UNL     1      -3.463  11.850  19.054  0.00  0.00    +0.000 NA
ATOM     29  N   UNL     1      -4.758  11.925  18.601  0.00  0.00    +0.000 NA
ATOM     30  C   UNL     1      -4.752  11.617  17.326  0.00  0.00    +0.000 A 
ATOM     31  N   UNL     1      -3.480  11.335  16.934  0.00  0.00    +0.000 N 
ATOM     32  C   UNL     1      -3.063  10.968  15.608  0.00  0.00    +0.000 C 
ENDBRANCH  26  27
ENDBRANCH  22  26
ENDBRANCH   5  22
TORSDOF 5
ENDMDL
MODEL 4
REMARK VINA RESULT:      -9.3      3.210      9.374
REMARK  Name = 
REMARK  8 active torsions:
REMARK  status: ('A' for Active; 'I' for Inactive)
REMARK    1  A    between atoms: C_1  and  C_2
REMARK    2  A    between atoms: C_4  and  C_5
REMARK    3  A    between atoms: N_7  and  C_8
REMARK    4  A    between atoms: C_12  and  C_13
REMARK    5  A    between atoms: C_13  and  C_14
REMARK    6  A    between atoms: C_14  and  C_15
REMARK    7  A    between atoms: N_19  and  C_20
REMARK    8  A    between atoms: C_27  and  C_28
REMARK                            x       y       z     vdW  Elec       q    Type
REMARK                         _______ _______ _______ _____ _____    ______ ____
ROOT
ATOM      1  C   UNL     1       1.363   8.522  20.111  0.00  0.00    +0.000 A 
ATOM      2  C   UNL     1       0.956   8.449  21.441  0.00  0.00    +0.000 A 
ATOM      3  C   UNL     1       0.151   9.442  21.994  0.00  0.00    +0.000 A 
ATOM      4  C   UNL     1      -0.269  10.512  21.209  0.00  0.00    +0.000 A 
ATOM      5  C   UNL     1       0.091  10.625  19.851  0.00  0.00    +0.000 A 
ATOM      6  C   UNL     1       0.950   9.621  19.341  0.00  0.00    +0.000 A 
ENDROOT
BRANCH   1   9
ATOM      7  C   UNL     1       2.665   7.581  18.208  0.00  0.00    +0.000 C 
ATOM      8  O   UNL     1       2.526   8.518  17.424  0.00  0.00    +0.000 OA
ATOM      9  N   UNL     1       2.174   7.540  19.497  0.00  0.00    +0.000 N 
ATOM     10  H   UNL     1       2.478   6.759  20.086  0.00  0.00    +0.000 HD
BRANCH   7  14
ATOM     11  C   UNL     1       6.760   5.686  16.146  0.00  0.00    +0.000 C 
ATOM     12  C   UNL     1       5.409   5.427  16.764  0.00  0.00    +0.000 A 
ATOM     13  C   UNL     1       4.638   6.617  17.224  0.00  0.00    +0.000 A 
ATOM     14  C   UNL     1       3.424   6.379  17.756  0.00  0.00    +0.000 A 
ATOM     15  N   UNL     1       2.968   5.068  17.856  0.00  0.00    +0.000 N 
ATOM     16  N   UNL     1       1.781   4.620  18.359  0.00  0.00    +0.000 NA
ATOM     17  C   UNL     1       1.853   3.287  18.271  0.00  0.00    +0.000 A 
ATOM     18  C   UNL     1       0.740   2.436  18.760  0.00  0.00    +0.000 C 
ATOM     19  C   UNL     1       3.064   2.858  17.693  0.00  0.00    +0.000 A 
ATOM     20  C   UNL     1       3.766   4.006  17.419  0.00  0.00    +0.000 A 
ATOM     21  N   UNL     1       4.997   4.197  16.858  0.00  0.00    +0.000 NA
ENDBRANCH   7  14
ENDBRANCH   1   9
BRANCH   5  22
ATOM     22  C   UNL     1      -0.489  11.810  18.934  0.00  0.00    +0.000 C 
ATOM     23  C   UNL     1      -1.198  13.004  19.630  0.00  0.00    +0.000 C 
ATOM     24  O   UNL     1      -0.423  13.960  18.854  0.00  0.00    +0.000 OA
ATOM     25  C   UNL     1       0.529  12.918  18.531  0.00  0.00    +0.000 C 
BRANCH  22  26
ATOM     26  C   UNL     1      -1.218  11.275  17.690  0.00  0.00    +0.000 C 
BRANCH  26  27
ATOM     27  C   UNL     1      -2.702  11.380  17.770  0.00  0.00    +0.000 A 
ATOM     28  N   UNL     1      -3.410  11.675  18.843  0.00  0.00    +0.000 NA
ATOM     29  N   UNL     1      -4.738  11.699  18.489  0.00  0.00    +0.000 NA
ATOM     30  C   UNL     1      -4.814  11.423  17.209  0.00  0.00    +0.000 A 
ATOM     31  N   UNL     1      -3.564  11.211  16.716  0.00  0.00    +0.000 N 
ATOM     32  C   UNL     1      -3.232  10.896  15.354  0.00  0.00    +0.000 C 
ENDBRANCH  26  27
ENDBRANCH  22  26
ENDBRANCH   5  22
TORSDOF 5
ENDMDL
MODEL 5
REMARK VINA RESULT:      -9.2      2.633      9.152
REMARK  Name = 
REMARK  8 active torsions:
REMARK  status: ('A' for Active; 'I' for Inactive)
REMARK    1  A    between atoms: C_1  and  C_2
REMARK    2  A    between atoms: C_4  and  C_5
REMARK    3  A    between atoms: N_7  and  C_8
REMARK    4  A    between atoms: C_12  and  C_13
REMARK    5  A    between atoms: C_13  and  C_14
REMARK    6  A    between atoms: C_14  and  C_15
REMARK    7  A    between atoms: N_19  and  C_20
REMARK    8  A    between atoms: C_27  and  C_28
REMARK                            x       y       z     vdW  Elec       q    Type
REMARK                         _______ _______ _______ _____ _____    ______ ____
ROOT
ATOM      1  C   UNL     1       1.064   8.842  20.784  0.00  0.00    +0.000 A 
ATOM      2  C   UNL     1       0.872   8.990  22.156  0.00  0.00    +0.000 A 
ATOM      3  C   UNL     1       0.037   9.987  22.654  0.00  0.00    +0.000 A 
ATOM      4  C   UNL     1      -0.630  10.837  21.776  0.00  0.00    +0.000 A 
ATOM      5  C   UNL     1      -0.493  10.719  20.378  0.00  0.00    +0.000 A 
ATOM      6  C   UNL     1       0.403   9.724  19.915  0.00  0.00    +0.000 A 
ENDROOT
BRANCH   1   9
ATOM      7  C   UNL     1       2.279   7.756  18.902  0.00  0.00    +0.000 C 
ATOM      8  O   UNL     1       2.012   8.577  18.026  0.00  0.00    +0.000 OA
ATOM      9  N   UNL     1       1.895   7.845  20.223  0.00  0.00    +0.000 N 
ATOM     10  H   UNL     1       2.299   7.164  20.873  0.00  0.00    +0.000 HD
BRANCH   7  14
ATOM     11  C   UNL     1       5.681   5.689  15.940  0.00  0.00    +0.000 C 
ATOM     12  C   UNL     1       4.746   5.528  17.112  0.00  0.00    +0.000 A 
ATOM     13  C   UNL     1       3.934   6.717  17.497  0.00  0.00    +0.000 A 
ATOM     14  C   UNL     1       3.087   6.558  18.532  0.00  0.00    +0.000 A 
ATOM     15  N   UNL     1       3.022   5.327  19.178  0.00  0.00    +0.000 N 
ATOM     16  N   UNL     1       2.239   4.965  20.236  0.00  0.00    +0.000 NA
ATOM     17  C   UNL     1       2.589   3.702  20.505  0.00  0.00    +0.000 A 
ATOM     18  C   UNL     1       1.963   2.968  21.632  0.00  0.00    +0.000 C 
ATOM     19  C   UNL     1       3.575   3.225  19.620  0.00  0.00    +0.000 A 
ATOM     20  C   UNL     1       3.837   4.268  18.766  0.00  0.00    +0.000 A 
ATOM     21  N   UNL     1       4.700   4.374  17.712  0.00  0.00    +0.000 NA
ENDBRANCH   7  14
ENDBRANCH   1   9
BRANCH   5  22
ATOM     22  C   UNL     1      -1.351  11.639  19.380  0.00  0.00    +0.000 C 
ATOM     23  C   UNL     1      -2.457  10.966  18.521  0.00  0.00    +0.000 C 
ATOM     24  O   UNL     1      -3.419  11.992  18.896  0.00  0.00    +0.000 OA
ATOM     25  C   UNL     1      -2.575  12.367  20.011  0.00  0.00    +0.000 C 
BRANCH  22  26
ATOM     26  C   UNL     1      -0.470  12.639  18.613  0.00  0.00    +0.000 C 
BRANCH  26  27
ATOM     27  C   UNL     1       0.631  13.222  19.430  0.00  0.00    +0.000 A 
ATOM     28  N   UNL     1       0.495  13.981  20.500  0.00  0.00    +0.000 NA
ATOM     29  N   UNL     1       1.749  14.284  20.975  0.00  0.00    +0.000 NA
ATOM     30  C   UNL     1       2.623  13.701  20.190  0.00  0.00    +0.000 A 
ATOM     31  N   UNL     1       1.970  13.028  19.205  0.00  0.00    +0.000 N 
ATOM     32  C   UNL     1       2.580  12.254  18.158  0.00  0.00    +0.000 C 
ENDBRANCH  26  27
ENDBRANCH  22  26
ENDBRANCH   5  22
TORSDOF 5
ENDMDL
MODEL 6
REMARK VINA RESULT:      -9.2      3.101      9.106
REMARK  Name = 
REMARK  8 active torsions:
REMARK  status: ('A' for Active; 'I' for Inactive)
REMARK    1  A    between atoms: C_1  and  C_2
REMARK    2  A    between atoms: C_4  and  C_5
REMARK    3  A    between atoms: N_7  and  C_8
REMARK    4  A    between atoms: C_12  and  C_13
REMARK    5  A    between atoms: C_13  and  C_14
REMARK    6  A    between atoms: C_14  and  C_15
REMARK    7  A    between atoms: N_19  and  C_20
REMARK    8  A    between atoms: C_27  and  C_28
REMARK                            x       y       z     vdW  Elec       q    Type
REMARK                         _______ _______ _______ _____ _____    ______ ____
ROOT
ATOM      1  C   UNL     1       1.247   8.630  20.463  0.00  0.00    +0.000 A 
ATOM      2  C   UNL     1       1.041   8.577  21.840  0.00  0.00    +0.000 A 
ATOM      3  C   UNL     1       0.250   9.528  22.478  0.00  0.00    +0.000 A 
ATOM      4  C   UNL     1      -0.359  10.535  21.735  0.00  0.00    +0.000 A 
ATOM      5  C   UNL     1      -0.207  10.625  20.337  0.00  0.00    +0.000 A 
ATOM      6  C   UNL     1       0.644   9.667  19.734  0.00  0.00    +0.000 A 
ENDROOT
BRANCH   1   9
ATOM      7  C   UNL     1       2.434   7.780  18.446  0.00  0.00    +0.000 C 
ATOM      8  O   UNL     1       2.220   8.738  17.703  0.00  0.00    +0.000 OA
ATOM      9  N   UNL     1       2.035   7.687  19.763  0.00  0.00    +0.000 N 
ATOM     10  H   UNL     1       2.395   6.897  20.304  0.00  0.00    +0.000 HD
BRANCH   7  14
ATOM     11  C   UNL     1       6.442   6.045  16.093  0.00  0.00    +0.000 C 
ATOM     12  C   UNL     1       5.130   5.737  16.768  0.00  0.00    +0.000 A 
ATOM     13  C   UNL     1       4.366   6.893  17.319  0.00  0.00    +0.000 A 
ATOM     14  C   UNL     1       3.186   6.612  17.903  0.00  0.00    +0.000 A 
ATOM     15  N   UNL     1       2.755   5.291  17.970  0.00  0.00    +0.000 N 
ATOM     16  N   UNL     1       1.603   4.801  18.514  0.00  0.00    +0.000 NA
ATOM     17  C   UNL     1       1.690   3.475  18.366  0.00  0.00    +0.000 A 
ATOM     18  C   UNL     1       0.618   2.584  18.874  0.00  0.00    +0.000 C 
ATOM     19  C   UNL     1       2.875   3.092  17.708  0.00  0.00    +0.000 A 
ATOM     20  C   UNL     1       3.545   4.262  17.447  0.00  0.00    +0.000 A 
ATOM     21  N   UNL     1       4.741   4.497  16.831  0.00  0.00    +0.000 NA
ENDBRANCH   7  14
ENDBRANCH   1   9
BRANCH   5  22
ATOM     22  C   UNL     1      -1.002  11.730  19.485  0.00  0.00    +0.000 C 
ATOM     23  C   UNL     1      -0.875  13.220  19.904  0.00  0.00    +0.000 C 
ATOM     24  O   UNL     1      -0.603  13.619  18.532  0.00  0.00    +0.000 OA
ATOM     25  C   UNL     1      -0.282  12.246  18.203  0.00  0.00    +0.000 C 
BRANCH  22  26
ATOM     26  C   UNL     1      -2.435  11.283  19.150  0.00  0.00    +0.000 C 
BRANCH  26  27
ATOM     27  C   UNL     1      -2.603  10.795  17.752  0.00  0.00    +0.000 A 
ATOM     28  N   UNL     1      -1.787   9.991  17.100  0.00  0.00    +0.000 NA
ATOM     29  N   UNL     1      -2.315   9.762  15.852  0.00  0.00    +0.000 NA
ATOM     30  C   UNL     1      -3.443  10.426  15.769  0.00  0.00    +0.000 A 
ATOM     31  N   UNL     1      -3.663  11.092  16.934  0.00  0.00    +0.000 N 
ATOM     32  C   UNL     1      -4.798  11.921  17.236  0.00  0.00    +0.000 C 
ENDBRANCH  26  27
ENDBRANCH  22  26
ENDBRANCH   5  22
TORSDOF 5
ENDMDL
MODEL 7
REMARK VINA RESULT:      -9.2      2.917      8.900
REMARK  Name = 
REMARK  8 active torsions:
REMARK  status: ('A' for Active; 'I' for Inactive)
REMARK    1  A    between atoms: C_1  and  C_2
REMARK    2  A    between atoms: C_4  and  C_5
REMARK    3  A    between atoms: N_7  and  C_8
REMARK    4  A    between atoms: C_12  and  C_13
REMARK    5  A    between atoms: C_13  and  C_14
REMARK    6  A    between atoms: C_14  and  C_15
REMARK    7  A    between atoms: N_19  and  C_20
REMARK    8  A    between atoms: C_27  and  C_28
REMARK                            x       y       z     vdW  Elec       q    Type
REMARK                         _______ _______ _______ _____ _____    ______ ____
ROOT
ATOM      1  C   UNL     1       0.368   9.005  21.398  0.00  0.00    +0.000 A 
ATOM      2  C   UNL     1       0.086   9.386  22.708  0.00  0.00    +0.000 A 
ATOM      3  C   UNL     1      -0.602  10.567  22.972  0.00  0.00    +0.000 A 
ATOM      4  C   UNL     1      -1.032  11.370  21.920  0.00  0.00    +0.000 A 
ATOM      5  C   UNL     1      -0.796  11.023  20.574  0.00  0.00    +0.000 A 
ATOM      6  C   UNL     1      -0.051   9.840  20.350  0.00  0.00    +0.000 A 
ENDROOT
BRANCH   1   9
ATOM      7  C   UNL     1       1.844   7.610  19.957  0.00  0.00    +0.000 C 
ATOM      8  O   UNL     1       2.119   8.463  19.114  0.00  0.00    +0.000 OA
ATOM      9  N   UNL     1       1.058   7.814  21.071  0.00  0.00    +0.000 N 
ATOM     10  H   UNL     1       1.022   7.058  21.761  0.00  0.00    +0.000 HD
BRANCH   7  14
ATOM     11  C   UNL     1       2.093   2.916  21.544  0.00  0.00    +0.000 C 
ATOM     12  C   UNL     1       2.529   3.941  20.528  0.00  0.00    +0.000 A 
ATOM     13  C   UNL     1       1.985   5.321  20.684  0.00  0.00    +0.000 A 
ATOM     14  C   UNL     1       2.395   6.235  19.784  0.00  0.00    +0.000 A 
ATOM     15  N   UNL     1       3.274   5.853  18.775  0.00  0.00    +0.000 N 
ATOM     16  N   UNL     1       3.802   6.619  17.776  0.00  0.00    +0.000 NA
ATOM     17  C   UNL     1       4.541   5.772  17.050  0.00  0.00    +0.000 A 
ATOM     18  C   UNL     1       5.258   6.242  15.839  0.00  0.00    +0.000 C 
ATOM     19  C   UNL     1       4.523   4.466  17.576  0.00  0.00    +0.000 A 
ATOM     20  C   UNL     1       3.719   4.530  18.688  0.00  0.00    +0.000 A 
ATOM     21  N   UNL     1       3.345   3.570  19.585  0.00  0.00    +0.000 NA
ENDBRANCH   7  14
ENDBRANCH   1   9
BRANCH   5  22
ATOM     22  C   UNL     1      -1.391  11.908  19.373  0.00  0.00    +0.000 C 
ATOM     23  C   UNL     1      -1.531  11.253  17.971  0.00  0.00    +0.000 C 
ATOM     24  O   UNL     1      -2.897  11.738  17.844  0.00  0.00    +0.000 OA
ATOM     25  C   UNL     1      -2.945  11.962  19.273  0.00  0.00    +0.000 C 
BRANCH  22  26
ATOM     26  C   UNL     1      -0.804  13.330  19.355  0.00  0.00    +0.000 C 
BRANCH  26  27
ATOM     27  C   UNL     1       0.685  13.366  19.303  0.00  0.00    +0.000 A 
ATOM     28  N   UNL     1       1.443  12.983  18.295  0.00  0.00    +0.000 NA
ATOM     29  N   UNL     1       2.756  13.204  18.636  0.00  0.00    +0.000 NA
ATOM     30  C   UNL     1       2.773  13.722  19.841  0.00  0.00    +0.000 A 
ATOM     31  N   UNL     1       1.498  13.838  20.302  0.00  0.00    +0.000 N 
ATOM     32  C   UNL     1       1.102  14.372  21.576  0.00  0.00    +0.000 C 
ENDBRANCH  26  27
ENDBRANCH  22  26
ENDBRANCH   5  22
TORSDOF 5
ENDMDL
MODEL 8
REMARK VINA RESULT:      -9.2      2.407      9.438
REMARK  Name = 
REMARK  8 active torsions:
REMARK  status: ('A' for Active; 'I' for Inactive)
REMARK    1  A    between atoms: C_1  and  C_2
REMARK    2  A    between atoms: C_4  and  C_5
REMARK    3  A    between atoms: N_7  and  C_8
REMARK    4  A    between atoms: C_12  and  C_13
REMARK    5  A    between atoms: C_13  and  C_14
REMARK    6  A    between atoms: C_14  and  C_15
REMARK    7  A    between atoms: N_19  and  C_20
REMARK    8  A    between atoms: C_27  and  C_28
REMARK                            x       y       z     vdW  Elec       q    Type
REMARK                         _______ _______ _______ _____ _____    ______ ____
ROOT
ATOM      1  C   UNL     1       1.432   8.367  20.299  0.00  0.00    +0.000 A 
ATOM      2  C   UNL     1       1.215   8.345  21.675  0.00  0.00    +0.000 A 
ATOM      3  C   UNL     1       0.444   9.328  22.289  0.00  0.00    +0.000 A 
ATOM      4  C   UNL     1      -0.133  10.337  21.523  0.00  0.00    +0.000 A 
ATOM      5  C   UNL     1       0.032  10.396  20.125  0.00  0.00    +0.000 A 
ATOM      6  C   UNL     1       0.863   9.406  19.546  0.00  0.00    +0.000 A 
ENDROOT
BRANCH   1   9
ATOM      7  C   UNL     1       2.708   7.500  18.344  0.00  0.00    +0.000 C 
ATOM      8  O   UNL     1       2.626   8.496  17.628  0.00  0.00    +0.000 OA
ATOM      9  N   UNL     1       2.201   7.392  19.622  0.00  0.00    +0.000 N 
ATOM     10  H   UNL     1       2.458   6.556  20.157  0.00  0.00    +0.000 HD
BRANCH   7  14
ATOM     11  C   UNL     1       6.640   5.580  16.005  0.00  0.00    +0.000 C 
ATOM     12  C   UNL     1       5.317   5.333  16.685  0.00  0.00    +0.000 A 
ATOM     13  C   UNL     1       4.602   6.524  17.225  0.00  0.00    +0.000 A 
ATOM     14  C   UNL     1       3.412   6.297  17.813  0.00  0.00    +0.000 A 
ATOM     15  N   UNL     1       2.928   4.995  17.894  0.00  0.00    +0.000 N 
ATOM     16  N   UNL     1       1.758   4.557  18.444  0.00  0.00    +0.000 NA
ATOM     17  C   UNL     1       1.792   3.227  18.309  0.00  0.00    +0.000 A 
ATOM     18  C   UNL     1       0.684   2.386  18.827  0.00  0.00    +0.000 C 
ATOM     19  C   UNL     1       2.959   2.790  17.653  0.00  0.00    +0.000 A 
ATOM     20  C   UNL     1       3.675   3.929  17.380  0.00  0.00    +0.000 A 
ATOM     21  N   UNL     1       4.879   4.110  16.760  0.00  0.00    +0.000 NA
ENDBRANCH   7  14
ENDBRANCH   1   9
BRANCH   5  22
ATOM     22  C   UNL     1      -0.727  11.506  19.246  0.00  0.00    +0.000 C 
ATOM     23  C   UNL     1      -1.747  11.030  18.175  0.00  0.00    +0.000 C 
ATOM     24  O   UNL     1      -2.740  11.982  18.648  0.00  0.00    +0.000 OA
ATOM     25  C   UNL     1      -2.006  12.123  19.888  0.00  0.00    +0.000 C 
BRANCH  22  26
ATOM     26  C   UNL     1       0.223  12.618  18.771  0.00  0.00    +0.000 C 
BRANCH  26  27
ATOM     27  C   UNL     1       0.896  13.350  19.880  0.00  0.00    +0.000 A 
ATOM     28  N   UNL     1       1.951  12.946  20.559  0.00  0.00    +0.000 NA
ATOM     29  N   UNL     1       2.274  13.920  21.474  0.00  0.00    +0.000 NA
ATOM     30  C   UNL     1       1.414  14.900  21.332  0.00  0.00    +0.000 A 
ATOM     31  N   UNL     1       0.529  14.586  20.348  0.00  0.00    +0.000 N 
ATOM     32  C   UNL     1      -0.557  15.410  19.890  0.00  0.00    +0.000 C 
ENDBRANCH  26  27
ENDBRANCH  22  26
ENDBRANCH   5  22
TORSDOF 5
ENDMDL
MODEL 9
REMARK VINA RESULT:      -9.2      2.010      2.478
REMARK  Name = 
REMARK  8 active torsions:
REMARK  status: ('A' for Active; 'I' for Inactive)
REMARK    1  A    between atoms: C_1  and  C_2
REMARK    2  A    between atoms: C_4  and  C_5
REMARK    3  A    between atoms: N_7  and  C_8
REMARK    4  A    between atoms: C_12  and  C_13
REMARK    5  A    between atoms: C_13  and  C_14
REMARK    6  A    between atoms: C_14  and  C_15
REMARK    7  A    between atoms: N_19  and  C_20
REMARK    8  A    between atoms: C_27  and  C_28
REMARK                            x       y       z     vdW  Elec       q    Type
REMARK                         _______ _______ _______ _____ _____    ______ ____
ROOT
ATOM      1  C   UNL     1       2.510   7.067  18.031  0.00  0.00    +0.000 A 
ATOM      2  C   UNL     1       1.793   5.873  18.073  0.00  0.00    +0.000 A 
ATOM      3  C   UNL     1       2.434   4.652  17.884  0.00  0.00    +0.000 A 
ATOM      4  C   UNL     1       3.808   4.615  17.666  0.00  0.00    +0.000 A 
ATOM      5  C   UNL     1       4.589   5.789  17.637  0.00  0.00    +0.000 A 
ATOM      6  C   UNL     1       3.891   7.012  17.785  0.00  0.00    +0.000 A 
ENDROOT
BRANCH   1   9
ATOM      7  C   UNL     1       1.456   8.845  19.420  0.00  0.00    +0.000 C 
ATOM      8  O   UNL     1       1.569   8.298  20.515  0.00  0.00    +0.000 OA
ATOM      9  N   UNL     1       1.912   8.334  18.222  0.00  0.00    +0.000 N 
ATOM     10  H   UNL     1       1.875   8.953  17.407  0.00  0.00    +0.000 HD
BRANCH   7  14
ATOM     11  C   UNL     1       1.163  13.538  21.001  0.00  0.00    +0.000 C 
ATOM     12  C   UNL     1       0.617  12.463  20.096  0.00  0.00    +0.000 A 
ATOM     13  C   UNL     1       1.285  11.131  20.148  0.00  0.00    +0.000 A 
ATOM     14  C   UNL     1       0.778  10.171  19.352  0.00  0.00    +0.000 A 
ATOM     15  N   UNL     1      -0.309  10.466  18.534  0.00  0.00    +0.000 N 
ATOM     16  N   UNL     1      -0.963   9.643  17.664  0.00  0.00    +0.000 NA
ATOM     17  C   UNL     1      -1.893  10.417  17.093  0.00  0.00    +0.000 A 
ATOM     18  C   UNL     1      -2.795   9.870  16.050  0.00  0.00    +0.000 C 
ATOM     19  C   UNL     1      -1.872  11.731  17.599  0.00  0.00    +0.000 A 
ATOM     20  C   UNL     1      -0.863  11.750  18.530  0.00  0.00    +0.000 A 
ATOM     21  N   UNL     1      -0.395  12.753  19.331  0.00  0.00    +0.000 NA
ENDBRANCH   7  14
ENDBRANCH   1   9
BRANCH   5  22
ATOM     22  C   UNL     1       6.187   5.719  17.490  0.00  0.00    +0.000 C 
ATOM     23  C   UNL     1       6.959   7.034  17.191  0.00  0.00    +0.000 C 
ATOM     24  O   UNL     1       7.917   6.751  18.249  0.00  0.00    +0.000 OA
ATOM     25  C   UNL     1       6.994   5.792  18.820  0.00  0.00    +0.000 C 
BRANCH  22  26
ATOM     26  C   UNL     1       6.640   4.511  16.654  0.00  0.00    +0.000 C 
BRANCH  26  27
ATOM     27  C   UNL     1       7.046   4.858  15.263  0.00  0.00    +0.000 A 
ATOM     28  N   UNL     1       8.098   5.569  14.909  0.00  0.00    +0.000 NA
ATOM     29  N   UNL     1       8.130   5.635  13.536  0.00  0.00    +0.000 NA
ATOM     30  C   UNL     1       7.101   4.962  13.081  0.00  0.00    +0.000 A 
ATOM     31  N   UNL     1       6.390   4.460  14.126  0.00  0.00    +0.000 N 
ATOM     32  C   UNL     1       5.202   3.656  14.036  0.00  0.00    +0.000 C 
ENDBRANCH  26  27
ENDBRANCH  22  26
ENDBRANCH   5  22
TORSDOF 5
ENDMDL
