MODEL 1
REMARK VINA RESULT:     -10.4      0.000      0.000
REMARK  Name = 
REMARK  8 active torsions:
REMARK  status: ('A' for Active; 'I' for Inactive)
REMARK    1  A    between atoms: C_1  and  N_2
REMARK    2  A    between atoms: C_6  and  O_7
REMARK    3  A    between atoms: O_7  and  C_8
REMARK    4  A    between atoms: C_8  and  C_9
REMARK    5  A    between atoms: C_13  and  N_14
REMARK    6  A    between atoms: C_19  and  C_20
REMARK    7  A    between atoms: C_20  and  N_21
REMARK    8  A    between atoms: C_29  and  C_30
REMARK                            x       y       z     vdW  Elec       q    Type
REMARK                         _______ _______ _______ _____ _____    ______ ____
ROOT
ATOM      1  N   UNL     1       1.464   8.166  20.154  0.00  0.00    +0.000 N 
ATOM      2  C   UNL     1       1.541   6.822  20.672  0.00  0.00    +0.000 C 
ATOM      3  C   UNL     1       2.266   6.056  19.639  0.00  0.00    +0.000 A 
ATOM      4  C   UNL     1       2.714   6.907  18.631  0.00  0.00    +0.000 A 
ATOM      5  C   UNL     1       3.499   6.411  17.588  0.00  0.00    +0.000 A 
ATOM      6  C   UNL     1       3.801   5.027  17.580  0.00  0.00    +0.000 A 
ATOM      7  C   UNL     1       3.289   4.193  18.608  0.00  0.00    +0.000 A 
ATOM      8  C   UNL     1       2.488   4.688  19.636  0.00  0.00    +0.000 A 
ATOM      9  C   UNL     1       2.155   8.269  18.931  0.00  0.00    +0.000 C 
ATOM     10  O   UNL     1       2.298   9.238  18.198  0.00  0.00    +0.000 OA
ENDROOT
BRANCH   1  15
ATOM     11  C   UNL     1      -0.880  11.091  20.579  0.00  0.00    +0.000 A 
ATOM     12  C   UNL     1      -0.920  11.165  21.976  0.00  0.00    +0.000 A 
ATOM     13  C   UNL     1      -0.242  10.225  22.780  0.00  0.00    +0.000 A 
ATOM     14  C   UNL     1       0.518   9.186  22.218  0.00  0.00    +0.000 A 
ATOM     15  C   UNL     1       0.604   9.076  20.839  0.00  0.00    +0.000 A 
ATOM     16  C   UNL     1      -0.144  10.004  20.066  0.00  0.00    +0.000 A 
BRANCH  11  17
ATOM     17  C   UNL     1      -1.602  12.165  19.545  0.00  0.00    +0.000 C 
ATOM     18  C   UNL     1      -0.619  12.749  18.465  0.00  0.00    +0.000 C 
ATOM     19  O   UNL     1      -0.682  14.075  19.028  0.00  0.00    +0.000 OA
ATOM     20  C   UNL     1      -1.616  13.647  20.044  0.00  0.00    +0.000 C 
BRANCH  17  21
ATOM     21  O   UNL     1      -2.846  11.565  19.055  0.00  0.00    +0.000 OA
BRANCH  21  27
ATOM     22  C   UNL     1      -5.185  12.111  17.286  0.00  0.00    +0.000 C 
ATOM     23  N   UNL     1      -3.965  11.424  16.966  0.00  0.00    +0.000 N 
ATOM     24  C   UNL     1      -3.635  10.899  15.753  0.00  0.00    +0.000 A 
ATOM     25  N   UNL     1      -2.473  10.297  15.840  0.00  0.00    +0.000 NA
ATOM     26  N   UNL     1      -2.026  10.447  17.132  0.00  0.00    +0.000 NA
ATOM     27  C   UNL     1      -2.913  11.151  17.796  0.00  0.00    +0.000 A 
ENDBRANCH  21  27
ENDBRANCH  17  21
ENDBRANCH  11  17
ENDBRANCH   1  15
BRANCH   8  28
ATOM     28  C   UNL     1       1.875   3.755  20.647  0.00  0.00    +0.000 C 
ATOM     29  F   UNL     1       2.258   4.005  21.931  0.00  0.00    +0.000 F 
ATOM     30  F   UNL     1       0.517   3.820  20.652  0.00  0.00    +0.000 F 
ATOM     31  F   UNL     1       2.199   2.454  20.419  0.00  0.00    +0.000 F 
ENDBRANCH   8  28
BRANCH   6  32
ATOM     32  C   UNL     1       4.679   4.352  16.522  0.00  0.00    +0.000 C 
BRANCH  32  33
ATOM     33  N   UNL     1       6.066   4.215  16.994  0.00  0.00    +0.000 NA
ATOM     34  C   UNL     1       7.041   5.056  16.301  0.00  0.00    +0.000 C 
ATOM     35  C   UNL     1       7.099   6.494  16.810  0.00  0.00    +0.000 C 
ATOM     36  C   UNL     1       7.219   6.572  18.324  0.00  0.00    +0.000 C 
ATOM     37  F   UNL     1       8.493   6.231  18.673  0.00  0.00    +0.000 F 
ATOM     38  C   UNL     1       6.259   5.643  19.051  0.00  0.00    +0.000 C 
ATOM     39  C   UNL     1       6.259   4.244  18.443  0.00  0.00    +0.000 C 
ENDBRANCH  32  33
ENDBRANCH   6  32
TORSDOF 7
ENDMDL
MODEL 2
REMARK VINA RESULT:     -10.4      1.248      1.723
REMARK  Name = 
REMARK  8 active torsions:
REMARK  status: ('A' for Active; 'I' for Inactive)
REMARK    1  A    between atoms: C_1  and  N_2
REMARK    2  A    between atoms: C_6  and  O_7
REMARK    3  A    between atoms: O_7  and  C_8
REMARK    4  A    between atoms: C_8  and  C_9
REMARK    5  A    between atoms: C_13  and  N_14
REMARK    6  A    between atoms: C_19  and  C_20
REMARK    7  A    between atoms: C_20  and  N_21
REMARK    8  A    between atoms: C_29  and  C_30
REMARK                            x       y       z     vdW  Elec       q    Type
REMARK                         _______ _______ _______ _____ _____    ______ ____
ROOT
ATOM      1  N   UNL     1       1.442   8.137  20.207  0.00  0.00    +0.000 N 
ATOM      2  C   UNL     1       1.561   6.818  20.778  0.00  0.00    +0.000 C 
ATOM      3  C   UNL     1       2.282   6.025  19.762  0.00  0.00    +0.000 A 
ATOM      4  C   UNL     1       2.688   6.844  18.710  0.00  0.00    +0.000 A 
ATOM      5  C   UNL     1       3.462   6.323  17.671  0.00  0.00    +0.000 A 
ATOM      6  C   UNL     1       3.796   4.947  17.713  0.00  0.00    +0.000 A 
ATOM      7  C   UNL     1       3.326   4.145  18.786  0.00  0.00    +0.000 A 
ATOM      8  C   UNL     1       2.536   4.664  19.810  0.00  0.00    +0.000 A 
ATOM      9  C   UNL     1       2.103   8.205  18.966  0.00  0.00    +0.000 C 
ATOM     10  O   UNL     1       2.208   9.145  18.191  0.00  0.00    +0.000 OA
ENDROOT
BRANCH   1  15
ATOM     11  C   UNL     1      -0.880  11.086  20.582  0.00  0.00    +0.000 A 
ATOM     12  C   UNL     1      -0.953  11.158  21.977  0.00  0.00    +0.000 A 
ATOM     13  C   UNL     1      -0.305  10.209  22.795  0.00  0.00    +0.000 A 
ATOM     14  C   UNL     1       0.457   9.164  22.250  0.00  0.00    +0.000 A 
ATOM     15  C   UNL     1       0.575   9.055  20.874  0.00  0.00    +0.000 A 
ATOM     16  C   UNL     1      -0.144   9.993  20.084  0.00  0.00    +0.000 A 
BRANCH  11  17
ATOM     17  C   UNL     1      -1.567  12.170  19.533  0.00  0.00    +0.000 C 
ATOM     18  C   UNL     1      -0.564  12.709  18.448  0.00  0.00    +0.000 C 
ATOM     19  O   UNL     1      -0.585  14.043  18.994  0.00  0.00    +0.000 OA
ATOM     20  C   UNL     1      -1.535  13.657  20.014  0.00  0.00    +0.000 C 
BRANCH  17  21
ATOM     21  O   UNL     1      -2.828  11.603  19.047  0.00  0.00    +0.000 OA
BRANCH  21  27
ATOM     22  C   UNL     1      -5.180  12.089  17.279  0.00  0.00    +0.000 C 
ATOM     23  N   UNL     1      -3.958  11.402  16.969  0.00  0.00    +0.000 N 
ATOM     24  C   UNL     1      -3.632  10.849  15.768  0.00  0.00    +0.000 A 
ATOM     25  N   UNL     1      -2.465  10.256  15.863  0.00  0.00    +0.000 NA
ATOM     26  N   UNL     1      -2.012  10.442  17.148  0.00  0.00    +0.000 NA
ATOM     27  C   UNL     1      -2.900  11.157  17.800  0.00  0.00    +0.000 A 
ENDBRANCH  21  27
ENDBRANCH  17  21
ENDBRANCH  11  17
ENDBRANCH   1  15
BRANCH   8  28
ATOM     28  C   UNL     1       1.966   3.761  20.872  0.00  0.00    +0.000 C 
ATOM     29  F   UNL     1       2.356   4.083  22.138  0.00  0.00    +0.000 F 
ATOM     30  F   UNL     1       0.607   3.782  20.893  0.00  0.00    +0.000 F 
ATOM     31  F   UNL     1       2.330   2.462  20.701  0.00  0.00    +0.000 F 
ENDBRANCH   8  28
BRANCH   6  32
ATOM     32  C   UNL     1       4.667   4.248  16.665  0.00  0.00    +0.000 C 
BRANCH  32  33
ATOM     33  N   UNL     1       5.081   5.187  15.610  0.00  0.00    +0.000 NA
ATOM     34  C   UNL     1       6.368   5.844  15.838  0.00  0.00    +0.000 C 
ATOM     35  C   UNL     1       7.579   5.000  15.445  0.00  0.00    +0.000 C 
ATOM     36  C   UNL     1       7.451   4.414  14.048  0.00  0.00    +0.000 C 
ATOM     37  F   UNL     1       7.656   5.412  13.141  0.00  0.00    +0.000 F 
ATOM     38  C   UNL     1       6.088   3.795  13.778  0.00  0.00    +0.000 C 
ATOM     39  C   UNL     1       4.955   4.707  14.235  0.00  0.00    +0.000 C 
ENDBRANCH  32  33
ENDBRANCH   6  32
TORSDOF 7
ENDMDL
MODEL 3
REMARK VINA RESULT:     -10.3      3.661      9.305
REMARK  Name = 
REMARK  8 active torsions:
REMARK  status: ('A' for Active; 'I' for Inactive)
REMARK    1  A    between atoms: C_1  and  N_2
REMARK    2  A    between atoms: C_6  and  O_7
REMARK    3  A    between atoms: O_7  and  C_8
REMARK    4  A    between atoms: C_8  and  C_9
REMARK    5  A    between atoms: C_13  and  N_14
REMARK    6  A    between atoms: C_19  and  C_20
REMARK    7  A    between atoms: C_20  and  N_21
REMARK    8  A    between atoms: C_29  and  C_30
REMARK                            x       y       z     vdW  Elec       q    Type
REMARK                         _______ _______ _______ _____ _____    ______ ____
ROOT
ATOM      1  N   UNL     1       2.208   7.433  19.161  0.00  0.00    +0.000 N 
ATOM      2  C   UNL     1       1.462   7.756  20.353  0.00  0.00    +0.000 C 
ATOM      3  C   UNL     1       0.991   9.139  20.145  0.00  0.00    +0.000 A 
ATOM      4  C   UNL     1       1.315   9.572  18.860  0.00  0.00    +0.000 A 
ATOM      5  C   UNL     1       0.893  10.824  18.412  0.00  0.00    +0.000 A 
ATOM      6  C   UNL     1       0.152  11.638  19.305  0.00  0.00    +0.000 A 
ATOM      7  C   UNL     1      -0.120  11.170  20.616  0.00  0.00    +0.000 A 
ATOM      8  C   UNL     1       0.322   9.927  21.068  0.00  0.00    +0.000 A 
ATOM      9  C   UNL     1       2.149   8.490  18.233  0.00  0.00    +0.000 C 
ATOM     10  O   UNL     1       2.662   8.583  17.127  0.00  0.00    +0.000 OA
ENDROOT
BRANCH   1  15
ATOM     11  C   UNL     1       4.693   4.866  17.949  0.00  0.00    +0.000 A 
ATOM     12  C   UNL     1       4.425   3.829  18.850  0.00  0.00    +0.000 A 
ATOM     13  C   UNL     1       3.487   3.986  19.892  0.00  0.00    +0.000 A 
ATOM     14  C   UNL     1       2.767   5.180  20.062  0.00  0.00    +0.000 A 
ATOM     15  C   UNL     1       2.983   6.234  19.188  0.00  0.00    +0.000 A 
ATOM     16  C   UNL     1       3.981   6.057  18.192  0.00  0.00    +0.000 A 
BRANCH  11  17
ATOM     17  C   UNL     1       5.740   4.771  16.669  0.00  0.00    +0.000 C 
ATOM     18  C   UNL     1       5.286   5.624  15.427  0.00  0.00    +0.000 C 
ATOM     19  O   UNL     1       5.046   4.451  14.625  0.00  0.00    +0.000 OA
ATOM     20  C   UNL     1       5.477   3.578  15.694  0.00  0.00    +0.000 C 
BRANCH  17  21
ATOM     21  O   UNL     1       7.099   4.999  17.170  0.00  0.00    +0.000 OA
BRANCH  21  27
ATOM     22  C   UNL     1       8.108   5.709  19.885  0.00  0.00    +0.000 C 
ATOM     23  N   UNL     1       7.963   6.559  18.736  0.00  0.00    +0.000 N 
ATOM     24  C   UNL     1       8.290   7.879  18.670  0.00  0.00    +0.000 A 
ATOM     25  N   UNL     1       7.972   8.349  17.486  0.00  0.00    +0.000 NA
ATOM     26  N   UNL     1       7.443   7.309  16.759  0.00  0.00    +0.000 NA
ATOM     27  C   UNL     1       7.468   6.228  17.505  0.00  0.00    +0.000 A 
ENDBRANCH  21  27
ENDBRANCH  17  21
ENDBRANCH  11  17
ENDBRANCH   1  15
BRANCH   8  28
ATOM     28  C   UNL     1       0.108   9.511  22.499  0.00  0.00    +0.000 C 
ATOM     29  F   UNL     1       1.255   9.163  23.150  0.00  0.00    +0.000 F 
ATOM     30  F   UNL     1      -0.449  10.500  23.247  0.00  0.00    +0.000 F 
ATOM     31  F   UNL     1      -0.713   8.433  22.611  0.00  0.00    +0.000 F 
ENDBRANCH   8  28
BRANCH   6  32
ATOM     32  C   UNL     1      -0.407  13.017  18.939  0.00  0.00    +0.000 C 
BRANCH  32  33
ATOM     33  N   UNL     1       0.109  14.054  19.846  0.00  0.00    +0.000 NA
ATOM     34  C   UNL     1       1.552  14.281  19.770  0.00  0.00    +0.000 C 
ATOM     35  C   UNL     1       1.982  15.191  18.621  0.00  0.00    +0.000 C 
ATOM     36  C   UNL     1       1.175  16.479  18.566  0.00  0.00    +0.000 C 
ATOM     37  F   UNL     1       1.595  17.294  19.576  0.00  0.00    +0.000 F 
ATOM     38  C   UNL     1      -0.321  16.258  18.721  0.00  0.00    +0.000 C 
ATOM     39  C   UNL     1      -0.635  15.313  19.875  0.00  0.00    +0.000 C 
ENDBRANCH  32  33
ENDBRANCH   6  32
TORSDOF 7
ENDMDL
MODEL 4
REMARK VINA RESULT:     -10.2      3.485      9.147
REMARK  Name = 
REMARK  8 active torsions:
REMARK  status: ('A' for Active; 'I' for Inactive)
REMARK    1  A    between atoms: C_1  and  N_2
REMARK    2  A    between atoms: C_6  and  O_7
REMARK    3  A    between atoms: O_7  and  C_8
REMARK    4  A    between atoms: C_8  and  C_9
REMARK    5  A    between atoms: C_13  and  N_14
REMARK    6  A    between atoms: C_19  and  C_20
REMARK    7  A    between atoms: C_20  and  N_21
REMARK    8  A    between atoms: C_29  and  C_30
REMARK                            x       y       z     vdW  Elec       q    Type
REMARK                         _______ _______ _______ _____ _____    ______ ____
ROOT
ATOM      1  N   UNL     1       2.271   7.352  19.397  0.00  0.00    +0.000 N 
ATOM      2  C   UNL     1       1.488   7.706  20.557  0.00  0.00    +0.000 C 
ATOM      3  C   UNL     1       0.955   9.051  20.261  0.00  0.00    +0.000 A 
ATOM      4  C   UNL     1       1.282   9.425  18.959  0.00  0.00    +0.000 A 
ATOM      5  C   UNL     1       0.809  10.628  18.433  0.00  0.00    +0.000 A 
ATOM      6  C   UNL     1       0.014  11.455  19.265  0.00  0.00    +0.000 A 
ATOM      7  C   UNL     1      -0.259  11.049  20.597  0.00  0.00    +0.000 A 
ATOM      8  C   UNL     1       0.233   9.857  21.127  0.00  0.00    +0.000 A 
ATOM      9  C   UNL     1       2.178   8.351  18.409  0.00  0.00    +0.000 C 
ATOM     10  O   UNL     1       2.707   8.406  17.308  0.00  0.00    +0.000 OA
ENDROOT
BRANCH   1  15
ATOM     11  C   UNL     1       5.329   5.203  18.890  0.00  0.00    +0.000 A 
ATOM     12  C   UNL     1       4.832   3.971  19.331  0.00  0.00    +0.000 A 
ATOM     13  C   UNL     1       3.529   3.852  19.857  0.00  0.00    +0.000 A 
ATOM     14  C   UNL     1       2.665   4.956  19.944  0.00  0.00    +0.000 A 
ATOM     15  C   UNL     1       3.101   6.196  19.506  0.00  0.00    +0.000 A 
ATOM     16  C   UNL     1       4.441   6.286  19.042  0.00  0.00    +0.000 A 
BRANCH  11  17
ATOM     17  C   UNL     1       6.824   5.444  18.218  0.00  0.00    +0.000 C 
ATOM     18  C   UNL     1       7.941   5.759  19.280  0.00  0.00    +0.000 C 
ATOM     19  O   UNL     1       8.104   7.111  18.806  0.00  0.00    +0.000 OA
ATOM     20  C   UNL     1       7.113   6.914  17.772  0.00  0.00    +0.000 C 
BRANCH  17  21
ATOM     21  O   UNL     1       7.089   4.348  17.282  0.00  0.00    +0.000 OA
BRANCH  21  27
ATOM     22  C   UNL     1       4.542   3.565  15.942  0.00  0.00    +0.000 C 
ATOM     23  N   UNL     1       5.690   4.210  15.369  0.00  0.00    +0.000 N 
ATOM     24  C   UNL     1       5.819   4.613  14.074  0.00  0.00    +0.000 A 
ATOM     25  N   UNL     1       7.019   5.112  13.891  0.00  0.00    +0.000 NA
ATOM     26  N   UNL     1       7.680   5.050  15.095  0.00  0.00    +0.000 NA
ATOM     27  C   UNL     1       6.865   4.534  15.987  0.00  0.00    +0.000 A 
ENDBRANCH  21  27
ENDBRANCH  17  21
ENDBRANCH  11  17
ENDBRANCH   1  15
BRANCH   8  28
ATOM     28  C   UNL     1       0.013   9.513  22.576  0.00  0.00    +0.000 C 
ATOM     29  F   UNL     1      -0.778   8.419  22.769  0.00  0.00    +0.000 F 
ATOM     30  F   UNL     1       1.176   9.241  23.225  0.00  0.00    +0.000 F 
ATOM     31  F   UNL     1      -0.588  10.520  23.265  0.00  0.00    +0.000 F 
ENDBRANCH   8  28
BRANCH   6  32
ATOM     32  C   UNL     1      -0.602  12.782  18.812  0.00  0.00    +0.000 C 
BRANCH  32  33
ATOM     33  N   UNL     1       0.414  13.845  18.753  0.00  0.00    +0.000 NA
ATOM     34  C   UNL     1      -0.115  15.196  18.575  0.00  0.00    +0.000 C 
ATOM     35  C   UNL     1      -0.604  15.851  19.865  0.00  0.00    +0.000 C 
ATOM     36  C   UNL     1       0.417  15.757  20.988  0.00  0.00    +0.000 C 
ATOM     37  F   UNL     1       1.421  16.644  20.734  0.00  0.00    +0.000 F 
ATOM     38  C   UNL     1       1.027  14.372  21.131  0.00  0.00    +0.000 C 
ATOM     39  C   UNL     1       1.452  13.801  19.782  0.00  0.00    +0.000 C 
ENDBRANCH  32  33
ENDBRANCH   6  32
TORSDOF 7
ENDMDL
MODEL 5
REMARK VINA RESULT:     -10.1      1.688      2.731
REMARK  Name = 
REMARK  8 active torsions:
REMARK  status: ('A' for Active; 'I' for Inactive)
REMARK    1  A    between atoms: C_1  and  N_2
REMARK    2  A    between atoms: C_6  and  O_7
REMARK    3  A    between atoms: O_7  and  C_8
REMARK    4  A    between atoms: C_8  and  C_9
REMARK    5  A    between atoms: C_13  and  N_14
REMARK    6  A    between atoms: C_19  and  C_20
REMARK    7  A    between atoms: C_20  and  N_21
REMARK    8  A    between atoms: C_29  and  C_30
REMARK                            x       y       z     vdW  Elec       q    Type
REMARK                         _______ _______ _______ _____ _____    ______ ____
ROOT
ATOM      1  N   UNL     1       1.437   8.227  20.159  0.00  0.00    +0.000 N 
ATOM      2  C   UNL     1       1.512   6.880  20.673  0.00  0.00    +0.000 C 
ATOM      3  C   UNL     1       2.239   6.117  19.638  0.00  0.00    +0.000 A 
ATOM      4  C   UNL     1       2.689   6.972  18.634  0.00  0.00    +0.000 A 
ATOM      5  C   UNL     1       3.475   6.480  17.591  0.00  0.00    +0.000 A 
ATOM      6  C   UNL     1       3.776   5.095  17.578  0.00  0.00    +0.000 A 
ATOM      7  C   UNL     1       3.263   4.258  18.602  0.00  0.00    +0.000 A 
ATOM      8  C   UNL     1       2.460   4.749  19.631  0.00  0.00    +0.000 A 
ATOM      9  C   UNL     1       2.129   8.334  18.937  0.00  0.00    +0.000 C 
ATOM     10  O   UNL     1       2.274   9.305  18.209  0.00  0.00    +0.000 OA
ENDROOT
BRANCH   1  15
ATOM     11  C   UNL     1      -0.892  11.162  20.595  0.00  0.00    +0.000 A 
ATOM     12  C   UNL     1      -0.946  11.220  21.992  0.00  0.00    +0.000 A 
ATOM     13  C   UNL     1      -0.282  10.267  22.792  0.00  0.00    +0.000 A 
ATOM     14  C   UNL     1       0.477   9.229  22.226  0.00  0.00    +0.000 A 
ATOM     15  C   UNL     1       0.576   9.135  20.847  0.00  0.00    +0.000 A 
ATOM     16  C   UNL     1      -0.158  10.076  20.077  0.00  0.00    +0.000 A 
BRANCH  11  17
ATOM     17  C   UNL     1      -1.597  12.253  19.566  0.00  0.00    +0.000 C 
ATOM     18  C   UNL     1      -3.157  12.359  19.743  0.00  0.00    +0.000 C 
ATOM     19  O   UNL     1      -3.410  11.785  18.445  0.00  0.00    +0.000 OA
ATOM     20  C   UNL     1      -1.995  11.674  18.170  0.00  0.00    +0.000 C 
BRANCH  17  21
ATOM     21  O   UNL     1      -0.835  13.503  19.631  0.00  0.00    +0.000 OA
BRANCH  21  27
ATOM     22  C   UNL     1       1.084  14.429  21.717  0.00  0.00    +0.000 C 
ATOM     23  N   UNL     1       1.372  13.859  20.430  0.00  0.00    +0.000 N 
ATOM     24  C   UNL     1       2.610  13.610  19.922  0.00  0.00    +0.000 A 
ATOM     25  N   UNL     1       2.495  13.140  18.703  0.00  0.00    +0.000 NA
ATOM     26  N   UNL     1       1.152  13.063  18.415  0.00  0.00    +0.000 NA
ATOM     27  C   UNL     1       0.481  13.469  19.469  0.00  0.00    +0.000 A 
ENDBRANCH  21  27
ENDBRANCH  17  21
ENDBRANCH  11  17
ENDBRANCH   1  15
BRANCH   8  28
ATOM     28  C   UNL     1       1.845   3.813  20.637  0.00  0.00    +0.000 C 
ATOM     29  F   UNL     1       2.243   4.044  21.921  0.00  0.00    +0.000 F 
ATOM     30  F   UNL     1       0.488   3.895  20.656  0.00  0.00    +0.000 F 
ATOM     31  F   UNL     1       2.150   2.512  20.392  0.00  0.00    +0.000 F 
ENDBRANCH   8  28
BRANCH   6  32
ATOM     32  C   UNL     1       4.655   4.423  16.519  0.00  0.00    +0.000 C 
BRANCH  32  33
ATOM     33  N   UNL     1       6.023   4.214  17.021  0.00  0.00    +0.000 NA
ATOM     34  C   UNL     1       7.055   5.002  16.350  0.00  0.00    +0.000 C 
ATOM     35  C   UNL     1       7.178   6.436  16.861  0.00  0.00    +0.000 C 
ATOM     36  C   UNL     1       7.268   6.508  18.377  0.00  0.00    +0.000 C 
ATOM     37  F   UNL     1       8.515   6.101  18.754  0.00  0.00    +0.000 F 
ATOM     38  C   UNL     1       6.246   5.632  19.082  0.00  0.00    +0.000 C 
ATOM     39  C   UNL     1       6.186   4.235  18.475  0.00  0.00    +0.000 C 
ENDBRANCH  32  33
ENDBRANCH   6  32
TORSDOF 7
ENDMDL
MODEL 6
REMARK VINA RESULT:     -10.0      1.917      2.746
REMARK  Name = 
REMARK  8 active torsions:
REMARK  status: ('A' for Active; 'I' for Inactive)
REMARK    1  A    between atoms: C_1  and  N_2
REMARK    2  A    between atoms: C_6  and  O_7
REMARK    3  A    between atoms: O_7  and  C_8
REMARK    4  A    between atoms: C_8  and  C_9
REMARK    5  A    between atoms: C_13  and  N_14
REMARK    6  A    between atoms: C_19  and  C_20
REMARK    7  A    between atoms: C_20  and  N_21
REMARK    8  A    between atoms: C_29  and  C_30
REMARK                            x       y       z     vdW  Elec       q    Type
REMARK                         _______ _______ _______ _____ _____    ______ ____
ROOT
ATOM      1  N   UNL     1       1.464   8.077  20.279  0.00  0.00    +0.000 N 
ATOM      2  C   UNL     1       1.549   6.723  20.770  0.00  0.00    +0.000 C 
ATOM      3  C   UNL     1       2.259   5.977  19.713  0.00  0.00    +0.000 A 
ATOM      4  C   UNL     1       2.693   6.848  18.715  0.00  0.00    +0.000 A 
ATOM      5  C   UNL     1       3.463   6.373  17.652  0.00  0.00    +0.000 A 
ATOM      6  C   UNL     1       3.765   4.989  17.612  0.00  0.00    +0.000 A 
ATOM      7  C   UNL     1       3.268   4.136  18.631  0.00  0.00    +0.000 A 
ATOM      8  C   UNL     1       2.481   4.610  19.680  0.00  0.00    +0.000 A 
ATOM      9  C   UNL     1       2.137   8.205  19.049  0.00  0.00    +0.000 C 
ATOM     10  O   UNL     1       2.270   9.187  18.333  0.00  0.00    +0.000 OA
ENDROOT
BRANCH   1  15
ATOM     11  C   UNL     1      -0.691  11.119  20.852  0.00  0.00    +0.000 A 
ATOM     12  C   UNL     1      -0.852  11.041  22.240  0.00  0.00    +0.000 A 
ATOM     13  C   UNL     1      -0.319   9.966  22.981  0.00  0.00    +0.000 A 
ATOM     14  C   UNL     1       0.412   8.937  22.365  0.00  0.00    +0.000 A 
ATOM     15  C   UNL     1       0.614   8.973  20.995  0.00  0.00    +0.000 A 
ATOM     16  C   UNL     1       0.007  10.040  20.277  0.00  0.00    +0.000 A 
BRANCH  11  17
ATOM     17  C   UNL     1      -1.238  12.357  19.896  0.00  0.00    +0.000 C 
ATOM     18  C   UNL     1      -2.801  12.363  19.716  0.00  0.00    +0.000 C 
ATOM     19  O   UNL     1      -2.707  12.038  18.314  0.00  0.00    +0.000 OA
ATOM     20  C   UNL     1      -1.262  12.041  18.365  0.00  0.00    +0.000 C 
BRANCH  17  21
ATOM     21  O   UNL     1      -0.619  13.603  20.359  0.00  0.00    +0.000 OA
BRANCH  21  27
ATOM     22  C   UNL     1      -0.342  16.040  18.663  0.00  0.00    +0.000 C 
ATOM     23  N   UNL     1       0.681  15.121  19.078  0.00  0.00    +0.000 N 
ATOM     24  C   UNL     1       2.007  15.210  18.780  0.00  0.00    +0.000 A 
ATOM     25  N   UNL     1       2.636  14.170  19.276  0.00  0.00    +0.000 NA
ATOM     26  N   UNL     1       1.703  13.396  19.927  0.00  0.00    +0.000 NA
ATOM     27  C   UNL     1       0.535  13.988  19.829  0.00  0.00    +0.000 A 
ENDBRANCH  21  27
ENDBRANCH  17  21
ENDBRANCH  11  17
ENDBRANCH   1  15
BRANCH   8  28
ATOM     28  C   UNL     1       1.883   3.657  20.681  0.00  0.00    +0.000 C 
ATOM     29  F   UNL     1       2.209   2.351  20.463  0.00  0.00    +0.000 F 
ATOM     30  F   UNL     1       2.282   3.926  21.952  0.00  0.00    +0.000 F 
ATOM     31  F   UNL     1       0.524   3.694  20.687  0.00  0.00    +0.000 F 
ENDBRANCH   8  28
BRANCH   6  32
ATOM     32  C   UNL     1       4.628   4.335  16.530  0.00  0.00    +0.000 C 
BRANCH  32  33
ATOM     33  N   UNL     1       6.024   4.203  16.973  0.00  0.00    +0.000 NA
ATOM     34  C   UNL     1       6.980   5.061  16.274  0.00  0.00    +0.000 C 
ATOM     35  C   UNL     1       7.036   6.493  16.800  0.00  0.00    +0.000 C 
ATOM     36  C   UNL     1       7.184   6.551  18.313  0.00  0.00    +0.000 C 
ATOM     37  F   UNL     1       8.467   6.216  18.633  0.00  0.00    +0.000 F 
ATOM     38  C   UNL     1       6.246   5.605  19.045  0.00  0.00    +0.000 C 
ATOM     39  C   UNL     1       6.245   4.215  18.419  0.00  0.00    +0.000 C 
ENDBRANCH  32  33
ENDBRANCH   6  32
TORSDOF 7
ENDMDL
MODEL 7
REMARK VINA RESULT:     -10.0      1.416      2.068
REMARK  Name = 
REMARK  8 active torsions:
REMARK  status: ('A' for Active; 'I' for Inactive)
REMARK    1  A    between atoms: C_1  and  N_2
REMARK    2  A    between atoms: C_6  and  O_7
REMARK    3  A    between atoms: O_7  and  C_8
REMARK    4  A    between atoms: C_8  and  C_9
REMARK    5  A    between atoms: C_13  and  N_14
REMARK    6  A    between atoms: C_19  and  C_20
REMARK    7  A    between atoms: C_20  and  N_21
REMARK    8  A    between atoms: C_29  and  C_30
REMARK                            x       y       z     vdW  Elec       q    Type
REMARK                         _______ _______ _______ _____ _____    ______ ____
ROOT
ATOM      1  N   UNL     1       1.510   7.988  20.239  0.00  0.00    +0.000 N 
ATOM      2  C   UNL     1       1.591   6.650  20.773  0.00  0.00    +0.000 C 
ATOM      3  C   UNL     1       2.294   5.868  19.737  0.00  0.00    +0.000 A 
ATOM      4  C   UNL     1       2.727   6.704  18.710  0.00  0.00    +0.000 A 
ATOM      5  C   UNL     1       3.490   6.192  17.660  0.00  0.00    +0.000 A 
ATOM      6  C   UNL     1       3.787   4.806  17.664  0.00  0.00    +0.000 A 
ATOM      7  C   UNL     1       3.291   3.988  18.712  0.00  0.00    +0.000 A 
ATOM      8  C   UNL     1       2.511   4.499  19.748  0.00  0.00    +0.000 A 
ATOM      9  C   UNL     1       2.178   8.073  19.002  0.00  0.00    +0.000 C 
ATOM     10  O   UNL     1       2.311   9.031  18.255  0.00  0.00    +0.000 OA
ENDROOT
BRANCH   1  15
ATOM     11  C   UNL     1      -0.847  10.902  20.662  0.00  0.00    +0.000 A 
ATOM     12  C   UNL     1      -0.838  11.018  22.057  0.00  0.00    +0.000 A 
ATOM     13  C   UNL     1      -0.121  10.109  22.863  0.00  0.00    +0.000 A 
ATOM     14  C   UNL     1       0.629   9.061  22.305  0.00  0.00    +0.000 A 
ATOM     15  C   UNL     1       0.666   8.910  20.928  0.00  0.00    +0.000 A 
ATOM     16  C   UNL     1      -0.120   9.808  20.156  0.00  0.00    +0.000 A 
BRANCH  11  17
ATOM     17  C   UNL     1      -1.619  11.938  19.624  0.00  0.00    +0.000 C 
ATOM     18  C   UNL     1      -0.659  13.006  18.982  0.00  0.00    +0.000 C 
ATOM     19  O   UNL     1      -1.292  14.095  19.683  0.00  0.00    +0.000 OA
ATOM     20  C   UNL     1      -2.244  13.200  20.302  0.00  0.00    +0.000 C 
BRANCH  17  21
ATOM     21  O   UNL     1      -2.436  11.142  18.705  0.00  0.00    +0.000 OA
BRANCH  21  27
ATOM     22  C   UNL     1      -3.409  11.094  15.886  0.00  0.00    +0.000 C 
ATOM     23  N   UNL     1      -4.101  11.546  17.061  0.00  0.00    +0.000 N 
ATOM     24  C   UNL     1      -5.372  12.031  17.105  0.00  0.00    +0.000 A 
ATOM     25  N   UNL     1      -5.656  12.400  18.332  0.00  0.00    +0.000 NA
ATOM     26  N   UNL     1      -4.552  12.134  19.108  0.00  0.00    +0.000 NA
ATOM     27  C   UNL     1      -3.631  11.593  18.344  0.00  0.00    +0.000 A 
ENDBRANCH  21  27
ENDBRANCH  17  21
ENDBRANCH  11  17
ENDBRANCH   1  15
BRANCH   8  28
ATOM     28  C   UNL     1       1.913   3.582  20.782  0.00  0.00    +0.000 C 
ATOM     29  F   UNL     1       2.328   3.840  22.055  0.00  0.00    +0.000 F 
ATOM     30  F   UNL     1       0.556   3.661  20.819  0.00  0.00    +0.000 F 
ATOM     31  F   UNL     1       2.218   2.276  20.559  0.00  0.00    +0.000 F 
ENDBRANCH   8  28
BRANCH   6  32
ATOM     32  C   UNL     1       4.643   4.114  16.600  0.00  0.00    +0.000 C 
BRANCH  32  33
ATOM     33  N   UNL     1       5.005   5.047  15.522  0.00  0.00    +0.000 NA
ATOM     34  C   UNL     1       6.219   5.828  15.761  0.00  0.00    +0.000 C 
ATOM     35  C   UNL     1       7.513   5.085  15.438  0.00  0.00    +0.000 C 
ATOM     36  C   UNL     1       7.485   4.439  14.061  0.00  0.00    +0.000 C 
ATOM     37  F   UNL     1       7.628   5.419  13.123  0.00  0.00    +0.000 F 
ATOM     38  C   UNL     1       6.194   3.689  13.776  0.00  0.00    +0.000 C 
ATOM     39  C   UNL     1       4.968   4.509  14.163  0.00  0.00    +0.000 C 
ENDBRANCH  32  33
ENDBRANCH   6  32
TORSDOF 7
ENDMDL
MODEL 8
REMARK VINA RESULT:     -10.0      2.407      3.530
REMARK  Name = 
REMARK  8 active torsions:
REMARK  status: ('A' for Active; 'I' for Inactive)
REMARK    1  A    between atoms: C_1  and  N_2
REMARK    2  A    between atoms: C_6  and  O_7
REMARK    3  A    between atoms: O_7  and  C_8
REMARK    4  A    between atoms: C_8  and  C_9
REMARK    5  A    between atoms: C_13  and  N_14
REMARK    6  A    between atoms: C_19  and  C_20
REMARK    7  A    between atoms: C_20  and  N_21
REMARK    8  A    between atoms: C_29  and  C_30
REMARK                            x       y       z     vdW  Elec       q    Type
REMARK                         _______ _______ _______ _____ _____    ______ ____
ROOT
ATOM      1  N   UNL     1       1.471   7.952  20.395  0.00  0.00    +0.000 N 
ATOM      2  C   UNL     1       1.585   6.613  20.921  0.00  0.00    +0.000 C 
ATOM      3  C   UNL     1       2.298   5.852  19.877  0.00  0.00    +0.000 A 
ATOM      4  C   UNL     1       2.706   6.703  18.852  0.00  0.00    +0.000 A 
ATOM      5  C   UNL     1       3.474   6.214  17.794  0.00  0.00    +0.000 A 
ATOM      6  C   UNL     1       3.801   4.835  17.788  0.00  0.00    +0.000 A 
ATOM      7  C   UNL     1       3.330   4.000  18.834  0.00  0.00    +0.000 A 
ATOM      8  C   UNL     1       2.545   4.488  19.878  0.00  0.00    +0.000 A 
ATOM      9  C   UNL     1       2.130   8.058  19.155  0.00  0.00    +0.000 C 
ATOM     10  O   UNL     1       2.237   9.023  18.412  0.00  0.00    +0.000 OA
ENDROOT
BRANCH   1  15
ATOM     11  C   UNL     1      -0.558  11.076  20.987  0.00  0.00    +0.000 A 
ATOM     12  C   UNL     1      -0.842  10.923  22.348  0.00  0.00    +0.000 A 
ATOM     13  C   UNL     1      -0.434   9.775  23.058  0.00  0.00    +0.000 A 
ATOM     14  C   UNL     1       0.290   8.744  22.439  0.00  0.00    +0.000 A 
ATOM     15  C   UNL     1       0.612   8.852  21.095  0.00  0.00    +0.000 A 
ATOM     16  C   UNL     1       0.128   9.994  20.402  0.00  0.00    +0.000 A 
BRANCH  11  17
ATOM     17  C   UNL     1      -0.952  12.400  20.072  0.00  0.00    +0.000 C 
ATOM     18  C   UNL     1      -2.191  12.163  19.132  0.00  0.00    +0.000 C 
ATOM     19  O   UNL     1      -1.386  12.249  17.939  0.00  0.00    +0.000 OA
ATOM     20  C   UNL     1      -0.191  12.507  18.711  0.00  0.00    +0.000 C 
BRANCH  17  21
ATOM     21  O   UNL     1      -1.004  13.569  20.955  0.00  0.00    +0.000 OA
BRANCH  21  27
ATOM     22  C   UNL     1      -0.241  16.117  19.604  0.00  0.00    +0.000 C 
ATOM     23  N   UNL     1       0.461  15.410  20.639  0.00  0.00    +0.000 N 
ATOM     24  C   UNL     1       1.628  15.798  21.224  0.00  0.00    +0.000 A 
ATOM     25  N   UNL     1       2.008  14.886  22.087  0.00  0.00    +0.000 NA
ATOM     26  N   UNL     1       1.060  13.890  22.079  0.00  0.00    +0.000 NA
ATOM     27  C   UNL     1       0.117  14.225  21.228  0.00  0.00    +0.000 A 
ENDBRANCH  21  27
ENDBRANCH  17  21
ENDBRANCH  11  17
ENDBRANCH   1  15
BRANCH   8  28
ATOM     28  C   UNL     1       1.973   3.553  20.910  0.00  0.00    +0.000 C 
ATOM     29  F   UNL     1       0.612   3.576  20.982  0.00  0.00    +0.000 F 
ATOM     30  F   UNL     1       2.304   2.256  20.671  0.00  0.00    +0.000 F 
ATOM     31  F   UNL     1       2.407   3.836  22.167  0.00  0.00    +0.000 F 
ENDBRANCH   8  28
BRANCH   6  32
ATOM     32  C   UNL     1       4.665   4.167  16.714  0.00  0.00    +0.000 C 
BRANCH  32  33
ATOM     33  N   UNL     1       5.055   5.131  15.673  0.00  0.00    +0.000 NA
ATOM     34  C   UNL     1       6.308   5.842  15.927  0.00  0.00    +0.000 C 
ATOM     35  C   UNL     1       7.560   5.055  15.548  0.00  0.00    +0.000 C 
ATOM     36  C   UNL     1       7.480   4.474  14.144  0.00  0.00    +0.000 C 
ATOM     37  F   UNL     1       7.656   5.488  13.248  0.00  0.00    +0.000 F 
ATOM     38  C   UNL     1       6.150   3.800  13.848  0.00  0.00    +0.000 C 
ATOM     39  C   UNL     1       4.971   4.658  14.292  0.00  0.00    +0.000 C 
ENDBRANCH  32  33
ENDBRANCH   6  32
TORSDOF 7
ENDMDL
MODEL 9
REMARK VINA RESULT:      -9.9      2.011      3.075
REMARK  Name = 
REMARK  8 active torsions:
REMARK  status: ('A' for Active; 'I' for Inactive)
REMARK    1  A    between atoms: C_1  and  N_2
REMARK    2  A    between atoms: C_6  and  O_7
REMARK    3  A    between atoms: O_7  and  C_8
REMARK    4  A    between atoms: C_8  and  C_9
REMARK    5  A    between atoms: C_13  and  N_14
REMARK    6  A    between atoms: C_19  and  C_20
REMARK    7  A    between atoms: C_20  and  N_21
REMARK    8  A    between atoms: C_29  and  C_30
REMARK                            x       y       z     vdW  Elec       q    Type
REMARK                         _______ _______ _______ _____ _____    ______ ____
ROOT
ATOM      1  N   UNL     1       1.375   8.108  20.422  0.00  0.00    +0.000 N 
ATOM      2  C   UNL     1       1.481   6.740  20.870  0.00  0.00    +0.000 C 
ATOM      3  C   UNL     1       2.194   6.038  19.785  0.00  0.00    +0.000 A 
ATOM      4  C   UNL     1       2.609   6.945  18.813  0.00  0.00    +0.000 A 
ATOM      5  C   UNL     1       3.378   6.515  17.730  0.00  0.00    +0.000 A 
ATOM      6  C   UNL     1       3.699   5.137  17.645  0.00  0.00    +0.000 A 
ATOM      7  C   UNL     1       3.220   4.245  18.640  0.00  0.00    +0.000 A 
ATOM      8  C   UNL     1       2.435   4.675  19.708  0.00  0.00    +0.000 A 
ATOM      9  C   UNL     1       2.037   8.283  19.192  0.00  0.00    +0.000 C 
ATOM     10  O   UNL     1       2.152   9.289  18.507  0.00  0.00    +0.000 OA
ENDROOT
BRANCH   1  15
ATOM     11  C   UNL     1      -0.780  11.124  21.120  0.00  0.00    +0.000 A 
ATOM     12  C   UNL     1      -0.960  10.976  22.500  0.00  0.00    +0.000 A 
ATOM     13  C   UNL     1      -0.439   9.863  23.193  0.00  0.00    +0.000 A 
ATOM     14  C   UNL     1       0.297   8.864  22.535  0.00  0.00    +0.000 A 
ATOM     15  C   UNL     1       0.517   8.969  21.171  0.00  0.00    +0.000 A 
ATOM     16  C   UNL     1      -0.077  10.072  20.500  0.00  0.00    +0.000 A 
BRANCH  11  17
ATOM     17  C   UNL     1      -1.312  12.410  20.221  0.00  0.00    +0.000 C 
ATOM     18  C   UNL     1      -2.413  13.267  20.947  0.00  0.00    +0.000 C 
ATOM     19  O   UNL     1      -3.432  12.877  20.005  0.00  0.00    +0.000 OA
ATOM     20  C   UNL     1      -2.490  12.086  19.247  0.00  0.00    +0.000 C 
BRANCH  17  21
ATOM     21  O   UNL     1      -0.140  13.129  19.711  0.00  0.00    +0.000 OA
BRANCH  21  27
ATOM     22  C   UNL     1      -0.260  16.108  19.632  0.00  0.00    +0.000 C 
ATOM     23  N   UNL     1       0.482  15.268  20.531  0.00  0.00    +0.000 N 
ATOM     24  C   UNL     1       1.272  15.693  21.556  0.00  0.00    +0.000 A 
ATOM     25  N   UNL     1       1.837  14.656  22.129  0.00  0.00    +0.000 NA
ATOM     26  N   UNL     1       1.392  13.530  21.477  0.00  0.00    +0.000 NA
ATOM     27  C   UNL     1       0.554  13.903  20.536  0.00  0.00    +0.000 A 
ENDBRANCH  21  27
ENDBRANCH  17  21
ENDBRANCH  11  17
ENDBRANCH   1  15
BRANCH   8  28
ATOM     28  C   UNL     1       1.856   3.684  20.682  0.00  0.00    +0.000 C 
ATOM     29  F   UNL     1       0.493   3.678  20.720  0.00  0.00    +0.000 F 
ATOM     30  F   UNL     1       2.217   2.405  20.394  0.00  0.00    +0.000 F 
ATOM     31  F   UNL     1       2.252   3.918  21.961  0.00  0.00    +0.000 F 
ENDBRANCH   8  28
BRANCH   6  32
ATOM     32  C   UNL     1       4.563   4.529  16.537  0.00  0.00    +0.000 C 
BRANCH  32  33
ATOM     33  N   UNL     1       5.922   4.241  17.022  0.00  0.00    +0.000 NA
ATOM     34  C   UNL     1       6.987   4.998  16.365  0.00  0.00    +0.000 C 
ATOM     35  C   UNL     1       7.181   6.409  16.914  0.00  0.00    +0.000 C 
ATOM     36  C   UNL     1       7.284   6.434  18.431  0.00  0.00    +0.000 C 
ATOM     37  F   UNL     1       8.512   5.958  18.787  0.00  0.00    +0.000 F 
ATOM     38  C   UNL     1       6.225   5.588  19.120  0.00  0.00    +0.000 C 
ATOM     39  C   UNL     1       6.094   4.213  18.474  0.00  0.00    +0.000 C 
ENDBRANCH  32  33
ENDBRANCH   6  32
TORSDOF 7
ENDMDL
