MODEL 1
REMARK VINA RESULT:      -9.8      0.000      0.000
REMARK  Name = 
REMARK  9 active torsions:
REMARK  status: ('A' for Active; 'I' for Inactive)
REMARK    1  A    between atoms: C_1  and  N_2
REMARK    2  A    between atoms: C_6  and  C_7
REMARK    3  A    between atoms: C_7  and  C_8
REMARK    4  A    between atoms: C_8  and  C_9
REMARK    5  A    between atoms: C_13  and  N_14
REMARK    6  A    between atoms: C_19  and  C_20
REMARK    7  A    between atoms: C_20  and  C_23
REMARK    8  A    between atoms: C_23  and  O_25
REMARK    9  A    between atoms: C_27  and  C_28
REMARK                            x       y       z     vdW  Elec       q    Type
REMARK                         _______ _______ _______ _____ _____    ______ ____
ROOT
ATOM      1  N   UNL     1       2.192   7.469  19.580  0.00  0.00    +0.000 N 
ATOM      2  C   UNL     1       2.277   6.074  19.962  0.00  0.00    +0.000 C 
ATOM      3  C   UNL     1       3.074   5.450  18.886  0.00  0.00    +0.000 A 
ATOM      4  C   UNL     1       3.528   6.423  18.005  0.00  0.00    +0.000 A 
ATOM      5  C   UNL     1       4.348   6.096  16.935  0.00  0.00    +0.000 A 
ATOM      6  C   UNL     1       4.698   4.738  16.764  0.00  0.00    +0.000 A 
ATOM      7  C   UNL     1       4.185   3.758  17.654  0.00  0.00    +0.000 A 
ATOM      8  C   UNL     1       3.358   4.095  18.728  0.00  0.00    +0.000 A 
ATOM      9  C   UNL     1       2.938   7.728  18.425  0.00  0.00    +0.000 C 
ATOM     10  O   UNL     1       3.110   8.762  17.803  0.00  0.00    +0.000 OA
ENDROOT
BRANCH   1  15
ATOM     11  C   UNL     1      -0.433  10.087  20.172  0.00  0.00    +0.000 A 
ATOM     12  C   UNL     1      -0.352  10.204  21.565  0.00  0.00    +0.000 A 
ATOM     13  C   UNL     1       0.518   9.397  22.320  0.00  0.00    +0.000 A 
ATOM     14  C   UNL     1       1.361   8.461  21.702  0.00  0.00    +0.000 A 
ATOM     15  C   UNL     1       1.333   8.322  20.321  0.00  0.00    +0.000 A 
ATOM     16  C   UNL     1       0.414   9.121  19.609  0.00  0.00    +0.000 A 
BRANCH  11  17
ATOM     17  C   UNL     1      -1.407  10.958  19.216  0.00  0.00    +0.000 C 
ATOM     18  C   UNL     1      -0.693  11.843  18.161  0.00  0.00    +0.000 C 
ATOM     19  O   UNL     1      -1.243  13.059  18.702  0.00  0.00    +0.000 OA
ATOM     20  C   UNL     1      -1.908  12.335  19.757  0.00  0.00    +0.000 C 
BRANCH  17  21
ATOM     21  C   UNL     1      -2.546  10.094  18.616  0.00  0.00    +0.000 C 
BRANCH  21  27
ATOM     22  C   UNL     1      -4.853  11.854  17.352  0.00  0.00    +0.000 C 
ATOM     23  N   UNL     1      -3.837  11.115  16.651  0.00  0.00    +0.000 N 
ATOM     24  C   UNL     1      -3.728  11.043  15.294  0.00  0.00    +0.000 A 
ATOM     25  N   UNL     1      -2.723  10.265  14.977  0.00  0.00    +0.000 NA
ATOM     26  N   UNL     1      -2.170   9.805  16.146  0.00  0.00    +0.000 NA
ATOM     27  C   UNL     1      -2.823  10.339  17.162  0.00  0.00    +0.000 A 
ENDBRANCH  21  27
ENDBRANCH  17  21
ENDBRANCH  11  17
ENDBRANCH   1  15
BRANCH   8  28
ATOM     28  C   UNL     1       2.779   3.036  19.633  0.00  0.00    +0.000 C 
ATOM     29  F   UNL     1       3.125   3.170  20.940  0.00  0.00    +0.000 F 
ATOM     30  F   UNL     1       1.419   3.029  19.601  0.00  0.00    +0.000 F 
ATOM     31  F   UNL     1       3.172   1.782  19.277  0.00  0.00    +0.000 F 
ENDBRANCH   8  28
BRANCH   6  32
ATOM     32  C   UNL     1       5.623   4.281  15.647  0.00  0.00    +0.000 C 
ATOM     33  F   UNL     1       5.734   2.912  15.622  0.00  0.00    +0.000 F 
ATOM     34  F   UNL     1       5.116   4.581  14.403  0.00  0.00    +0.000 F 
BRANCH  32  35
ATOM     35  C   UNL     1       7.039   4.895  15.765  0.00  0.00    +0.000 C 
ATOM     36  O   UNL     1       7.565   5.659  14.967  0.00  0.00    +0.000 OA
BRANCH  35  37
ATOM     37  O   UNL     1       7.658   4.545  16.933  0.00  0.00    +0.000 OA
ATOM     38  H   UNL     1       8.108   3.675  16.860  0.00  0.00    +0.000 HD
ENDBRANCH  35  37
ENDBRANCH  32  35
ENDBRANCH   6  32
TORSDOF 8
ENDMDL
MODEL 2
REMARK VINA RESULT:      -9.8      2.242      3.234
REMARK  Name = 
REMARK  9 active torsions:
REMARK  status: ('A' for Active; 'I' for Inactive)
REMARK    1  A    between atoms: C_1  and  N_2
REMARK    2  A    between atoms: C_6  and  C_7
REMARK    3  A    between atoms: C_7  and  C_8
REMARK    4  A    between atoms: C_8  and  C_9
REMARK    5  A    between atoms: C_13  and  N_14
REMARK    6  A    between atoms: C_19  and  C_20
REMARK    7  A    between atoms: C_20  and  C_23
REMARK    8  A    between atoms: C_23  and  O_25
REMARK    9  A    between atoms: C_27  and  C_28
REMARK                            x       y       z     vdW  Elec       q    Type
REMARK                         _______ _______ _______ _____ _____    ______ ____
ROOT
ATOM      1  N   UNL     1       2.219   7.431  19.504  0.00  0.00    +0.000 N 
ATOM      2  C   UNL     1       2.293   6.032  19.878  0.00  0.00    +0.000 C 
ATOM      3  C   UNL     1       3.104   5.412  18.811  0.00  0.00    +0.000 A 
ATOM      4  C   UNL     1       3.576   6.389  17.943  0.00  0.00    +0.000 A 
ATOM      5  C   UNL     1       4.411   6.065  16.884  0.00  0.00    +0.000 A 
ATOM      6  C   UNL     1       4.760   4.707  16.710  0.00  0.00    +0.000 A 
ATOM      7  C   UNL     1       4.229   3.723  17.586  0.00  0.00    +0.000 A 
ATOM      8  C   UNL     1       3.387   4.057  18.649  0.00  0.00    +0.000 A 
ATOM      9  C   UNL     1       2.984   7.694  18.362  0.00  0.00    +0.000 C 
ATOM     10  O   UNL     1       3.170   8.730  17.749  0.00  0.00    +0.000 OA
ENDROOT
BRANCH   1  15
ATOM     11  C   UNL     1      -0.016  10.375  20.158  0.00  0.00    +0.000 A 
ATOM     12  C   UNL     1      -0.265  10.194  21.525  0.00  0.00    +0.000 A 
ATOM     13  C   UNL     1       0.251   9.089  22.224  0.00  0.00    +0.000 A 
ATOM     14  C   UNL     1       1.060   8.137  21.585  0.00  0.00    +0.000 A 
ATOM     15  C   UNL     1       1.352   8.282  20.236  0.00  0.00    +0.000 A 
ATOM     16  C   UNL     1       0.778   9.382  19.564  0.00  0.00    +0.000 A 
BRANCH  11  17
ATOM     17  C   UNL     1      -0.572  11.604  19.262  0.00  0.00    +0.000 C 
ATOM     18  C   UNL     1      -1.888  12.255  19.762  0.00  0.00    +0.000 C 
ATOM     19  O   UNL     1      -2.595  11.928  18.551  0.00  0.00    +0.000 OA
ATOM     20  C   UNL     1      -1.440  11.252  18.013  0.00  0.00    +0.000 C 
BRANCH  17  21
ATOM     21  C   UNL     1       0.541  12.639  18.953  0.00  0.00    +0.000 C 
BRANCH  21  27
ATOM     22  C   UNL     1      -0.336  15.642  19.436  0.00  0.00    +0.000 C 
ATOM     23  N   UNL     1       0.503  14.833  20.279  0.00  0.00    +0.000 N 
ATOM     24  C   UNL     1       1.083  15.261  21.436  0.00  0.00    +0.000 A 
ATOM     25  N   UNL     1       1.810  14.297  21.944  0.00  0.00    +0.000 NA
ATOM     26  N   UNL     1       1.720  13.220  21.097  0.00  0.00    +0.000 NA
ATOM     27  C   UNL     1       0.908  13.530  20.103  0.00  0.00    +0.000 A 
ENDBRANCH  21  27
ENDBRANCH  17  21
ENDBRANCH  11  17
ENDBRANCH   1  15
BRANCH   8  28
ATOM     28  C   UNL     1       2.789   2.995  19.539  0.00  0.00    +0.000 C 
ATOM     29  F   UNL     1       1.431   3.012  19.592  0.00  0.00    +0.000 F 
ATOM     30  F   UNL     1       3.136   1.742  19.137  0.00  0.00    +0.000 F 
ATOM     31  F   UNL     1       3.208   3.108  20.828  0.00  0.00    +0.000 F 
ENDBRANCH   8  28
BRANCH   6  32
ATOM     32  C   UNL     1       5.700   4.254  15.605  0.00  0.00    +0.000 C 
ATOM     33  F   UNL     1       5.717   2.884  15.498  0.00  0.00    +0.000 F 
ATOM     34  F   UNL     1       5.272   4.665  14.363  0.00  0.00    +0.000 F 
BRANCH  32  35
ATOM     35  C   UNL     1       7.149   4.756  15.820  0.00  0.00    +0.000 C 
ATOM     36  O   UNL     1       7.884   4.463  16.752  0.00  0.00    +0.000 OA
BRANCH  35  37
ATOM     37  O   UNL     1       7.581   5.542  14.788  0.00  0.00    +0.000 OA
ATOM     38  H   UNL     1       7.805   6.449  15.090  0.00  0.00    +0.000 HD
ENDBRANCH  35  37
ENDBRANCH  32  35
ENDBRANCH   6  32
TORSDOF 8
ENDMDL
MODEL 3
REMARK VINA RESULT:      -9.6      0.591      1.126
REMARK  Name = 
REMARK  9 active torsions:
REMARK  status: ('A' for Active; 'I' for Inactive)
REMARK    1  A    between atoms: C_1  and  N_2
REMARK    2  A    between atoms: C_6  and  C_7
REMARK    3  A    between atoms: C_7  and  C_8
REMARK    4  A    between atoms: C_8  and  C_9
REMARK    5  A    between atoms: C_13  and  N_14
REMARK    6  A    between atoms: C_19  and  C_20
REMARK    7  A    between atoms: C_20  and  C_23
REMARK    8  A    between atoms: C_23  and  O_25
REMARK    9  A    between atoms: C_27  and  C_28
REMARK                            x       y       z     vdW  Elec       q    Type
REMARK                         _______ _______ _______ _____ _____    ______ ____
ROOT
ATOM      1  N   UNL     1       2.295   7.392  19.478  0.00  0.00    +0.000 N 
ATOM      2  C   UNL     1       2.376   5.993  19.850  0.00  0.00    +0.000 C 
ATOM      3  C   UNL     1       3.164   5.373  18.765  0.00  0.00    +0.000 A 
ATOM      4  C   UNL     1       3.618   6.350  17.889  0.00  0.00    +0.000 A 
ATOM      5  C   UNL     1       4.430   6.027  16.812  0.00  0.00    +0.000 A 
ATOM      6  C   UNL     1       4.774   4.669  16.629  0.00  0.00    +0.000 A 
ATOM      7  C   UNL     1       4.261   3.685  17.515  0.00  0.00    +0.000 A 
ATOM      8  C   UNL     1       3.442   4.019  18.596  0.00  0.00    +0.000 A 
ATOM      9  C   UNL     1       3.036   7.655  18.321  0.00  0.00    +0.000 C 
ATOM     10  O   UNL     1       3.209   8.692  17.704  0.00  0.00    +0.000 OA
ENDROOT
BRANCH   1  15
ATOM     11  C   UNL     1      -0.269  10.063  20.103  0.00  0.00    +0.000 A 
ATOM     12  C   UNL     1      -0.216  10.130  21.501  0.00  0.00    +0.000 A 
ATOM     13  C   UNL     1       0.615   9.273  22.246  0.00  0.00    +0.000 A 
ATOM     14  C   UNL     1       1.445   8.335  21.614  0.00  0.00    +0.000 A 
ATOM     15  C   UNL     1       1.444   8.244  20.230  0.00  0.00    +0.000 A 
ATOM     16  C   UNL     1       0.564   9.092  19.525  0.00  0.00    +0.000 A 
BRANCH  11  17
ATOM     17  C   UNL     1      -1.197  10.993  19.158  0.00  0.00    +0.000 C 
ATOM     18  C   UNL     1      -0.441  12.050  18.310  0.00  0.00    +0.000 C 
ATOM     19  O   UNL     1      -1.132  13.149  18.931  0.00  0.00    +0.000 OA
ATOM     20  C   UNL     1      -1.851  12.254  19.804  0.00  0.00    +0.000 C 
BRANCH  17  21
ATOM     21  C   UNL     1      -2.198  10.150  18.327  0.00  0.00    +0.000 C 
BRANCH  21  27
ATOM     22  C   UNL     1      -3.064  10.964  15.394  0.00  0.00    +0.000 C 
ATOM     23  N   UNL     1      -3.781  11.215  16.615  0.00  0.00    +0.000 N 
ATOM     24  C   UNL     1      -4.966  11.883  16.695  0.00  0.00    +0.000 A 
ATOM     25  N   UNL     1      -5.335  11.972  17.949  0.00  0.00    +0.000 NA
ATOM     26  N   UNL     1      -4.366  11.366  18.709  0.00  0.00    +0.000 NA
ATOM     27  C   UNL     1      -3.438  10.881  17.904  0.00  0.00    +0.000 A 
ENDBRANCH  21  27
ENDBRANCH  17  21
ENDBRANCH  11  17
ENDBRANCH   1  15
BRANCH   8  28
ATOM     28  C   UNL     1       2.862   2.956  19.498  0.00  0.00    +0.000 C 
ATOM     29  F   UNL     1       3.194   3.095  20.808  0.00  0.00    +0.000 F 
ATOM     30  F   UNL     1       1.503   2.936  19.451  0.00  0.00    +0.000 F 
ATOM     31  F   UNL     1       3.271   1.705  19.148  0.00  0.00    +0.000 F 
ENDBRANCH   8  28
BRANCH   6  32
ATOM     32  C   UNL     1       5.690   4.216  15.504  0.00  0.00    +0.000 C 
ATOM     33  F   UNL     1       5.788   2.845  15.464  0.00  0.00    +0.000 F 
ATOM     34  F   UNL     1       5.182   4.534  14.266  0.00  0.00    +0.000 F 
BRANCH  32  35
ATOM     35  C   UNL     1       7.113   4.815  15.624  0.00  0.00    +0.000 C 
ATOM     36  O   UNL     1       7.681   5.502  14.787  0.00  0.00    +0.000 OA
BRANCH  35  37
ATOM     37  O   UNL     1       7.683   4.552  16.839  0.00  0.00    +0.000 OA
ATOM     38  H   UNL     1       8.280   3.773  16.800  0.00  0.00    +0.000 HD
ENDBRANCH  35  37
ENDBRANCH  32  35
ENDBRANCH   6  32
TORSDOF 8
ENDMDL
MODEL 4
REMARK VINA RESULT:      -9.6      2.236      3.047
REMARK  Name = 
REMARK  9 active torsions:
REMARK  status: ('A' for Active; 'I' for Inactive)
REMARK    1  A    between atoms: C_1  and  N_2
REMARK    2  A    between atoms: C_6  and  C_7
REMARK    3  A    between atoms: C_7  and  C_8
REMARK    4  A    between atoms: C_8  and  C_9
REMARK    5  A    between atoms: C_13  and  N_14
REMARK    6  A    between atoms: C_19  and  C_20
REMARK    7  A    between atoms: C_20  and  C_23
REMARK    8  A    between atoms: C_23  and  O_25
REMARK    9  A    between atoms: C_27  and  C_28
REMARK                            x       y       z     vdW  Elec       q    Type
REMARK                         _______ _______ _______ _____ _____    ______ ____
ROOT
ATOM      1  N   UNL     1       1.629   8.149  19.915  0.00  0.00    +0.000 N 
ATOM      2  C   UNL     1       1.675   6.835  20.524  0.00  0.00    +0.000 C 
ATOM      3  C   UNL     1       2.480   6.026  19.585  0.00  0.00    +0.000 A 
ATOM      4  C   UNL     1       2.974   6.832  18.567  0.00  0.00    +0.000 A 
ATOM      5  C   UNL     1       3.808   6.317  17.586  0.00  0.00    +0.000 A 
ATOM      6  C   UNL     1       4.132   4.943  17.649  0.00  0.00    +0.000 A 
ATOM      7  C   UNL     1       3.579   4.133  18.676  0.00  0.00    +0.000 A 
ATOM      8  C   UNL     1       2.737   4.659  19.659  0.00  0.00    +0.000 A 
ATOM      9  C   UNL     1       2.404   8.199  18.751  0.00  0.00    +0.000 C 
ATOM     10  O   UNL     1       2.613   9.112  17.971  0.00  0.00    +0.000 OA
ENDROOT
BRANCH   1  15
ATOM     11  C   UNL     1      -0.905  10.918  19.997  0.00  0.00    +0.000 A 
ATOM     12  C   UNL     1      -0.884  11.227  21.364  0.00  0.00    +0.000 A 
ATOM     13  C   UNL     1      -0.085  10.504  22.267  0.00  0.00    +0.000 A 
ATOM     14  C   UNL     1       0.744   9.461  21.831  0.00  0.00    +0.000 A 
ATOM     15  C   UNL     1       0.774   9.129  20.484  0.00  0.00    +0.000 A 
ATOM     16  C   UNL     1      -0.075   9.851  19.620  0.00  0.00    +0.000 A 
BRANCH  11  17
ATOM     17  C   UNL     1      -1.795  11.680  18.881  0.00  0.00    +0.000 C 
ATOM     18  C   UNL     1      -3.140  12.267  19.384  0.00  0.00    +0.000 C 
ATOM     19  O   UNL     1      -3.916  11.454  18.484  0.00  0.00    +0.000 OA
ATOM     20  C   UNL     1      -2.728  10.807  17.982  0.00  0.00    +0.000 C 
BRANCH  17  21
ATOM     21  C   UNL     1      -0.952  12.697  18.069  0.00  0.00    +0.000 C 
BRANCH  21  27
ATOM     22  C   UNL     1       2.197  12.618  18.380  0.00  0.00    +0.000 C 
ATOM     23  N   UNL     1       1.282  13.536  19.005  0.00  0.00    +0.000 N 
ATOM     24  C   UNL     1       1.646  14.525  19.869  0.00  0.00    +0.000 A 
ATOM     25  N   UNL     1       0.577  15.158  20.284  0.00  0.00    +0.000 NA
ATOM     26  N   UNL     1      -0.511  14.565  19.694  0.00  0.00    +0.000 NA
ATOM     27  C   UNL     1      -0.087  13.601  18.897  0.00  0.00    +0.000 A 
ENDBRANCH  21  27
ENDBRANCH  17  21
ENDBRANCH  11  17
ENDBRANCH   1  15
BRANCH   8  28
ATOM     28  C   UNL     1       2.116   3.775  20.713  0.00  0.00    +0.000 C 
ATOM     29  F   UNL     1       2.372   4.165  21.989  0.00  0.00    +0.000 F 
ATOM     30  F   UNL     1       0.761   3.724  20.598  0.00  0.00    +0.000 F 
ATOM     31  F   UNL     1       2.551   2.489  20.628  0.00  0.00    +0.000 F 
ENDBRANCH   8  28
BRANCH   6  32
ATOM     32  C   UNL     1       5.069   4.291  16.645  0.00  0.00    +0.000 C 
ATOM     33  F   UNL     1       4.883   2.929  16.604  0.00  0.00    +0.000 F 
ATOM     34  F   UNL     1       4.800   4.687  15.356  0.00  0.00    +0.000 F 
BRANCH  32  35
ATOM     35  C   UNL     1       6.558   4.582  16.952  0.00  0.00    +0.000 C 
ATOM     36  O   UNL     1       7.344   5.172  16.224  0.00  0.00    +0.000 OA
BRANCH  35  37
ATOM     37  O   UNL     1       6.920   4.161  18.202  0.00  0.00    +0.000 OA
ATOM     38  H   UNL     1       7.794   4.521  18.468  0.00  0.00    +0.000 HD
ENDBRANCH  35  37
ENDBRANCH  32  35
ENDBRANCH   6  32
TORSDOF 8
ENDMDL
MODEL 5
REMARK VINA RESULT:      -9.5      2.257      3.226
REMARK  Name = 
REMARK  9 active torsions:
REMARK  status: ('A' for Active; 'I' for Inactive)
REMARK    1  A    between atoms: C_1  and  N_2
REMARK    2  A    between atoms: C_6  and  C_7
REMARK    3  A    between atoms: C_7  and  C_8
REMARK    4  A    between atoms: C_8  and  C_9
REMARK    5  A    between atoms: C_13  and  N_14
REMARK    6  A    between atoms: C_19  and  C_20
REMARK    7  A    between atoms: C_20  and  C_23
REMARK    8  A    between atoms: C_23  and  O_25
REMARK    9  A    between atoms: C_27  and  C_28
REMARK                            x       y       z     vdW  Elec       q    Type
REMARK                         _______ _______ _______ _____ _____    ______ ____
ROOT
ATOM      1  N   UNL     1       1.519   8.158  20.133  0.00  0.00    +0.000 N 
ATOM      2  C   UNL     1       1.581   6.821  20.690  0.00  0.00    +0.000 C 
ATOM      3  C   UNL     1       2.405   6.063  19.726  0.00  0.00    +0.000 A 
ATOM      4  C   UNL     1       2.893   6.915  18.744  0.00  0.00    +0.000 A 
ATOM      5  C   UNL     1       3.741   6.452  17.749  0.00  0.00    +0.000 A 
ATOM      6  C   UNL     1       4.086   5.081  17.762  0.00  0.00    +0.000 A 
ATOM      7  C   UNL     1       3.539   4.224  18.752  0.00  0.00    +0.000 A 
ATOM      8  C   UNL     1       2.683   4.698  19.749  0.00  0.00    +0.000 A 
ATOM      9  C   UNL     1       2.301   8.265  18.978  0.00  0.00    +0.000 C 
ATOM     10  O   UNL     1       2.500   9.211  18.235  0.00  0.00    +0.000 OA
ENDROOT
BRANCH   1  15
ATOM     11  C   UNL     1      -0.849  11.065  20.323  0.00  0.00    +0.000 A 
ATOM     12  C   UNL     1      -1.007  11.161  21.711  0.00  0.00    +0.000 A 
ATOM     13  C   UNL     1      -0.385  10.251  22.585  0.00  0.00    +0.000 A 
ATOM     14  C   UNL     1       0.441   9.226  22.100  0.00  0.00    +0.000 A 
ATOM     15  C   UNL     1       0.645   9.101  20.733  0.00  0.00    +0.000 A 
ATOM     16  C   UNL     1      -0.032  10.008  19.892  0.00  0.00    +0.000 A 
BRANCH  11  17
ATOM     17  C   UNL     1      -1.530  12.051  19.235  0.00  0.00    +0.000 C 
ATOM     18  C   UNL     1      -3.080  12.100  19.253  0.00  0.00    +0.000 C 
ATOM     19  O   UNL     1      -3.184  11.626  17.898  0.00  0.00    +0.000 OA
ATOM     20  C   UNL     1      -1.751  11.494  17.793  0.00  0.00    +0.000 C 
BRANCH  17  21
ATOM     21  C   UNL     1      -0.876  13.458  19.246  0.00  0.00    +0.000 C 
BRANCH  21  27
ATOM     22  C   UNL     1       0.997  14.328  21.644  0.00  0.00    +0.000 C 
ATOM     23  N   UNL     1       1.404  13.839  20.354  0.00  0.00    +0.000 N 
ATOM     24  C   UNL     1       2.698  13.696  19.952  0.00  0.00    +0.000 A 
ATOM     25  N   UNL     1       2.727  13.263  18.716  0.00  0.00    +0.000 NA
ATOM     26  N   UNL     1       1.428  13.134  18.292  0.00  0.00    +0.000 NA
ATOM     27  C   UNL     1       0.624  13.455  19.289  0.00  0.00    +0.000 A 
ENDBRANCH  21  27
ENDBRANCH  17  21
ENDBRANCH  11  17
ENDBRANCH   1  15
BRANCH   8  28
ATOM     28  C   UNL     1       2.068   3.764  20.763  0.00  0.00    +0.000 C 
ATOM     29  F   UNL     1       2.414   2.460  20.601  0.00  0.00    +0.000 F 
ATOM     30  F   UNL     1       2.419   4.094  22.036  0.00  0.00    +0.000 F 
ATOM     31  F   UNL     1       0.708   3.789  20.727  0.00  0.00    +0.000 F 
ENDBRANCH   8  28
BRANCH   6  32
ATOM     32  C   UNL     1       5.040   4.483  16.740  0.00  0.00    +0.000 C 
ATOM     33  F   UNL     1       4.732   3.168  16.484  0.00  0.00    +0.000 F 
ATOM     34  F   UNL     1       4.918   5.084  15.508  0.00  0.00    +0.000 F 
BRANCH  32  35
ATOM     35  C   UNL     1       6.518   4.572  17.190  0.00  0.00    +0.000 C 
ATOM     36  O   UNL     1       6.933   4.463  18.335  0.00  0.00    +0.000 OA
BRANCH  35  37
ATOM     37  O   UNL     1       7.372   4.722  16.131  0.00  0.00    +0.000 OA
ATOM     38  H   UNL     1       6.898   4.676  15.272  0.00  0.00    +0.000 HD
ENDBRANCH  35  37
ENDBRANCH  32  35
ENDBRANCH   6  32
TORSDOF 8
ENDMDL
MODEL 6
REMARK VINA RESULT:      -9.5      1.816      2.539
REMARK  Name = 
REMARK  9 active torsions:
REMARK  status: ('A' for Active; 'I' for Inactive)
REMARK    1  A    between atoms: C_1  and  N_2
REMARK    2  A    between atoms: C_6  and  C_7
REMARK    3  A    between atoms: C_7  and  C_8
REMARK    4  A    between atoms: C_8  and  C_9
REMARK    5  A    between atoms: C_13  and  N_14
REMARK    6  A    between atoms: C_19  and  C_20
REMARK    7  A    between atoms: C_20  and  C_23
REMARK    8  A    between atoms: C_23  and  O_25
REMARK    9  A    between atoms: C_27  and  C_28
REMARK                            x       y       z     vdW  Elec       q    Type
REMARK                         _______ _______ _______ _____ _____    ______ ____
ROOT
ATOM      1  N   UNL     1       1.568   8.692  19.224  0.00  0.00    +0.000 N 
ATOM      2  C   UNL     1       1.682   7.453  19.967  0.00  0.00    +0.000 C 
ATOM      3  C   UNL     1       2.578   6.616  19.143  0.00  0.00    +0.000 A 
ATOM      4  C   UNL     1       3.055   7.349  18.063  0.00  0.00    +0.000 A 
ATOM      5  C   UNL     1       3.960   6.802  17.167  0.00  0.00    +0.000 A 
ATOM      6  C   UNL     1       4.378   5.469  17.383  0.00  0.00    +0.000 A 
ATOM      7  C   UNL     1       3.843   4.728  18.469  0.00  0.00    +0.000 A 
ATOM      8  C   UNL     1       2.929   5.286  19.366  0.00  0.00    +0.000 A 
ATOM      9  C   UNL     1       2.383   8.683  18.087  0.00  0.00    +0.000 C 
ATOM     10  O   UNL     1       2.557   9.525  17.224  0.00  0.00    +0.000 OA
ENDROOT
BRANCH   1  15
ATOM     11  C   UNL     1      -1.493  10.862  19.092  0.00  0.00    +0.000 A 
ATOM     12  C   UNL     1      -1.295  11.635  20.244  0.00  0.00    +0.000 A 
ATOM     13  C   UNL     1      -0.194  11.418  21.092  0.00  0.00    +0.000 A 
ATOM     14  C   UNL     1       0.765  10.437  20.802  0.00  0.00    +0.000 A 
ATOM     15  C   UNL     1       0.624   9.658  19.662  0.00  0.00    +0.000 A 
ATOM     16  C   UNL     1      -0.517   9.880  18.863  0.00  0.00    +0.000 A 
BRANCH  11  17
ATOM     17  C   UNL     1      -2.730  11.023  18.061  0.00  0.00    +0.000 C 
ATOM     18  C   UNL     1      -3.485   9.713  17.710  0.00  0.00    +0.000 C 
ATOM     19  O   UNL     1      -3.172   9.822  16.309  0.00  0.00    +0.000 OA
ATOM     20  C   UNL     1      -2.402  11.021  16.534  0.00  0.00    +0.000 C 
BRANCH  17  21
ATOM     21  C   UNL     1      -3.677  12.179  18.475  0.00  0.00    +0.000 C 
BRANCH  21  27
ATOM     22  C   UNL     1      -5.178  12.497  21.243  0.00  0.00    +0.000 C 
ATOM     23  N   UNL     1      -5.694  11.915  20.034  0.00  0.00    +0.000 N 
ATOM     24  C   UNL     1      -6.939  11.375  19.903  0.00  0.00    +0.000 A 
ATOM     25  N   UNL     1      -7.086  10.900  18.692  0.00  0.00    +0.000 NA
ATOM     26  N   UNL     1      -5.910  11.117  18.017  0.00  0.00    +0.000 NA
ATOM     27  C   UNL     1      -5.076  11.756  18.816  0.00  0.00    +0.000 A 
ENDBRANCH  21  27
ENDBRANCH  17  21
ENDBRANCH  11  17
ENDBRANCH   1  15
BRANCH   8  28
ATOM     28  C   UNL     1       2.330   4.469  20.484  0.00  0.00    +0.000 C 
ATOM     29  F   UNL     1       2.508   5.003  21.721  0.00  0.00    +0.000 F 
ATOM     30  F   UNL     1       0.987   4.307  20.333  0.00  0.00    +0.000 F 
ATOM     31  F   UNL     1       2.857   3.216  20.546  0.00  0.00    +0.000 F 
ENDBRANCH   8  28
BRANCH   6  32
ATOM     32  C   UNL     1       5.397   4.790  16.482  0.00  0.00    +0.000 C 
ATOM     33  F   UNL     1       5.238   3.425  16.492  0.00  0.00    +0.000 F 
ATOM     34  F   UNL     1       5.217   5.121  15.159  0.00  0.00    +0.000 F 
BRANCH  32  35
ATOM     35  C   UNL     1       6.854   5.127  16.882  0.00  0.00    +0.000 C 
ATOM     36  O   UNL     1       7.512   6.078  16.484  0.00  0.00    +0.000 OA
BRANCH  35  37
ATOM     37  O   UNL     1       7.346   4.261  17.820  0.00  0.00    +0.000 OA
ATOM     38  H   UNL     1       8.327   4.276  17.851  0.00  0.00    +0.000 HD
ENDBRANCH  35  37
ENDBRANCH  32  35
ENDBRANCH   6  32
TORSDOF 8
ENDMDL
MODEL 7
REMARK VINA RESULT:      -9.5      0.824      1.554
REMARK  Name = 
REMARK  9 active torsions:
REMARK  status: ('A' for Active; 'I' for Inactive)
REMARK    1  A    between atoms: C_1  and  N_2
REMARK    2  A    between atoms: C_6  and  C_7
REMARK    3  A    between atoms: C_7  and  C_8
REMARK    4  A    between atoms: C_8  and  C_9
REMARK    5  A    between atoms: C_13  and  N_14
REMARK    6  A    between atoms: C_19  and  C_20
REMARK    7  A    between atoms: C_20  and  C_23
REMARK    8  A    between atoms: C_23  and  O_25
REMARK    9  A    between atoms: C_27  and  C_28
REMARK                            x       y       z     vdW  Elec       q    Type
REMARK                         _______ _______ _______ _____ _____    ______ ____
ROOT
ATOM      1  N   UNL     1       2.123   7.650  19.378  0.00  0.00    +0.000 N 
ATOM      2  C   UNL     1       2.219   6.281  19.846  0.00  0.00    +0.000 C 
ATOM      3  C   UNL     1       3.049   5.606  18.828  0.00  0.00    +0.000 A 
ATOM      4  C   UNL     1       3.511   6.531  17.900  0.00  0.00    +0.000 A 
ATOM      5  C   UNL     1       4.359   6.152  16.871  0.00  0.00    +0.000 A 
ATOM      6  C   UNL     1       4.733   4.792  16.791  0.00  0.00    +0.000 A 
ATOM      7  C   UNL     1       4.214   3.860  17.727  0.00  0.00    +0.000 A 
ATOM      8  C   UNL     1       3.357   4.249  18.759  0.00  0.00    +0.000 A 
ATOM      9  C   UNL     1       2.892   7.850  18.227  0.00  0.00    +0.000 C 
ATOM     10  O   UNL     1       3.065   8.846  17.547  0.00  0.00    +0.000 OA
ENDROOT
BRANCH   1  15
ATOM     11  C   UNL     1      -0.036  10.680  19.877  0.00  0.00    +0.000 A 
ATOM     12  C   UNL     1      -0.400  10.502  21.218  0.00  0.00    +0.000 A 
ATOM     13  C   UNL     1       0.013   9.373  21.947  0.00  0.00    +0.000 A 
ATOM     14  C   UNL     1       0.831   8.392  21.367  0.00  0.00    +0.000 A 
ATOM     15  C   UNL     1       1.235   8.533  20.047  0.00  0.00    +0.000 A 
ATOM     16  C   UNL     1       0.762   9.658  19.340  0.00  0.00    +0.000 A 
BRANCH  11  17
ATOM     17  C   UNL     1      -0.468  11.934  18.950  0.00  0.00    +0.000 C 
ATOM     18  C   UNL     1       0.660  12.950  18.630  0.00  0.00    +0.000 C 
ATOM     19  O   UNL     1      -0.038  14.037  19.265  0.00  0.00    +0.000 OA
ATOM     20  C   UNL     1      -1.119  13.166  19.657  0.00  0.00    +0.000 C 
BRANCH  17  21
ATOM     21  C   UNL     1      -1.250  11.477  17.691  0.00  0.00    +0.000 C 
BRANCH  21  27
ATOM     22  C   UNL     1      -3.423  10.919  15.458  0.00  0.00    +0.000 C 
ATOM     23  N   UNL     1      -3.657  11.238  16.841  0.00  0.00    +0.000 N 
ATOM     24  C   UNL     1      -4.889  11.373  17.408  0.00  0.00    +0.000 A 
ATOM     25  N   UNL     1      -4.756  11.699  18.670  0.00  0.00    +0.000 NA
ATOM     26  N   UNL     1      -3.413  11.795  18.935  0.00  0.00    +0.000 NA
ATOM     27  C   UNL     1      -2.743  11.489  17.838  0.00  0.00    +0.000 A 
ENDBRANCH  21  27
ENDBRANCH  17  21
ENDBRANCH  11  17
ENDBRANCH   1  15
BRANCH   8  28
ATOM     28  C   UNL     1       2.771   3.237  19.714  0.00  0.00    +0.000 C 
ATOM     29  F   UNL     1       1.419   3.125  19.646  0.00  0.00    +0.000 F 
ATOM     30  F   UNL     1       3.265   1.988  19.497  0.00  0.00    +0.000 F 
ATOM     31  F   UNL     1       3.050   3.534  21.013  0.00  0.00    +0.000 F 
ENDBRANCH   8  28
BRANCH   6  32
ATOM     32  C   UNL     1       5.690   4.283  15.724  0.00  0.00    +0.000 C 
ATOM     33  F   UNL     1       5.680   2.910  15.662  0.00  0.00    +0.000 F 
ATOM     34  F   UNL     1       5.301   4.661  14.460  0.00  0.00    +0.000 F 
BRANCH  32  35
ATOM     35  C   UNL     1       7.144   4.762  15.959  0.00  0.00    +0.000 C 
ATOM     36  O   UNL     1       7.869   4.442  16.889  0.00  0.00    +0.000 OA
BRANCH  35  37
ATOM     37  O   UNL     1       7.593   5.563  14.945  0.00  0.00    +0.000 OA
ATOM     38  H   UNL     1       8.515   5.342  14.689  0.00  0.00    +0.000 HD
ENDBRANCH  35  37
ENDBRANCH  32  35
ENDBRANCH   6  32
TORSDOF 8
ENDMDL
MODEL 8
REMARK VINA RESULT:      -9.4      4.119      9.011
REMARK  Name = 
REMARK  9 active torsions:
REMARK  status: ('A' for Active; 'I' for Inactive)
REMARK    1  A    between atoms: C_1  and  N_2
REMARK    2  A    between atoms: C_6  and  C_7
REMARK    3  A    between atoms: C_7  and  C_8
REMARK    4  A    between atoms: C_8  and  C_9
REMARK    5  A    between atoms: C_13  and  N_14
REMARK    6  A    between atoms: C_19  and  C_20
REMARK    7  A    between atoms: C_20  and  C_23
REMARK    8  A    between atoms: C_23  and  O_25
REMARK    9  A    between atoms: C_27  and  C_28
REMARK                            x       y       z     vdW  Elec       q    Type
REMARK                         _______ _______ _______ _____ _____    ______ ____
ROOT
ATOM      1  N   UNL     1       2.345   7.204  19.431  0.00  0.00    +0.000 N 
ATOM      2  C   UNL     1       1.634   7.575  20.639  0.00  0.00    +0.000 C 
ATOM      3  C   UNL     1       0.983   8.857  20.299  0.00  0.00    +0.000 A 
ATOM      4  C   UNL     1       1.191   9.155  18.959  0.00  0.00    +0.000 A 
ATOM      5  C   UNL     1       0.632  10.285  18.380  0.00  0.00    +0.000 A 
ATOM      6  C   UNL     1      -0.150  11.129  19.201  0.00  0.00    +0.000 A 
ATOM      7  C   UNL     1      -0.311  10.823  20.578  0.00  0.00    +0.000 A 
ATOM      8  C   UNL     1       0.258   9.684  21.154  0.00  0.00    +0.000 A 
ATOM      9  C   UNL     1       2.097   8.111  18.395  0.00  0.00    +0.000 C 
ATOM     10  O   UNL     1       2.507   8.142  17.248  0.00  0.00    +0.000 OA
ENDROOT
BRANCH   1  15
ATOM     11  C   UNL     1       5.505   5.257  18.869  0.00  0.00    +0.000 A 
ATOM     12  C   UNL     1       5.099   3.996  19.326  0.00  0.00    +0.000 A 
ATOM     13  C   UNL     1       3.817   3.788  19.863  0.00  0.00    +0.000 A 
ATOM     14  C   UNL     1       2.882   4.831  19.938  0.00  0.00    +0.000 A 
ATOM     15  C   UNL     1       3.229   6.094  19.480  0.00  0.00    +0.000 A 
ATOM     16  C   UNL     1       4.540   6.268  18.989  0.00  0.00    +0.000 A 
BRANCH  11  17
ATOM     17  C   UNL     1       6.959   5.602  18.246  0.00  0.00    +0.000 C 
ATOM     18  C   UNL     1       8.036   6.051  19.269  0.00  0.00    +0.000 C 
ATOM     19  O   UNL     1       8.202   7.335  18.640  0.00  0.00    +0.000 OA
ATOM     20  C   UNL     1       7.176   7.037  17.671  0.00  0.00    +0.000 C 
BRANCH  17  21
ATOM     21  C   UNL     1       7.455   4.485  17.291  0.00  0.00    +0.000 C 
BRANCH  21  27
ATOM     22  C   UNL     1       4.732   3.522  15.996  0.00  0.00    +0.000 C 
ATOM     23  N   UNL     1       5.816   4.203  15.340  0.00  0.00    +0.000 N 
ATOM     24  C   UNL     1       5.843   4.524  14.016  0.00  0.00    +0.000 A 
ATOM     25  N   UNL     1       6.981   5.105  13.728  0.00  0.00    +0.000 NA
ATOM     26  N   UNL     1       7.724   5.153  14.881  0.00  0.00    +0.000 NA
ATOM     27  C   UNL     1       7.012   4.634  15.865  0.00  0.00    +0.000 A 
ENDBRANCH  21  27
ENDBRANCH  17  21
ENDBRANCH  11  17
ENDBRANCH   1  15
BRANCH   8  28
ATOM     28  C   UNL     1       0.121   9.401  22.630  0.00  0.00    +0.000 C 
ATOM     29  F   UNL     1      -0.588   8.278  22.918  0.00  0.00    +0.000 F 
ATOM     30  F   UNL     1       1.332   9.249  23.233  0.00  0.00    +0.000 F 
ATOM     31  F   UNL     1      -0.507  10.411  23.292  0.00  0.00    +0.000 F 
ENDBRANCH   8  28
BRANCH   6  32
ATOM     32  C   UNL     1      -0.838  12.369  18.655  0.00  0.00    +0.000 C 
ATOM     33  F   UNL     1      -1.175  13.236  19.666  0.00  0.00    +0.000 F 
ATOM     34  F   UNL     1       0.001  13.117  17.861  0.00  0.00    +0.000 F 
BRANCH  32  35
ATOM     35  C   UNL     1      -2.112  12.028  17.844  0.00  0.00    +0.000 C 
ATOM     36  O   UNL     1      -3.233  11.850  18.299  0.00  0.00    +0.000 OA
BRANCH  35  37
ATOM     37  O   UNL     1      -1.877  12.008  16.497  0.00  0.00    +0.000 OA
ATOM     38  H   UNL     1      -2.661  12.306  15.986  0.00  0.00    +0.000 HD
ENDBRANCH  35  37
ENDBRANCH  32  35
ENDBRANCH   6  32
TORSDOF 8
ENDMDL
MODEL 9
REMARK VINA RESULT:      -9.4      1.835      2.529
REMARK  Name = 
REMARK  9 active torsions:
REMARK  status: ('A' for Active; 'I' for Inactive)
REMARK    1  A    between atoms: C_1  and  N_2
REMARK    2  A    between atoms: C_6  and  C_7
REMARK    3  A    between atoms: C_7  and  C_8
REMARK    4  A    between atoms: C_8  and  C_9
REMARK    5  A    between atoms: C_13  and  N_14
REMARK    6  A    between atoms: C_19  and  C_20
REMARK    7  A    between atoms: C_20  and  C_23
REMARK    8  A    between atoms: C_23  and  O_25
REMARK    9  A    between atoms: C_27  and  C_28
REMARK                            x       y       z     vdW  Elec       q    Type
REMARK                         _______ _______ _______ _____ _____    ______ ____
ROOT
ATOM      1  N   UNL     1       1.575   8.728  19.426  0.00  0.00    +0.000 N 
ATOM      2  C   UNL     1       1.661   7.426  20.056  0.00  0.00    +0.000 C 
ATOM      3  C   UNL     1       2.521   6.639  19.148  0.00  0.00    +0.000 A 
ATOM      4  C   UNL     1       3.005   7.449  18.129  0.00  0.00    +0.000 A 
ATOM      5  C   UNL     1       3.882   6.955  17.175  0.00  0.00    +0.000 A 
ATOM      6  C   UNL     1       4.261   5.597  17.267  0.00  0.00    +0.000 A 
ATOM      7  C   UNL     1       3.718   4.780  18.294  0.00  0.00    +0.000 A 
ATOM      8  C   UNL     1       2.833   5.285  19.249  0.00  0.00    +0.000 A 
ATOM      9  C   UNL     1       2.374   8.794  18.279  0.00  0.00    +0.000 C 
ATOM     10  O   UNL     1       2.563   9.703  17.490  0.00  0.00    +0.000 OA
ENDROOT
BRANCH   1  15
ATOM     11  C   UNL     1      -1.411  11.002  19.524  0.00  0.00    +0.000 A 
ATOM     12  C   UNL     1      -1.181  11.655  20.742  0.00  0.00    +0.000 A 
ATOM     13  C   UNL     1      -0.083  11.323  21.556  0.00  0.00    +0.000 A 
ATOM     14  C   UNL     1       0.840  10.341  21.167  0.00  0.00    +0.000 A 
ATOM     15  C   UNL     1       0.667   9.680  19.960  0.00  0.00    +0.000 A 
ATOM     16  C   UNL     1      -0.470  10.014  19.196  0.00  0.00    +0.000 A 
BRANCH  11  17
ATOM     17  C   UNL     1      -2.647  11.301  18.523  0.00  0.00    +0.000 C 
ATOM     18  C   UNL     1      -3.426  10.053  18.029  0.00  0.00    +0.000 C 
ATOM     19  O   UNL     1      -3.114  10.316  16.648  0.00  0.00    +0.000 OA
ATOM     20  C   UNL     1      -2.322  11.467  17.004  0.00  0.00    +0.000 C 
BRANCH  17  21
ATOM     21  C   UNL     1      -3.572  12.419  19.069  0.00  0.00    +0.000 C 
BRANCH  21  27
ATOM     22  C   UNL     1      -6.017  12.587  17.066  0.00  0.00    +0.000 C 
ATOM     23  N   UNL     1      -6.028  12.085  18.414  0.00  0.00    +0.000 N 
ATOM     24  C   UNL     1      -7.133  11.614  19.057  0.00  0.00    +0.000 A 
ATOM     25  N   UNL     1      -6.814  11.267  20.279  0.00  0.00    +0.000 NA
ATOM     26  N   UNL     1      -5.478  11.530  20.449  0.00  0.00    +0.000 NA
ATOM     27  C   UNL     1      -4.991  11.998  19.314  0.00  0.00    +0.000 A 
ENDBRANCH  21  27
ENDBRANCH  17  21
ENDBRANCH  11  17
ENDBRANCH   1  15
BRANCH   8  28
ATOM     28  C   UNL     1       2.224   4.391  20.302  0.00  0.00    +0.000 C 
ATOM     29  F   UNL     1       2.645   3.100  20.248  0.00  0.00    +0.000 F 
ATOM     30  F   UNL     1       2.502   4.826  21.561  0.00  0.00    +0.000 F 
ATOM     31  F   UNL     1       0.867   4.339  20.211  0.00  0.00    +0.000 F 
ENDBRANCH   8  28
BRANCH   6  32
ATOM     32  C   UNL     1       5.247   4.970  16.295  0.00  0.00    +0.000 C 
ATOM     33  F   UNL     1       5.051   3.614  16.194  0.00  0.00    +0.000 F 
ATOM     34  F   UNL     1       5.056   5.416  15.007  0.00  0.00    +0.000 F 
BRANCH  32  35
ATOM     35  C   UNL     1       6.719   5.233  16.696  0.00  0.00    +0.000 C 
ATOM     36  O   UNL     1       7.402   6.189  16.356  0.00  0.00    +0.000 OA
BRANCH  35  37
ATOM     37  O   UNL     1       7.194   4.290  17.565  0.00  0.00    +0.000 OA
ATOM     38  H   UNL     1       6.613   3.499  17.597  0.00  0.00    +0.000 HD
ENDBRANCH  35  37
ENDBRANCH  32  35
ENDBRANCH   6  32
TORSDOF 8
ENDMDL
