MODEL 1
REMARK VINA RESULT:      -8.4      0.000      0.000
REMARK  Name = 
REMARK  9 active torsions:
REMARK  status: ('A' for Active; 'I' for Inactive)
REMARK    1  A    between atoms: C_1  and  C_2
REMARK    2  A    between atoms: C_2  and  S_3
REMARK    3  A    between atoms: C_2  and  C_10
REMARK    4  A    between atoms: S_3  and  C_4
REMARK    5  A    between atoms: N_8  and  C_9
REMARK    6  A    between atoms: C_14  and  N_15
REMARK    7  A    between atoms: C_16  and  C_18
REMARK    8  A    between atoms: C_20  and  C_21
REMARK    9  A    between atoms: C_27  and  N_28
REMARK                            x       y       z     vdW  Elec       q    Type
REMARK                         _______ _______ _______ _____ _____    ______ ____
ROOT
ATOM      1  N   UNL     1       2.230   7.416  18.948  0.00  0.00    +0.000 N 
ATOM      2  C   UNL     1       1.786   8.591  18.356  0.00  0.00    +0.000 C 
ATOM      3  O   UNL     1       1.675   8.802  17.150  0.00  0.00    +0.000 OA
ATOM      4  H   UNL     1       2.220   7.413  19.965  0.00  0.00    +0.000 HD
ENDROOT
BRANCH   1   9
ATOM      5  C   UNL     1       4.250   5.065  16.878  0.00  0.00    +0.000 A 
ATOM      6  C   UNL     1       3.497   3.888  17.019  0.00  0.00    +0.000 A 
ATOM      7  C   UNL     1       2.299   3.893  17.720  0.00  0.00    +0.000 A 
ATOM      8  C   UNL     1       1.854   5.062  18.329  0.00  0.00    +0.000 A 
ATOM      9  C   UNL     1       2.616   6.230  18.286  0.00  0.00    +0.000 A 
ATOM     10  C   UNL     1       3.815   6.225  17.556  0.00  0.00    +0.000 A 
BRANCH   5  12
ATOM     11  C   UNL     1       5.447   4.016  14.905  0.00  0.00    +0.000 C 
ATOM     12  C   UNL     1       5.484   5.109  15.989  0.00  0.00    +0.000 C 
BRANCH  12  13
ATOM     13  S   UNL     1       7.015   4.838  16.930  0.00  0.00    +0.000 S 
BRANCH  13  14
ATOM     14  C   UNL     1       7.471   6.419  17.444  0.00  0.00    +0.000 A 
ATOM     15  N   UNL     1       7.461   7.543  16.766  0.00  0.00    +0.000 NA
ATOM     16  N   UNL     1       8.010   8.520  17.575  0.00  0.00    +0.000 NA
ATOM     17  C   UNL     1       8.338   7.960  18.717  0.00  0.00    +0.000 A 
ATOM     18  N   UNL     1       7.994   6.642  18.684  0.00  0.00    +0.000 N 
ATOM     19  C   UNL     1       8.148   5.695  19.755  0.00  0.00    +0.000 C 
ENDBRANCH  13  14
ENDBRANCH  12  13
ENDBRANCH   5  12
ENDBRANCH   1   9
BRANCH   2  20
ATOM     20  C   UNL     1       1.375   9.665  19.329  0.00  0.00    +0.000 A 
ATOM     21  N   UNL     1       0.807   9.208  20.488  0.00  0.00    +0.000 NA
ATOM     22  C   UNL     1       0.370  10.141  21.381  0.00  0.00    +0.000 A 
ATOM     23  C   UNL     1       0.499  11.511  21.136  0.00  0.00    +0.000 A 
ATOM     24  C   UNL     1       1.086  11.946  19.949  0.00  0.00    +0.000 A 
ATOM     25  C   UNL     1       1.510  11.026  18.992  0.00  0.00    +0.000 A 
BRANCH  22  26
ATOM     26  C   UNL     1      -0.284   9.693  22.682  0.00  0.00    +0.000 C 
ATOM     27  F   UNL     1       0.593   9.487  23.702  0.00  0.00    +0.000 F 
ATOM     28  F   UNL     1      -1.193  10.599  23.147  0.00  0.00    +0.000 F 
ATOM     29  F   UNL     1      -0.974   8.525  22.537  0.00  0.00    +0.000 F 
ENDBRANCH  22  26
BRANCH  25  30
ATOM     30  N   UNL     1       2.226  11.498  17.879  0.00  0.00    +0.000 N 
ATOM     31  H   UNL     1       3.187  11.179  17.814  0.00  0.00    +0.000 HD
ATOM     32  H   UNL     1       2.146  12.520  17.778  0.00  0.00    +0.000 HD
ENDBRANCH  25  30
ENDBRANCH   2  20
TORSDOF 7
ENDMDL
MODEL 2
REMARK VINA RESULT:      -8.2      4.858      8.901
REMARK  Name = 
REMARK  9 active torsions:
REMARK  status: ('A' for Active; 'I' for Inactive)
REMARK    1  A    between atoms: C_1  and  C_2
REMARK    2  A    between atoms: C_2  and  S_3
REMARK    3  A    between atoms: C_2  and  C_10
REMARK    4  A    between atoms: S_3  and  C_4
REMARK    5  A    between atoms: N_8  and  C_9
REMARK    6  A    between atoms: C_14  and  N_15
REMARK    7  A    between atoms: C_16  and  C_18
REMARK    8  A    between atoms: C_20  and  C_21
REMARK    9  A    between atoms: C_27  and  N_28
REMARK                            x       y       z     vdW  Elec       q    Type
REMARK                         _______ _______ _______ _____ _____    ______ ____
ROOT
ATOM      1  N   UNL     1       2.353   7.534  19.469  0.00  0.00    +0.000 N 
ATOM      2  C   UNL     1       2.416   6.166  19.696  0.00  0.00    +0.000 C 
ATOM      3  O   UNL     1       1.709   5.522  20.468  0.00  0.00    +0.000 OA
ATOM      4  H   UNL     1       2.997   7.886  18.764  0.00  0.00    +0.000 HD
ENDROOT
BRANCH   1   9
ATOM      5  C   UNL     1      -0.002  10.404  19.802  0.00  0.00    +0.000 A 
ATOM      6  C   UNL     1      -0.407  10.249  21.138  0.00  0.00    +0.000 A 
ATOM      7  C   UNL     1       0.151   9.261  21.938  0.00  0.00    +0.000 A 
ATOM      8  C   UNL     1       1.090   8.384  21.406  0.00  0.00    +0.000 A 
ATOM      9  C   UNL     1       1.454   8.448  20.060  0.00  0.00    +0.000 A 
ATOM     10  C   UNL     1       0.905   9.464  19.263  0.00  0.00    +0.000 A 
BRANCH   5  12
ATOM     11  C   UNL     1      -0.011  12.924  19.524  0.00  0.00    +0.000 C 
ATOM     12  C   UNL     1      -0.492  11.573  18.961  0.00  0.00    +0.000 C 
BRANCH  12  13
ATOM     13  S   UNL     1      -2.307  11.663  18.907  0.00  0.00    +0.000 S 
BRANCH  13  14
ATOM     14  C   UNL     1      -2.711  10.966  17.383  0.00  0.00    +0.000 A 
ATOM     15  N   UNL     1      -1.976  10.213  16.599  0.00  0.00    +0.000 NA
ATOM     16  N   UNL     1      -2.701   9.985  15.444  0.00  0.00    +0.000 NA
ATOM     17  C   UNL     1      -3.853  10.607  15.562  0.00  0.00    +0.000 A 
ATOM     18  N   UNL     1      -3.908  11.217  16.779  0.00  0.00    +0.000 N 
ATOM     19  C   UNL     1      -5.018  11.965  17.307  0.00  0.00    +0.000 C 
ENDBRANCH  13  14
ENDBRANCH  12  13
ENDBRANCH   5  12
ENDBRANCH   1   9
BRANCH   2  20
ATOM     20  C   UNL     1       3.438   5.440  18.861  0.00  0.00    +0.000 A 
ATOM     21  N   UNL     1       4.741   5.752  19.140  0.00  0.00    +0.000 NA
ATOM     22  C   UNL     1       5.703   5.161  18.377  0.00  0.00    +0.000 A 
ATOM     23  C   UNL     1       5.384   4.264  17.353  0.00  0.00    +0.000 A 
ATOM     24  C   UNL     1       4.047   3.962  17.095  0.00  0.00    +0.000 A 
ATOM     25  C   UNL     1       3.031   4.575  17.826  0.00  0.00    +0.000 A 
BRANCH  22  26
ATOM     26  C   UNL     1       7.171   5.481  18.630  0.00  0.00    +0.000 C 
ATOM     27  F   UNL     1       7.580   6.667  18.102  0.00  0.00    +0.000 F 
ATOM     28  F   UNL     1       7.467   5.543  19.961  0.00  0.00    +0.000 F 
ATOM     29  F   UNL     1       8.004   4.532  18.115  0.00  0.00    +0.000 F 
ENDBRANCH  22  26
BRANCH  25  30
ATOM     30  N   UNL     1       1.710   4.134  17.635  0.00  0.00    +0.000 N 
ATOM     31  H   UNL     1       1.010   4.866  17.600  0.00  0.00    +0.000 HD
ATOM     32  H   UNL     1       1.458   3.383  18.294  0.00  0.00    +0.000 HD
ENDBRANCH  25  30
ENDBRANCH   2  20
TORSDOF 7
ENDMDL
MODEL 3
REMARK VINA RESULT:      -8.0      0.794      1.490
REMARK  Name = 
REMARK  9 active torsions:
REMARK  status: ('A' for Active; 'I' for Inactive)
REMARK    1  A    between atoms: C_1  and  C_2
REMARK    2  A    between atoms: C_2  and  S_3
REMARK    3  A    between atoms: C_2  and  C_10
REMARK    4  A    between atoms: S_3  and  C_4
REMARK    5  A    between atoms: N_8  and  C_9
REMARK    6  A    between atoms: C_14  and  N_15
REMARK    7  A    between atoms: C_16  and  C_18
REMARK    8  A    between atoms: C_20  and  C_21
REMARK    9  A    between atoms: C_27  and  N_28
REMARK                            x       y       z     vdW  Elec       q    Type
REMARK                         _______ _______ _______ _____ _____    ______ ____
ROOT
ATOM      1  N   UNL     1       2.436   7.441  18.957  0.00  0.00    +0.000 N 
ATOM      2  C   UNL     1       1.990   8.604  18.344  0.00  0.00    +0.000 C 
ATOM      3  O   UNL     1       1.961   8.825  17.135  0.00  0.00    +0.000 OA
ATOM      4  H   UNL     1       2.350   7.425  19.971  0.00  0.00    +0.000 HD
ENDROOT
BRANCH   1   9
ATOM      5  C   UNL     1       4.485   5.283  16.713  0.00  0.00    +0.000 A 
ATOM      6  C   UNL     1       4.003   4.013  17.069  0.00  0.00    +0.000 A 
ATOM      7  C   UNL     1       2.960   3.879  17.976  0.00  0.00    +0.000 A 
ATOM      8  C   UNL     1       2.412   5.007  18.577  0.00  0.00    +0.000 A 
ATOM      9  C   UNL     1       2.923   6.280  18.317  0.00  0.00    +0.000 A 
ATOM     10  C   UNL     1       3.960   6.411  17.380  0.00  0.00    +0.000 A 
BRANCH   5  12
ATOM     11  C   UNL     1       5.089   4.750  14.309  0.00  0.00    +0.000 C 
ATOM     12  C   UNL     1       5.520   5.452  15.611  0.00  0.00    +0.000 C 
BRANCH  12  13
ATOM     13  S   UNL     1       7.127   4.733  16.066  0.00  0.00    +0.000 S 
BRANCH  13  14
ATOM     14  C   UNL     1       7.315   5.156  17.726  0.00  0.00    +0.000 A 
ATOM     15  N   UNL     1       7.207   4.393  18.789  0.00  0.00    +0.000 NA
ATOM     16  N   UNL     1       7.344   5.207  19.899  0.00  0.00    +0.000 NA
ATOM     17  C   UNL     1       7.529   6.437  19.476  0.00  0.00    +0.000 A 
ATOM     18  N   UNL     1       7.541   6.444  18.113  0.00  0.00    +0.000 N 
ATOM     19  C   UNL     1       7.759   7.588  17.269  0.00  0.00    +0.000 C 
ENDBRANCH  13  14
ENDBRANCH  12  13
ENDBRANCH   5  12
ENDBRANCH   1   9
BRANCH   2  20
ATOM     20  C   UNL     1       1.460   9.647  19.292  0.00  0.00    +0.000 A 
ATOM     21  N   UNL     1       0.905   9.155  20.442  0.00  0.00    +0.000 NA
ATOM     22  C   UNL     1       0.365  10.055  21.312  0.00  0.00    +0.000 A 
ATOM     23  C   UNL     1       0.378  11.428  21.052  0.00  0.00    +0.000 A 
ATOM     24  C   UNL     1       0.954  11.900  19.874  0.00  0.00    +0.000 A 
ATOM     25  C   UNL     1       1.483  11.011  18.941  0.00  0.00    +0.000 A 
BRANCH  22  26
ATOM     26  C   UNL     1      -0.281   9.565  22.602  0.00  0.00    +0.000 C 
ATOM     27  F   UNL     1      -0.915   8.366  22.485  0.00  0.00    +0.000 F 
ATOM     28  F   UNL     1       0.625   9.412  23.612  0.00  0.00    +0.000 F 
ATOM     29  F   UNL     1      -1.214  10.440  23.078  0.00  0.00    +0.000 F 
ENDBRANCH  22  26
BRANCH  25  30
ATOM     30  N   UNL     1       2.183  11.533  17.840  0.00  0.00    +0.000 N 
ATOM     31  H   UNL     1       2.835  12.280  18.055  0.00  0.00    +0.000 HD
ATOM     32  H   UNL     1       1.551  11.776  17.064  0.00  0.00    +0.000 HD
ENDBRANCH  25  30
ENDBRANCH   2  20
TORSDOF 7
ENDMDL
MODEL 4
REMARK VINA RESULT:      -7.8      2.001      3.040
REMARK  Name = 
REMARK  9 active torsions:
REMARK  status: ('A' for Active; 'I' for Inactive)
REMARK    1  A    between atoms: C_1  and  C_2
REMARK    2  A    between atoms: C_2  and  S_3
REMARK    3  A    between atoms: C_2  and  C_10
REMARK    4  A    between atoms: S_3  and  C_4
REMARK    5  A    between atoms: N_8  and  C_9
REMARK    6  A    between atoms: C_14  and  N_15
REMARK    7  A    between atoms: C_16  and  C_18
REMARK    8  A    between atoms: C_20  and  C_21
REMARK    9  A    between atoms: C_27  and  N_28
REMARK                            x       y       z     vdW  Elec       q    Type
REMARK                         _______ _______ _______ _____ _____    ______ ____
ROOT
ATOM      1  N   UNL     1       2.329   7.231  18.959  0.00  0.00    +0.000 N 
ATOM      2  C   UNL     1       2.036   8.432  18.327  0.00  0.00    +0.000 C 
ATOM      3  O   UNL     1       2.135   8.664  17.124  0.00  0.00    +0.000 OA
ATOM      4  H   UNL     1       2.150   7.215  19.961  0.00  0.00    +0.000 HD
ENDROOT
BRANCH   1   9
ATOM      5  C   UNL     1       4.640   4.723  17.455  0.00  0.00    +0.000 A 
ATOM      6  C   UNL     1       3.748   3.666  17.213  0.00  0.00    +0.000 A 
ATOM      7  C   UNL     1       2.390   3.811  17.467  0.00  0.00    +0.000 A 
ATOM      8  C   UNL     1       1.908   4.998  18.009  0.00  0.00    +0.000 A 
ATOM      9  C   UNL     1       2.774   6.039  18.347  0.00  0.00    +0.000 A 
ATOM     10  C   UNL     1       4.141   5.896  18.064  0.00  0.00    +0.000 A 
BRANCH   5  12
ATOM     11  C   UNL     1       7.048   5.007  18.196  0.00  0.00    +0.000 C 
ATOM     12  C   UNL     1       6.101   4.632  17.041  0.00  0.00    +0.000 C 
BRANCH  12  13
ATOM     13  S   UNL     1       6.496   5.762  15.673  0.00  0.00    +0.000 S 
BRANCH  13  14
ATOM     14  C   UNL     1       6.290   4.793  14.262  0.00  0.00    +0.000 A 
ATOM     15  N   UNL     1       5.365   3.899  14.003  0.00  0.00    +0.000 NA
ATOM     16  N   UNL     1       5.679   3.318  12.788  0.00  0.00    +0.000 NA
ATOM     17  C   UNL     1       6.785   3.875  12.349  0.00  0.00    +0.000 A 
ATOM     18  N   UNL     1       7.190   4.826  13.237  0.00  0.00    +0.000 N 
ATOM     19  C   UNL     1       8.333   5.687  13.100  0.00  0.00    +0.000 C 
ENDBRANCH  13  14
ENDBRANCH  12  13
ENDBRANCH   5  12
ENDBRANCH   1   9
BRANCH   2  20
ATOM     20  C   UNL     1       1.511   9.508  19.240  0.00  0.00    +0.000 A 
ATOM     21  N   UNL     1       0.948   9.056  20.403  0.00  0.00    +0.000 NA
ATOM     22  C   UNL     1       0.411   9.987  21.242  0.00  0.00    +0.000 A 
ATOM     23  C   UNL     1       0.436  11.350  20.940  0.00  0.00    +0.000 A 
ATOM     24  C   UNL     1       1.021  11.782  19.750  0.00  0.00    +0.000 A 
ATOM     25  C   UNL     1       1.546  10.860  18.847  0.00  0.00    +0.000 A 
BRANCH  22  26
ATOM     26  C   UNL     1      -0.243   9.541  22.544  0.00  0.00    +0.000 C 
ATOM     27  F   UNL     1      -1.168  10.415  23.027  0.00  0.00    +0.000 F 
ATOM     28  F   UNL     1      -0.888   8.345  22.420  0.00  0.00    +0.000 F 
ATOM     29  F   UNL     1       0.667   9.363  23.545  0.00  0.00    +0.000 F 
ENDBRANCH  22  26
BRANCH  25  30
ATOM     30  N   UNL     1       2.254  11.343  17.733  0.00  0.00    +0.000 N 
ATOM     31  H   UNL     1       2.703  12.243  17.861  0.00  0.00    +0.000 HD
ATOM     32  H   UNL     1       1.688  11.307  16.873  0.00  0.00    +0.000 HD
ENDBRANCH  25  30
ENDBRANCH   2  20
TORSDOF 7
ENDMDL
MODEL 5
REMARK VINA RESULT:      -7.7      1.336      1.794
REMARK  Name = 
REMARK  9 active torsions:
REMARK  status: ('A' for Active; 'I' for Inactive)
REMARK    1  A    between atoms: C_1  and  C_2
REMARK    2  A    between atoms: C_2  and  S_3
REMARK    3  A    between atoms: C_2  and  C_10
REMARK    4  A    between atoms: S_3  and  C_4
REMARK    5  A    between atoms: N_8  and  C_9
REMARK    6  A    between atoms: C_14  and  N_15
REMARK    7  A    between atoms: C_16  and  C_18
REMARK    8  A    between atoms: C_20  and  C_21
REMARK    9  A    between atoms: C_27  and  N_28
REMARK                            x       y       z     vdW  Elec       q    Type
REMARK                         _______ _______ _______ _____ _____    ______ ____
ROOT
ATOM      1  N   UNL     1       1.751   8.292  20.094  0.00  0.00    +0.000 N 
ATOM      2  C   UNL     1       1.290   9.178  19.129  0.00  0.00    +0.000 C 
ATOM      3  O   UNL     1       1.111   8.930  17.939  0.00  0.00    +0.000 OA
ATOM      4  H   UNL     1       1.801   8.668  21.038  0.00  0.00    +0.000 HD
ENDROOT
BRANCH   1   9
ATOM      5  C   UNL     1       3.289   5.242  18.603  0.00  0.00    +0.000 A 
ATOM      6  C   UNL     1       2.856   4.265  19.515  0.00  0.00    +0.000 A 
ATOM      7  C   UNL     1       2.003   4.598  20.560  0.00  0.00    +0.000 A 
ATOM      8  C   UNL     1       1.604   5.919  20.736  0.00  0.00    +0.000 A 
ATOM      9  C   UNL     1       2.082   6.933  19.904  0.00  0.00    +0.000 A 
ATOM     10  C   UNL     1       2.924   6.586  18.836  0.00  0.00    +0.000 A 
BRANCH   5  12
ATOM     11  C   UNL     1       3.548   3.596  16.692  0.00  0.00    +0.000 C 
ATOM     12  C   UNL     1       4.098   4.865  17.371  0.00  0.00    +0.000 C 
BRANCH  12  13
ATOM     13  S   UNL     1       5.834   4.512  17.775  0.00  0.00    +0.000 S 
BRANCH  13  14
ATOM     14  C   UNL     1       6.604   6.051  17.678  0.00  0.00    +0.000 A 
ATOM     15  N   UNL     1       6.429   7.007  16.796  0.00  0.00    +0.000 NA
ATOM     16  N   UNL     1       7.345   8.004  17.078  0.00  0.00    +0.000 NA
ATOM     17  C   UNL     1       8.047   7.623  18.121  0.00  0.00    +0.000 A 
ATOM     18  N   UNL     1       7.596   6.408  18.544  0.00  0.00    +0.000 N 
ATOM     19  C   UNL     1       8.076   5.670  19.681  0.00  0.00    +0.000 C 
ENDBRANCH  13  14
ENDBRANCH  12  13
ENDBRANCH   5  12
ENDBRANCH   1   9
BRANCH   2  20
ATOM     20  C   UNL     1       0.951  10.550  19.651  0.00  0.00    +0.000 A 
ATOM     21  N   UNL     1       0.186  10.565  20.785  0.00  0.00    +0.000 NA
ATOM     22  C   UNL     1      -0.191  11.782  21.270  0.00  0.00    +0.000 A 
ATOM     23  C   UNL     1       0.189  12.972  20.645  0.00  0.00    +0.000 A 
ATOM     24  C   UNL     1       0.973  12.926  19.493  0.00  0.00    +0.000 A 
ATOM     25  C   UNL     1       1.347  11.702  18.943  0.00  0.00    +0.000 A 
BRANCH  22  26
ATOM     26  C   UNL     1      -1.057  11.860  22.521  0.00  0.00    +0.000 C 
ATOM     27  F   UNL     1      -0.822  12.959  23.290  0.00  0.00    +0.000 F 
ATOM     28  F   UNL     1      -2.390  11.884  22.231  0.00  0.00    +0.000 F 
ATOM     29  F   UNL     1      -0.881  10.783  23.340  0.00  0.00    +0.000 F 
ENDBRANCH  22  26
BRANCH  25  30
ATOM     30  N   UNL     1       2.256  11.699  17.871  0.00  0.00    +0.000 N 
ATOM     31  H   UNL     1       2.509  10.783  17.518  0.00  0.00    +0.000 HD
ATOM     32  H   UNL     1       3.080  12.285  18.066  0.00  0.00    +0.000 HD
ENDBRANCH  25  30
ENDBRANCH   2  20
TORSDOF 7
ENDMDL
MODEL 6
REMARK VINA RESULT:      -7.7      4.341      8.400
REMARK  Name = 
REMARK  9 active torsions:
REMARK  status: ('A' for Active; 'I' for Inactive)
REMARK    1  A    between atoms: C_1  and  C_2
REMARK    2  A    between atoms: C_2  and  S_3
REMARK    3  A    between atoms: C_2  and  C_10
REMARK    4  A    between atoms: S_3  and  C_4
REMARK    5  A    between atoms: N_8  and  C_9
REMARK    6  A    between atoms: C_14  and  N_15
REMARK    7  A    between atoms: C_16  and  C_18
REMARK    8  A    between atoms: C_20  and  C_21
REMARK    9  A    between atoms: C_27  and  N_28
REMARK                            x       y       z     vdW  Elec       q    Type
REMARK                         _______ _______ _______ _____ _____    ______ ____
ROOT
ATOM      1  N   UNL     1       2.342   7.517  19.867  0.00  0.00    +0.000 N 
ATOM      2  C   UNL     1       2.288   6.131  19.939  0.00  0.00    +0.000 C 
ATOM      3  O   UNL     1       1.506   5.467  20.616  0.00  0.00    +0.000 OA
ATOM      4  H   UNL     1       3.035   7.890  19.222  0.00  0.00    +0.000 HD
ENDROOT
BRANCH   1   9
ATOM      5  C   UNL     1      -0.109  10.276  20.390  0.00  0.00    +0.000 A 
ATOM      6  C   UNL     1      -0.263  10.221  21.785  0.00  0.00    +0.000 A 
ATOM      7  C   UNL     1       0.493   9.340  22.548  0.00  0.00    +0.000 A 
ATOM      8  C   UNL     1       1.382   8.469  21.926  0.00  0.00    +0.000 A 
ATOM      9  C   UNL     1       1.499   8.432  20.536  0.00  0.00    +0.000 A 
ATOM     10  C   UNL     1       0.751   9.342  19.773  0.00  0.00    +0.000 A 
BRANCH   5  12
ATOM     11  C   UNL     1      -1.574  10.721  18.370  0.00  0.00    +0.000 C 
ATOM     12  C   UNL     1      -0.817  11.337  19.561  0.00  0.00    +0.000 C 
BRANCH  12  13
ATOM     13  S   UNL     1       0.346  12.542  18.855  0.00  0.00    +0.000 S 
BRANCH  13  14
ATOM     14  C   UNL     1       0.886  13.447  20.220  0.00  0.00    +0.000 A 
ATOM     15  N   UNL     1       1.934  13.243  20.983  0.00  0.00    +0.000 NA
ATOM     16  N   UNL     1       1.888  14.171  22.006  0.00  0.00    +0.000 NA
ATOM     17  C   UNL     1       0.814  14.908  21.834  0.00  0.00    +0.000 A 
ATOM     18  N   UNL     1       0.167  14.499  20.707  0.00  0.00    +0.000 N 
ATOM     19  C   UNL     1      -1.026  15.079  20.152  0.00  0.00    +0.000 C 
ENDBRANCH  13  14
ENDBRANCH  12  13
ENDBRANCH   5  12
ENDBRANCH   1   9
BRANCH   2  20
ATOM     20  C   UNL     1       3.275   5.420  19.051  0.00  0.00    +0.000 A 
ATOM     21  N   UNL     1       4.588   5.724  19.287  0.00  0.00    +0.000 NA
ATOM     22  C   UNL     1       5.520   5.146  18.477  0.00  0.00    +0.000 A 
ATOM     23  C   UNL     1       5.160   4.271  17.449  0.00  0.00    +0.000 A 
ATOM     24  C   UNL     1       3.814   3.977  17.235  0.00  0.00    +0.000 A 
ATOM     25  C   UNL     1       2.828   4.577  18.015  0.00  0.00    +0.000 A 
BRANCH  22  26
ATOM     26  C   UNL     1       6.997   5.458  18.682  0.00  0.00    +0.000 C 
ATOM     27  F   UNL     1       7.357   5.605  19.986  0.00  0.00    +0.000 F 
ATOM     28  F   UNL     1       7.810   4.485  18.177  0.00  0.00    +0.000 F 
ATOM     29  F   UNL     1       7.374   6.610  18.055  0.00  0.00    +0.000 F 
ENDBRANCH  22  26
BRANCH  25  30
ATOM     30  N   UNL     1       1.499   4.144  17.865  0.00  0.00    +0.000 N 
ATOM     31  H   UNL     1       0.852   4.842  17.516  0.00  0.00    +0.000 HD
ATOM     32  H   UNL     1       1.150   3.676  18.715  0.00  0.00    +0.000 HD
ENDBRANCH  25  30
ENDBRANCH   2  20
TORSDOF 7
ENDMDL
MODEL 7
REMARK VINA RESULT:      -7.7      4.310      8.062
REMARK  Name = 
REMARK  9 active torsions:
REMARK  status: ('A' for Active; 'I' for Inactive)
REMARK    1  A    between atoms: C_1  and  C_2
REMARK    2  A    between atoms: C_2  and  S_3
REMARK    3  A    between atoms: C_2  and  C_10
REMARK    4  A    between atoms: S_3  and  C_4
REMARK    5  A    between atoms: N_8  and  C_9
REMARK    6  A    between atoms: C_14  and  N_15
REMARK    7  A    between atoms: C_16  and  C_18
REMARK    8  A    between atoms: C_20  and  C_21
REMARK    9  A    between atoms: C_27  and  N_28
REMARK                            x       y       z     vdW  Elec       q    Type
REMARK                         _______ _______ _______ _____ _____    ______ ____
ROOT
ATOM      1  N   UNL     1       2.409   7.457  19.605  0.00  0.00    +0.000 N 
ATOM      2  C   UNL     1       2.443   6.075  19.733  0.00  0.00    +0.000 C 
ATOM      3  O   UNL     1       1.728   5.393  20.464  0.00  0.00    +0.000 OA
ATOM      4  H   UNL     1       3.055   7.844  18.920  0.00  0.00    +0.000 HD
ENDROOT
BRANCH   1   9
ATOM      5  C   UNL     1       0.103  10.331  20.160  0.00  0.00    +0.000 A 
ATOM      6  C   UNL     1      -0.274  10.103  21.494  0.00  0.00    +0.000 A 
ATOM      7  C   UNL     1       0.288   9.063  22.222  0.00  0.00    +0.000 A 
ATOM      8  C   UNL     1       1.202   8.207  21.617  0.00  0.00    +0.000 A 
ATOM      9  C   UNL     1       1.536   8.346  20.269  0.00  0.00    +0.000 A 
ATOM     10  C   UNL     1       0.983   9.414  19.546  0.00  0.00    +0.000 A 
BRANCH   5  12
ATOM     11  C   UNL     1      -1.291  11.165  18.213  0.00  0.00    +0.000 C 
ATOM     12  C   UNL     1      -0.390  11.554  19.401  0.00  0.00    +0.000 C 
BRANCH  12  13
ATOM     13  S   UNL     1       0.979  12.523  18.702  0.00  0.00    +0.000 S 
BRANCH  13  14
ATOM     14  C   UNL     1       1.652  13.334  20.066  0.00  0.00    +0.000 A 
ATOM     15  N   UNL     1       1.188  13.412  21.291  0.00  0.00    +0.000 NA
ATOM     16  N   UNL     1       2.025  14.255  21.999  0.00  0.00    +0.000 NA
ATOM     17  C   UNL     1       2.970  14.663  21.182  0.00  0.00    +0.000 A 
ATOM     18  N   UNL     1       2.784  14.087  19.961  0.00  0.00    +0.000 N 
ATOM     19  C   UNL     1       3.629  14.246  18.807  0.00  0.00    +0.000 C 
ENDBRANCH  13  14
ENDBRANCH  12  13
ENDBRANCH   5  12
ENDBRANCH   1   9
BRANCH   2  20
ATOM     20  C   UNL     1       3.440   5.388  18.836  0.00  0.00    +0.000 A 
ATOM     21  N   UNL     1       4.751   5.677  19.102  0.00  0.00    +0.000 NA
ATOM     22  C   UNL     1       5.692   5.122  18.286  0.00  0.00    +0.000 A 
ATOM     23  C   UNL     1       5.343   4.283  17.225  0.00  0.00    +0.000 A 
ATOM     24  C   UNL     1       3.999   4.003  16.981  0.00  0.00    +0.000 A 
ATOM     25  C   UNL     1       3.004   4.582  17.767  0.00  0.00    +0.000 A 
BRANCH  22  26
ATOM     26  C   UNL     1       7.167   5.420  18.523  0.00  0.00    +0.000 C 
ATOM     27  F   UNL     1       8.007   4.436  18.101  0.00  0.00    +0.000 F 
ATOM     28  F   UNL     1       7.576   6.558  17.891  0.00  0.00    +0.000 F 
ATOM     29  F   UNL     1       7.450   5.614  19.844  0.00  0.00    +0.000 F 
ENDBRANCH  22  26
BRANCH  25  30
ATOM     30  N   UNL     1       1.676   4.160  17.583  0.00  0.00    +0.000 N 
ATOM     31  H   UNL     1       1.000   4.568  18.219  0.00  0.00    +0.000 HD
ATOM     32  H   UNL     1       1.603   3.134  17.539  0.00  0.00    +0.000 HD
ENDBRANCH  25  30
ENDBRANCH   2  20
TORSDOF 7
ENDMDL
MODEL 8
REMARK VINA RESULT:      -7.6      4.935      9.115
REMARK  Name = 
REMARK  9 active torsions:
REMARK  status: ('A' for Active; 'I' for Inactive)
REMARK    1  A    between atoms: C_1  and  C_2
REMARK    2  A    between atoms: C_2  and  S_3
REMARK    3  A    between atoms: C_2  and  C_10
REMARK    4  A    between atoms: S_3  and  C_4
REMARK    5  A    between atoms: N_8  and  C_9
REMARK    6  A    between atoms: C_14  and  N_15
REMARK    7  A    between atoms: C_16  and  C_18
REMARK    8  A    between atoms: C_20  and  C_21
REMARK    9  A    between atoms: C_27  and  N_28
REMARK                            x       y       z     vdW  Elec       q    Type
REMARK                         _______ _______ _______ _____ _____    ______ ____
ROOT
ATOM      1  N   UNL     1       2.330   7.388  19.526  0.00  0.00    +0.000 N 
ATOM      2  C   UNL     1       2.243   6.022  19.763  0.00  0.00    +0.000 C 
ATOM      3  O   UNL     1       1.488   5.468  20.558  0.00  0.00    +0.000 OA
ATOM      4  H   UNL     1       2.990   7.660  18.802  0.00  0.00    +0.000 HD
ENDROOT
BRANCH   1   9
ATOM      5  C   UNL     1       0.232  10.448  19.877  0.00  0.00    +0.000 A 
ATOM      6  C   UNL     1      -0.063  10.400  21.250  0.00  0.00    +0.000 A 
ATOM      7  C   UNL     1       0.490   9.418  22.060  0.00  0.00    +0.000 A 
ATOM      8  C   UNL     1       1.310   8.441  21.506  0.00  0.00    +0.000 A 
ATOM      9  C   UNL     1       1.557   8.402  20.133  0.00  0.00    +0.000 A 
ATOM     10  C   UNL     1       1.015   9.412  19.323  0.00  0.00    +0.000 A 
BRANCH   5  12
ATOM     11  C   UNL     1       0.597  12.875  19.239  0.00  0.00    +0.000 C 
ATOM     12  C   UNL     1      -0.243  11.604  19.010  0.00  0.00    +0.000 C 
BRANCH  12  13
ATOM     13  S   UNL     1      -1.965  12.064  19.366  0.00  0.00    +0.000 S 
BRANCH  13  14
ATOM     14  C   UNL     1      -2.823  11.587  17.950  0.00  0.00    +0.000 A 
ATOM     15  N   UNL     1      -2.349  11.196  16.790  0.00  0.00    +0.000 NA
ATOM     16  N   UNL     1      -3.426  11.019  15.941  0.00  0.00    +0.000 NA
ATOM     17  C   UNL     1      -4.519  11.310  16.609  0.00  0.00    +0.000 A 
ATOM     18  N   UNL     1      -4.184  11.650  17.886  0.00  0.00    +0.000 N 
ATOM     19  C   UNL     1      -5.098  11.994  18.942  0.00  0.00    +0.000 C 
ENDBRANCH  13  14
ENDBRANCH  12  13
ENDBRANCH   5  12
ENDBRANCH   1   9
BRANCH   2  20
ATOM     20  C   UNL     1       3.153   5.180  18.906  0.00  0.00    +0.000 A 
ATOM     21  N   UNL     1       3.773   5.852  17.889  0.00  0.00    +0.000 NA
ATOM     22  C   UNL     1       4.568   5.125  17.052  0.00  0.00    +0.000 A 
ATOM     23  C   UNL     1       4.754   3.751  17.224  0.00  0.00    +0.000 A 
ATOM     24  C   UNL     1       4.112   3.095  18.273  0.00  0.00    +0.000 A 
ATOM     25  C   UNL     1       3.260   3.793  19.127  0.00  0.00    +0.000 A 
BRANCH  22  26
ATOM     26  C   UNL     1       5.273   5.815  15.891  0.00  0.00    +0.000 C 
ATOM     27  F   UNL     1       5.240   5.114  14.726  0.00  0.00    +0.000 F 
ATOM     28  F   UNL     1       4.734   7.037  15.608  0.00  0.00    +0.000 F 
ATOM     29  F   UNL     1       6.592   6.050  16.153  0.00  0.00    +0.000 F 
ENDBRANCH  22  26
BRANCH  25  30
ATOM     30  N   UNL     1       2.751   3.129  20.256  0.00  0.00    +0.000 N 
ATOM     31  H   UNL     1       2.932   3.582  21.144  0.00  0.00    +0.000 HD
ATOM     32  H   UNL     1       3.012   2.132  20.264  0.00  0.00    +0.000 HD
ENDBRANCH  25  30
ENDBRANCH   2  20
TORSDOF 7
ENDMDL
MODEL 9
REMARK VINA RESULT:      -7.6      5.615      7.663
REMARK  Name = 
REMARK  9 active torsions:
REMARK  status: ('A' for Active; 'I' for Inactive)
REMARK    1  A    between atoms: C_1  and  C_2
REMARK    2  A    between atoms: C_2  and  S_3
REMARK    3  A    between atoms: C_2  and  C_10
REMARK    4  A    between atoms: S_3  and  C_4
REMARK    5  A    between atoms: N_8  and  C_9
REMARK    6  A    between atoms: C_14  and  N_15
REMARK    7  A    between atoms: C_16  and  C_18
REMARK    8  A    between atoms: C_20  and  C_21
REMARK    9  A    between atoms: C_27  and  N_28
REMARK                            x       y       z     vdW  Elec       q    Type
REMARK                         _______ _______ _______ _____ _____    ______ ____
ROOT
ATOM      1  N   UNL     1       8.434   9.679  17.885  0.00  0.00    +0.000 N 
ATOM      2  C   UNL     1       9.171  10.421  18.798  0.00  0.00    +0.000 C 
ATOM      3  O   UNL     1       9.561  10.040  19.900  0.00  0.00    +0.000 OA
ATOM      4  H   UNL     1       8.232  10.150  17.007  0.00  0.00    +0.000 HD
ENDROOT
BRANCH   1   9
ATOM      5  C   UNL     1       6.579   6.510  17.246  0.00  0.00    +0.000 A 
ATOM      6  C   UNL     1       7.175   5.668  18.199  0.00  0.00    +0.000 A 
ATOM      7  C   UNL     1       8.117   6.162  19.093  0.00  0.00    +0.000 A 
ATOM      8  C   UNL     1       8.511   7.494  19.020  0.00  0.00    +0.000 A 
ATOM      9  C   UNL     1       8.008   8.340  18.031  0.00  0.00    +0.000 A 
ATOM     10  C   UNL     1       7.038   7.841  17.147  0.00  0.00    +0.000 A 
BRANCH   5  12
ATOM     11  C   UNL     1       4.135   5.839  17.163  0.00  0.00    +0.000 C 
ATOM     12  C   UNL     1       5.440   6.019  16.365  0.00  0.00    +0.000 C 
BRANCH  12  13
ATOM     13  S   UNL     1       5.803   4.403  15.615  0.00  0.00    +0.000 S 
BRANCH  13  14
ATOM     14  C   UNL     1       6.882   4.778  14.325  0.00  0.00    +0.000 A 
ATOM     15  N   UNL     1       7.938   5.557  14.332  0.00  0.00    +0.000 NA
ATOM     16  N   UNL     1       8.416   5.619  13.036  0.00  0.00    +0.000 NA
ATOM     17  C   UNL     1       7.636   4.878  12.283  0.00  0.00    +0.000 A 
ATOM     18  N   UNL     1       6.671   4.311  13.061  0.00  0.00    +0.000 N 
ATOM     19  C   UNL     1       5.649   3.400  12.621  0.00  0.00    +0.000 C 
ENDBRANCH  13  14
ENDBRANCH  12  13
ENDBRANCH   5  12
ENDBRANCH   1   9
BRANCH   2  20
ATOM     20  C   UNL     1       9.538  11.804  18.328  0.00  0.00    +0.000 A 
ATOM     21  N   UNL     1       8.540  12.733  18.430  0.00  0.00    +0.000 NA
ATOM     22  C   UNL     1       8.804  13.990  17.971  0.00  0.00    +0.000 A 
ATOM     23  C   UNL     1      10.044  14.326  17.423  0.00  0.00    +0.000 A 
ATOM     24  C   UNL     1      11.045  13.359  17.336  0.00  0.00    +0.000 A 
ATOM     25  C   UNL     1      10.802  12.054  17.759  0.00  0.00    +0.000 A 
BRANCH  22  26
ATOM     26  C   UNL     1       7.725  15.063  18.043  0.00  0.00    +0.000 C 
ATOM     27  F   UNL     1       6.595  14.762  17.347  0.00  0.00    +0.000 F 
ATOM     28  F   UNL     1       7.321  15.309  19.324  0.00  0.00    +0.000 F 
ATOM     29  F   UNL     1       8.157  16.264  17.560  0.00  0.00    +0.000 F 
ENDBRANCH  22  26
BRANCH  25  30
ATOM     30  N   UNL     1      11.878  11.149  17.791  0.00  0.00    +0.000 N 
ATOM     31  H   UNL     1      11.635  10.194  18.030  0.00  0.00    +0.000 HD
ATOM     32  H   UNL     1      12.662  11.507  18.357  0.00  0.00    +0.000 HD
ENDBRANCH  25  30
ENDBRANCH   2  20
TORSDOF 7
ENDMDL
