MODEL 1
REMARK VINA RESULT:      -9.1      0.000      0.000
REMARK  Name = 
REMARK  10 active torsions:
REMARK  status: ('A' for Active; 'I' for Inactive)
REMARK    1  A    between atoms: C_1  and  N_2
REMARK    2  A    between atoms: C_6  and  C_7
REMARK    3  A    between atoms: C_7  and  C_8
REMARK    4  A    between atoms: C_8  and  C_9
REMARK    5  A    between atoms: C_13  and  N_14
REMARK    6  A    between atoms: C_19  and  C_20
REMARK    7  A    between atoms: C_20  and  N_21
REMARK    8  A    between atoms: C_24  and  C_25
REMARK    9  A    between atoms: C_25  and  O_26
REMARK   10  A    between atoms: C_32  and  C_33
REMARK                            x       y       z     vdW  Elec       q    Type
REMARK                         _______ _______ _______ _____ _____    ______ ____
ROOT
ATOM      1  N   UNL     1       2.237   7.342  19.152  0.00  0.00    +0.000 N 
ATOM      2  C   UNL     1       1.502   7.665  20.355  0.00  0.00    +0.000 C 
ATOM      3  C   UNL     1       1.060   9.061  20.148  0.00  0.00    +0.000 A 
ATOM      4  C   UNL     1       1.392   9.479  18.862  0.00  0.00    +0.000 A 
ATOM      5  C   UNL     1       0.950  10.711  18.392  0.00  0.00    +0.000 A 
ATOM      6  C   UNL     1       0.186  11.525  19.263  0.00  0.00    +0.000 A 
ATOM      7  C   UNL     1      -0.085  11.088  20.581  0.00  0.00    +0.000 A 
ATOM      8  C   UNL     1       0.373   9.850  21.054  0.00  0.00    +0.000 A 
ATOM      9  C   UNL     1       2.217   8.399  18.228  0.00  0.00    +0.000 C 
ATOM     10  O   UNL     1       2.746   8.500  17.137  0.00  0.00    +0.000 OA
ENDROOT
BRANCH   1  15
ATOM     11  C   UNL     1       4.589   4.728  17.875  0.00  0.00    +0.000 A 
ATOM     12  C   UNL     1       4.323   3.702  18.794  0.00  0.00    +0.000 A 
ATOM     13  C   UNL     1       3.458   3.899  19.888  0.00  0.00    +0.000 A 
ATOM     14  C   UNL     1       2.805   5.121  20.084  0.00  0.00    +0.000 A 
ATOM     15  C   UNL     1       2.987   6.141  19.164  0.00  0.00    +0.000 A 
ATOM     16  C   UNL     1       3.902   5.926  18.107  0.00  0.00    +0.000 A 
BRANCH  11  17
ATOM     17  C   UNL     1       5.608   4.608  16.626  0.00  0.00    +0.000 C 
ATOM     18  C   UNL     1       5.296   5.547  15.427  0.00  0.00    +0.000 C 
ATOM     19  O   UNL     1       5.105   4.446  14.521  0.00  0.00    +0.000 OA
ATOM     20  C   UNL     1       5.348   3.486  15.570  0.00  0.00    +0.000 C 
BRANCH  17  21
ATOM     21  C   UNL     1       7.081   4.675  17.095  0.00  0.00    +0.000 C 
BRANCH  21  27
ATOM     22  C   UNL     1       8.071   5.698  19.931  0.00  0.00    +0.000 C 
ATOM     23  N   UNL     1       7.948   6.464  18.722  0.00  0.00    +0.000 N 
ATOM     24  C   UNL     1       8.197   7.799  18.616  0.00  0.00    +0.000 A 
ATOM     25  N   UNL     1       7.985   8.189  17.387  0.00  0.00    +0.000 NA
ATOM     26  N   UNL     1       7.586   7.091  16.667  0.00  0.00    +0.000 NA
ATOM     27  C   UNL     1       7.554   6.047  17.471  0.00  0.00    +0.000 A 
ENDBRANCH  21  27
ENDBRANCH  17  21
ENDBRANCH  11  17
ENDBRANCH   1  15
BRANCH   8  28
ATOM     28  C   UNL     1       0.133   9.430  22.484  0.00  0.00    +0.000 C 
ATOM     29  F   UNL     1      -0.714   8.375  22.602  0.00  0.00    +0.000 F 
ATOM     30  F   UNL     1       1.280   9.055  23.109  0.00  0.00    +0.000 F 
ATOM     31  F   UNL     1      -0.407  10.425  23.234  0.00  0.00    +0.000 F 
ENDBRANCH   8  28
BRANCH   6  32
ATOM     32  C   UNL     1      -0.447  12.828  18.809  0.00  0.00    +0.000 C 
BRANCH  32  33
ATOM     33  N   UNL     1       0.211  14.091  19.127  0.00  0.00    +0.000 NA
ATOM     34  C   UNL     1       1.662  14.134  19.018  0.00  0.00    +0.000 C 
ATOM     35  C   UNL     1       2.400  13.755  20.299  0.00  0.00    +0.000 C 
ATOM     36  C   UNL     1       1.896  14.431  21.591  0.00  0.00    +0.000 C 
ATOM     37  C   UNL     1       0.382  14.649  21.618  0.00  0.00    +0.000 C 
ATOM     38  F   UNL     1      -0.193  13.572  22.220  0.00  0.00    +0.000 F 
ATOM     39  F   UNL     1       0.080  15.699  22.433  0.00  0.00    +0.000 F 
ATOM     40  C   UNL     1      -0.283  14.877  20.255  0.00  0.00    +0.000 C 
BRANCH  36  41
ATOM     41  C   UNL     1       2.669  15.713  21.898  0.00  0.00    +0.000 C 
BRANCH  41  42
ATOM     42  O   UNL     1       3.372  15.626  23.124  0.00  0.00    +0.000 OA
ATOM     43  H   UNL     1       2.869  16.129  23.788  0.00  0.00    +0.000 HD
ENDBRANCH  41  42
ENDBRANCH  36  41
ENDBRANCH  32  33
ENDBRANCH   6  32
TORSDOF 9
ENDMDL
MODEL 2
REMARK VINA RESULT:      -9.1      1.604      2.494
REMARK  Name = 
REMARK  10 active torsions:
REMARK  status: ('A' for Active; 'I' for Inactive)
REMARK    1  A    between atoms: C_1  and  N_2
REMARK    2  A    between atoms: C_6  and  C_7
REMARK    3  A    between atoms: C_7  and  C_8
REMARK    4  A    between atoms: C_8  and  C_9
REMARK    5  A    between atoms: C_13  and  N_14
REMARK    6  A    between atoms: C_19  and  C_20
REMARK    7  A    between atoms: C_20  and  N_21
REMARK    8  A    between atoms: C_24  and  C_25
REMARK    9  A    between atoms: C_25  and  O_26
REMARK   10  A    between atoms: C_32  and  C_33
REMARK                            x       y       z     vdW  Elec       q    Type
REMARK                         _______ _______ _______ _____ _____    ______ ____
ROOT
ATOM      1  N   UNL     1       2.333   7.373  19.355  0.00  0.00    +0.000 N 
ATOM      2  C   UNL     1       1.571   7.727  20.533  0.00  0.00    +0.000 C 
ATOM      3  C   UNL     1       1.038   9.072  20.231  0.00  0.00    +0.000 A 
ATOM      4  C   UNL     1       1.348   9.424  18.920  0.00  0.00    +0.000 A 
ATOM      5  C   UNL     1       0.827  10.588  18.367  0.00  0.00    +0.000 A 
ATOM      6  C   UNL     1       0.005  11.406  19.179  0.00  0.00    +0.000 A 
ATOM      7  C   UNL     1      -0.243  11.041  20.524  0.00  0.00    +0.000 A 
ATOM      8  C   UNL     1       0.294   9.873  21.080  0.00  0.00    +0.000 A 
ATOM      9  C   UNL     1       2.247   8.361  18.361  0.00  0.00    +0.000 C 
ATOM     10  O   UNL     1       2.775   8.423  17.266  0.00  0.00    +0.000 OA
ENDROOT
BRANCH   1  15
ATOM     11  C   UNL     1       5.383   5.268  18.842  0.00  0.00    +0.000 A 
ATOM     12  C   UNL     1       4.873   4.017  19.220  0.00  0.00    +0.000 A 
ATOM     13  C   UNL     1       3.571   3.879  19.739  0.00  0.00    +0.000 A 
ATOM     14  C   UNL     1       2.723   4.985  19.871  0.00  0.00    +0.000 A 
ATOM     15  C   UNL     1       3.162   6.229  19.449  0.00  0.00    +0.000 A 
ATOM     16  C   UNL     1       4.492   6.339  18.982  0.00  0.00    +0.000 A 
BRANCH  11  17
ATOM     17  C   UNL     1       6.881   5.527  18.291  0.00  0.00    +0.000 C 
ATOM     18  C   UNL     1       7.935   5.868  19.381  0.00  0.00    +0.000 C 
ATOM     19  O   UNL     1       8.215   7.158  18.809  0.00  0.00    +0.000 OA
ATOM     20  C   UNL     1       7.235   6.956  17.770  0.00  0.00    +0.000 C 
BRANCH  17  21
ATOM     21  C   UNL     1       7.328   4.399  17.332  0.00  0.00    +0.000 C 
BRANCH  21  27
ATOM     22  C   UNL     1       4.662   3.487  15.873  0.00  0.00    +0.000 C 
ATOM     23  N   UNL     1       5.784   4.169  15.292  0.00  0.00    +0.000 N 
ATOM     24  C   UNL     1       5.901   4.495  13.975  0.00  0.00    +0.000 A 
ATOM     25  N   UNL     1       7.041   5.103  13.772  0.00  0.00    +0.000 NA
ATOM     26  N   UNL     1       7.691   5.177  14.978  0.00  0.00    +0.000 NA
ATOM     27  C   UNL     1       6.939   4.607  15.899  0.00  0.00    +0.000 A 
ENDBRANCH  21  27
ENDBRANCH  17  21
ENDBRANCH  11  17
ENDBRANCH   1  15
BRANCH   8  28
ATOM     28  C   UNL     1       0.075   9.535  22.535  0.00  0.00    +0.000 C 
ATOM     29  F   UNL     1       1.222   9.243  23.201  0.00  0.00    +0.000 F 
ATOM     30  F   UNL     1      -0.498  10.561  23.220  0.00  0.00    +0.000 F 
ATOM     31  F   UNL     1      -0.738   8.460  22.703  0.00  0.00    +0.000 F 
ENDBRANCH   8  28
BRANCH   6  32
ATOM     32  C   UNL     1      -0.712  12.630  18.638  0.00  0.00    +0.000 C 
BRANCH  32  33
ATOM     33  N   UNL     1       0.039  13.861  18.423  0.00  0.00    +0.000 NA
ATOM     34  C   UNL     1       1.477  13.815  18.649  0.00  0.00    +0.000 C 
ATOM     35  C   UNL     1       1.899  14.142  20.078  0.00  0.00    +0.000 C 
ATOM     36  C   UNL     1       1.256  15.399  20.700  0.00  0.00    +0.000 C 
ATOM     37  C   UNL     1      -0.191  15.628  20.260  0.00  0.00    +0.000 C 
ATOM     38  F   UNL     1      -1.012  15.030  21.167  0.00  0.00    +0.000 F 
ATOM     39  F   UNL     1      -0.497  16.954  20.343  0.00  0.00    +0.000 F 
ATOM     40  C   UNL     1      -0.549  15.128  18.855  0.00  0.00    +0.000 C 
BRANCH  36  41
ATOM     41  C   UNL     1       2.123  16.641  20.493  0.00  0.00    +0.000 C 
BRANCH  41  42
ATOM     42  O   UNL     1       3.469  16.304  20.208  0.00  0.00    +0.000 OA
ATOM     43  H   UNL     1       3.543  15.334  20.242  0.00  0.00    +0.000 HD
ENDBRANCH  41  42
ENDBRANCH  36  41
ENDBRANCH  32  33
ENDBRANCH   6  32
TORSDOF 9
ENDMDL
MODEL 3
REMARK VINA RESULT:      -9.1      1.744      2.617
REMARK  Name = 
REMARK  10 active torsions:
REMARK  status: ('A' for Active; 'I' for Inactive)
REMARK    1  A    between atoms: C_1  and  N_2
REMARK    2  A    between atoms: C_6  and  C_7
REMARK    3  A    between atoms: C_7  and  C_8
REMARK    4  A    between atoms: C_8  and  C_9
REMARK    5  A    between atoms: C_13  and  N_14
REMARK    6  A    between atoms: C_19  and  C_20
REMARK    7  A    between atoms: C_20  and  N_21
REMARK    8  A    between atoms: C_24  and  C_25
REMARK    9  A    between atoms: C_25  and  O_26
REMARK   10  A    between atoms: C_32  and  C_33
REMARK                            x       y       z     vdW  Elec       q    Type
REMARK                         _______ _______ _______ _____ _____    ______ ____
ROOT
ATOM      1  N   UNL     1       2.272   7.474  19.413  0.00  0.00    +0.000 N 
ATOM      2  C   UNL     1       1.477   7.777  20.582  0.00  0.00    +0.000 C 
ATOM      3  C   UNL     1       0.971   9.144  20.333  0.00  0.00    +0.000 A 
ATOM      4  C   UNL     1       1.327   9.558  19.053  0.00  0.00    +0.000 A 
ATOM      5  C   UNL     1       0.839  10.757  18.545  0.00  0.00    +0.000 A 
ATOM      6  C   UNL     1       0.002  11.543  19.372  0.00  0.00    +0.000 A 
ATOM      7  C   UNL     1      -0.295  11.113  20.687  0.00  0.00    +0.000 A 
ATOM      8  C   UNL     1       0.210   9.910  21.199  0.00  0.00    +0.000 A 
ATOM      9  C   UNL     1       2.232   8.513  18.469  0.00  0.00    +0.000 C 
ATOM     10  O   UNL     1       2.795   8.624  17.397  0.00  0.00    +0.000 OA
ENDROOT
BRANCH   1  15
ATOM     11  C   UNL     1       5.284   5.332  18.825  0.00  0.00    +0.000 A 
ATOM     12  C   UNL     1       4.756   4.082  19.179  0.00  0.00    +0.000 A 
ATOM     13  C   UNL     1       3.456   3.952  19.707  0.00  0.00    +0.000 A 
ATOM     14  C   UNL     1       2.627   5.068  19.871  0.00  0.00    +0.000 A 
ATOM     15  C   UNL     1       3.084   6.315  19.474  0.00  0.00    +0.000 A 
ATOM     16  C   UNL     1       4.411   6.414  18.997  0.00  0.00    +0.000 A 
BRANCH  11  17
ATOM     17  C   UNL     1       6.781   5.580  18.268  0.00  0.00    +0.000 C 
ATOM     18  C   UNL     1       7.831   5.967  19.346  0.00  0.00    +0.000 C 
ATOM     19  O   UNL     1       8.104   7.237  18.727  0.00  0.00    +0.000 OA
ATOM     20  C   UNL     1       7.128   6.991  17.695  0.00  0.00    +0.000 C 
BRANCH  17  21
ATOM     21  C   UNL     1       7.236   4.420  17.351  0.00  0.00    +0.000 C 
BRANCH  21  27
ATOM     22  C   UNL     1       4.592   3.527  15.841  0.00  0.00    +0.000 C 
ATOM     23  N   UNL     1       5.746   4.169  15.275  0.00  0.00    +0.000 N 
ATOM     24  C   UNL     1       5.908   4.455  13.953  0.00  0.00    +0.000 A 
ATOM     25  N   UNL     1       7.067   5.031  13.767  0.00  0.00    +0.000 NA
ATOM     26  N   UNL     1       7.684   5.124  14.989  0.00  0.00    +0.000 NA
ATOM     27  C   UNL     1       6.893   4.597  15.903  0.00  0.00    +0.000 A 
ENDBRANCH  21  27
ENDBRANCH  17  21
ENDBRANCH  11  17
ENDBRANCH   1  15
BRANCH   8  28
ATOM     28  C   UNL     1      -0.062   9.501  22.627  0.00  0.00    +0.000 C 
ATOM     29  F   UNL     1      -0.752  10.433  23.333  0.00  0.00    +0.000 F 
ATOM     30  F   UNL     1      -0.797   8.360  22.704  0.00  0.00    +0.000 F 
ATOM     31  F   UNL     1       1.078   9.272  23.328  0.00  0.00    +0.000 F 
ENDBRANCH   8  28
BRANCH   6  32
ATOM     32  C   UNL     1      -0.682  12.803  18.873  0.00  0.00    +0.000 C 
BRANCH  32  33
ATOM     33  N   UNL     1      -0.410  14.074  19.535  0.00  0.00    +0.000 NA
ATOM     34  C   UNL     1      -0.039  15.202  18.692  0.00  0.00    +0.000 C 
ATOM     35  C   UNL     1       1.461  15.335  18.446  0.00  0.00    +0.000 C 
ATOM     36  C   UNL     1       2.362  15.224  19.694  0.00  0.00    +0.000 C 
ATOM     37  C   UNL     1       1.844  14.231  20.736  0.00  0.00    +0.000 C 
ATOM     38  F   UNL     1       2.414  13.019  20.490  0.00  0.00    +0.000 F 
ATOM     39  F   UNL     1       2.299  14.579  21.973  0.00  0.00    +0.000 F 
ATOM     40  C   UNL     1       0.321  14.064  20.801  0.00  0.00    +0.000 C 
BRANCH  36  41
ATOM     41  C   UNL     1       2.658  16.595  20.302  0.00  0.00    +0.000 C 
BRANCH  41  42
ATOM     42  O   UNL     1       2.321  17.649  19.419  0.00  0.00    +0.000 OA
ATOM     43  H   UNL     1       1.369  17.584  19.231  0.00  0.00    +0.000 HD
ENDBRANCH  41  42
ENDBRANCH  36  41
ENDBRANCH  32  33
ENDBRANCH   6  32
TORSDOF 9
ENDMDL
MODEL 4
REMARK VINA RESULT:      -9.1      3.593      9.039
REMARK  Name = 
REMARK  10 active torsions:
REMARK  status: ('A' for Active; 'I' for Inactive)
REMARK    1  A    between atoms: C_1  and  N_2
REMARK    2  A    between atoms: C_6  and  C_7
REMARK    3  A    between atoms: C_7  and  C_8
REMARK    4  A    between atoms: C_8  and  C_9
REMARK    5  A    between atoms: C_13  and  N_14
REMARK    6  A    between atoms: C_19  and  C_20
REMARK    7  A    between atoms: C_20  and  N_21
REMARK    8  A    between atoms: C_24  and  C_25
REMARK    9  A    between atoms: C_25  and  O_26
REMARK   10  A    between atoms: C_32  and  C_33
REMARK                            x       y       z     vdW  Elec       q    Type
REMARK                         _______ _______ _______ _____ _____    ______ ____
ROOT
ATOM      1  N   UNL     1       1.245   8.232  20.377  0.00  0.00    +0.000 N 
ATOM      2  C   UNL     1       1.274   6.844  20.781  0.00  0.00    +0.000 C 
ATOM      3  C   UNL     1       1.943   6.152  19.658  0.00  0.00    +0.000 A 
ATOM      4  C   UNL     1       2.398   7.083  18.729  0.00  0.00    +0.000 A 
ATOM      5  C   UNL     1       3.183   6.674  17.657  0.00  0.00    +0.000 A 
ATOM      6  C   UNL     1       3.477   5.295  17.530  0.00  0.00    +0.000 A 
ATOM      7  C   UNL     1       2.952   4.373  18.466  0.00  0.00    +0.000 A 
ATOM      8  C   UNL     1       2.151   4.789  19.538  0.00  0.00    +0.000 A 
ATOM      9  C   UNL     1       1.891   8.432  19.147  0.00  0.00    +0.000 C 
ATOM     10  O   UNL     1       2.035   9.445  18.489  0.00  0.00    +0.000 OA
ENDROOT
BRANCH   1  15
ATOM     11  C   UNL     1      -0.821  11.257  21.139  0.00  0.00    +0.000 A 
ATOM     12  C   UNL     1      -0.888  11.151  22.536  0.00  0.00    +0.000 A 
ATOM     13  C   UNL     1      -0.350  10.042  23.218  0.00  0.00    +0.000 A 
ATOM     14  C   UNL     1       0.300   9.013  22.526  0.00  0.00    +0.000 A 
ATOM     15  C   UNL     1       0.446   9.108  21.152  0.00  0.00    +0.000 A 
ATOM     16  C   UNL     1      -0.151  10.209  20.496  0.00  0.00    +0.000 A 
BRANCH  11  17
ATOM     17  C   UNL     1      -1.459  12.463  20.272  0.00  0.00    +0.000 C 
ATOM     18  C   UNL     1      -3.009  12.450  20.164  0.00  0.00    +0.000 C 
ATOM     19  O   UNL     1      -2.982  12.321  18.732  0.00  0.00    +0.000 OA
ATOM     20  C   UNL     1      -1.539  12.291  18.721  0.00  0.00    +0.000 C 
BRANCH  17  21
ATOM     21  C   UNL     1      -0.881  13.831  20.705  0.00  0.00    +0.000 C 
BRANCH  21  27
ATOM     22  C   UNL     1      -0.311  16.163  18.630  0.00  0.00    +0.000 C 
ATOM     23  N   UNL     1       0.623  15.195  19.133  0.00  0.00    +0.000 N 
ATOM     24  C   UNL     1       1.925  15.096  18.746  0.00  0.00    +0.000 A 
ATOM     25  N   UNL     1       2.500  14.111  19.386  0.00  0.00    +0.000 NA
ATOM     26  N   UNL     1       1.558  13.547  20.210  0.00  0.00    +0.000 NA
ATOM     27  C   UNL     1       0.420  14.194  20.054  0.00  0.00    +0.000 A 
ENDBRANCH  21  27
ENDBRANCH  17  21
ENDBRANCH  11  17
ENDBRANCH   1  15
BRANCH   8  28
ATOM     28  C   UNL     1       1.543   3.784  20.487  0.00  0.00    +0.000 C 
ATOM     29  F   UNL     1       1.902   3.979  21.782  0.00  0.00    +0.000 F 
ATOM     30  F   UNL     1       0.184   3.818  20.472  0.00  0.00    +0.000 F 
ATOM     31  F   UNL     1       1.899   2.508  20.190  0.00  0.00    +0.000 F 
ENDBRANCH   8  28
BRANCH   6  32
ATOM     32  C   UNL     1       4.424   4.760  16.470  0.00  0.00    +0.000 C 
BRANCH  32  33
ATOM     33  N   UNL     1       5.846   4.642  16.778  0.00  0.00    +0.000 NA
ATOM     34  C   UNL     1       6.206   4.045  18.056  0.00  0.00    +0.000 C 
ATOM     35  C   UNL     1       6.333   5.044  19.202  0.00  0.00    +0.000 C 
ATOM     36  C   UNL     1       7.159   6.313  18.902  0.00  0.00    +0.000 C 
ATOM     37  C   UNL     1       7.010   6.814  17.465  0.00  0.00    +0.000 C 
ATOM     38  F   UNL     1       6.004   7.731  17.435  0.00  0.00    +0.000 F 
ATOM     39  F   UNL     1       8.122   7.514  17.101  0.00  0.00    +0.000 F 
ATOM     40  C   UNL     1       6.739   5.738  16.406  0.00  0.00    +0.000 C 
BRANCH  36  41
ATOM     41  C   UNL     1       8.624   6.143  19.304  0.00  0.00    +0.000 C 
BRANCH  41  42
ATOM     42  O   UNL     1       8.782   5.180  20.330  0.00  0.00    +0.000 OA
ATOM     43  H   UNL     1       8.465   5.579  21.159  0.00  0.00    +0.000 HD
ENDBRANCH  41  42
ENDBRANCH  36  41
ENDBRANCH  32  33
ENDBRANCH   6  32
TORSDOF 9
ENDMDL
MODEL 5
REMARK VINA RESULT:      -9.0      4.420     10.725
REMARK  Name = 
REMARK  10 active torsions:
REMARK  status: ('A' for Active; 'I' for Inactive)
REMARK    1  A    between atoms: C_1  and  N_2
REMARK    2  A    between atoms: C_6  and  C_7
REMARK    3  A    between atoms: C_7  and  C_8
REMARK    4  A    between atoms: C_8  and  C_9
REMARK    5  A    between atoms: C_13  and  N_14
REMARK    6  A    between atoms: C_19  and  C_20
REMARK    7  A    between atoms: C_20  and  N_21
REMARK    8  A    between atoms: C_24  and  C_25
REMARK    9  A    between atoms: C_25  and  O_26
REMARK   10  A    between atoms: C_32  and  C_33
REMARK                            x       y       z     vdW  Elec       q    Type
REMARK                         _______ _______ _______ _____ _____    ______ ____
ROOT
ATOM      1  N   UNL     1      -2.399  10.977  18.054  0.00  0.00    +0.000 N 
ATOM      2  C   UNL     1      -1.688  11.076  19.310  0.00  0.00    +0.000 C 
ATOM      3  C   UNL     1      -0.542  10.155  19.153  0.00  0.00    +0.000 A 
ATOM      4  C   UNL     1      -0.505   9.658  17.854  0.00  0.00    +0.000 A 
ATOM      5  C   UNL     1       0.569   8.882  17.433  0.00  0.00    +0.000 A 
ATOM      6  C   UNL     1       1.595   8.595  18.365  0.00  0.00    +0.000 A 
ATOM      7  C   UNL     1       1.494   9.073  19.693  0.00  0.00    +0.000 A 
ATOM      8  C   UNL     1       0.403   9.846  20.116  0.00  0.00    +0.000 A 
ATOM      9  C   UNL     1      -1.743  10.128  17.148  0.00  0.00    +0.000 C 
ATOM     10  O   UNL     1      -2.057   9.784  16.024  0.00  0.00    +0.000 OA
ENDROOT
BRANCH   1  15
ATOM     11  C   UNL     1      -5.418  12.801  19.301  0.00  0.00    +0.000 A 
ATOM     12  C   UNL     1      -6.304  12.541  18.245  0.00  0.00    +0.000 A 
ATOM     13  C   UNL     1      -5.886  11.862  17.083  0.00  0.00    +0.000 A 
ATOM     14  C   UNL     1      -4.574  11.394  16.951  0.00  0.00    +0.000 A 
ATOM     15  C   UNL     1      -3.683  11.571  17.997  0.00  0.00    +0.000 A 
ATOM     16  C   UNL     1      -4.122  12.302  19.125  0.00  0.00    +0.000 A 
BRANCH  11  17
ATOM     17  C   UNL     1      -5.796  13.619  20.643  0.00  0.00    +0.000 C 
ATOM     18  C   UNL     1      -6.803  12.907  21.589  0.00  0.00    +0.000 C 
ATOM     19  O   UNL     1      -7.774  13.962  21.468  0.00  0.00    +0.000 OA
ATOM     20  C   UNL     1      -6.929  14.692  20.555  0.00  0.00    +0.000 C 
BRANCH  17  21
ATOM     21  C   UNL     1      -4.527  14.130  21.365  0.00  0.00    +0.000 C 
BRANCH  21  27
ATOM     22  C   UNL     1      -4.613  15.455  24.246  0.00  0.00    +0.000 C 
ATOM     23  N   UNL     1      -4.276  14.098  23.920  0.00  0.00    +0.000 N 
ATOM     24  C   UNL     1      -3.881  13.156  24.821  0.00  0.00    +0.000 A 
ATOM     25  N   UNL     1      -3.644  12.028  24.203  0.00  0.00    +0.000 NA
ATOM     26  N   UNL     1      -3.885  12.231  22.867  0.00  0.00    +0.000 NA
ATOM     27  C   UNL     1      -4.259  13.482  22.690  0.00  0.00    +0.000 A 
ENDBRANCH  21  27
ENDBRANCH  17  21
ENDBRANCH  11  17
ENDBRANCH   1  15
BRANCH   8  28
ATOM     28  C   UNL     1       0.280  10.290  21.553  0.00  0.00    +0.000 C 
ATOM     29  F   UNL     1      -0.888   9.915  22.136  0.00  0.00    +0.000 F 
ATOM     30  F   UNL     1       1.264   9.776  22.337  0.00  0.00    +0.000 F 
ATOM     31  F   UNL     1       0.346  11.640  21.688  0.00  0.00    +0.000 F 
ENDBRANCH   8  28
BRANCH   6  32
ATOM     32  C   UNL     1       2.866   7.862  17.975  0.00  0.00    +0.000 C 
BRANCH  32  33
ATOM     33  N   UNL     1       3.247   6.657  18.702  0.00  0.00    +0.000 NA
ATOM     34  C   UNL     1       4.460   5.973  18.274  0.00  0.00    +0.000 C 
ATOM     35  C   UNL     1       4.237   4.912  17.201  0.00  0.00    +0.000 C 
ATOM     36  C   UNL     1       3.077   3.927  17.456  0.00  0.00    +0.000 C 
ATOM     37  C   UNL     1       1.878   4.564  18.161  0.00  0.00    +0.000 C 
ATOM     38  F   UNL     1       1.006   4.998  17.211  0.00  0.00    +0.000 F 
ATOM     39  F   UNL     1       1.187   3.612  18.851  0.00  0.00    +0.000 F 
ATOM     40  C   UNL     1       2.201   5.723  19.113  0.00  0.00    +0.000 C 
BRANCH  36  41
ATOM     41  C   UNL     1       3.556   2.660  18.165  0.00  0.00    +0.000 C 
BRANCH  41  42
ATOM     42  O   UNL     1       4.693   2.904  18.973  0.00  0.00    +0.000 OA
ATOM     43  H   UNL     1       5.322   2.177  18.824  0.00  0.00    +0.000 HD
ENDBRANCH  41  42
ENDBRANCH  36  41
ENDBRANCH  32  33
ENDBRANCH   6  32
TORSDOF 9
ENDMDL
MODEL 6
REMARK VINA RESULT:      -8.9      3.594      9.499
REMARK  Name = 
REMARK  10 active torsions:
REMARK  status: ('A' for Active; 'I' for Inactive)
REMARK    1  A    between atoms: C_1  and  N_2
REMARK    2  A    between atoms: C_6  and  C_7
REMARK    3  A    between atoms: C_7  and  C_8
REMARK    4  A    between atoms: C_8  and  C_9
REMARK    5  A    between atoms: C_13  and  N_14
REMARK    6  A    between atoms: C_19  and  C_20
REMARK    7  A    between atoms: C_20  and  N_21
REMARK    8  A    between atoms: C_24  and  C_25
REMARK    9  A    between atoms: C_25  and  O_26
REMARK   10  A    between atoms: C_32  and  C_33
REMARK                            x       y       z     vdW  Elec       q    Type
REMARK                         _______ _______ _______ _____ _____    ______ ____
ROOT
ATOM      1  N   UNL     1       1.223   8.315  20.270  0.00  0.00    +0.000 N 
ATOM      2  C   UNL     1       1.260   6.941  20.719  0.00  0.00    +0.000 C 
ATOM      3  C   UNL     1       1.937   6.217  19.622  0.00  0.00    +0.000 A 
ATOM      4  C   UNL     1       2.388   7.121  18.663  0.00  0.00    +0.000 A 
ATOM      5  C   UNL     1       3.179   6.682  17.607  0.00  0.00    +0.000 A 
ATOM      6  C   UNL     1       3.483   5.302  17.526  0.00  0.00    +0.000 A 
ATOM      7  C   UNL     1       2.962   4.407  18.491  0.00  0.00    +0.000 A 
ATOM      8  C   UNL     1       2.155   4.853  19.547  0.00  0.00    +0.000 A 
ATOM      9  C   UNL     1       1.871   8.479  19.035  0.00  0.00    +0.000 C 
ATOM     10  O   UNL     1       2.009   9.471  18.345  0.00  0.00    +0.000 OA
ENDROOT
BRANCH   1  15
ATOM     11  C   UNL     1      -0.753  11.414  20.972  0.00  0.00    +0.000 A 
ATOM     12  C   UNL     1      -0.912  11.283  22.359  0.00  0.00    +0.000 A 
ATOM     13  C   UNL     1      -0.468  10.137  23.047  0.00  0.00    +0.000 A 
ATOM     14  C   UNL     1       0.179   9.094  22.374  0.00  0.00    +0.000 A 
ATOM     15  C   UNL     1       0.416   9.210  21.014  0.00  0.00    +0.000 A 
ATOM     16  C   UNL     1      -0.090  10.350  20.347  0.00  0.00    +0.000 A 
BRANCH  11  17
ATOM     17  C   UNL     1      -1.282  12.665  20.095  0.00  0.00    +0.000 C 
ATOM     18  C   UNL     1      -0.431  13.960  20.213  0.00  0.00    +0.000 C 
ATOM     19  O   UNL     1      -1.530  14.721  20.744  0.00  0.00    +0.000 OA
ATOM     20  C   UNL     1      -2.399  13.570  20.705  0.00  0.00    +0.000 C 
BRANCH  17  21
ATOM     21  C   UNL     1      -1.567  12.245  18.634  0.00  0.00    +0.000 C 
BRANCH  21  27
ATOM     22  C   UNL     1      -2.771  10.997  15.977  0.00  0.00    +0.000 C 
ATOM     23  N   UNL     1      -3.470  11.292  17.196  0.00  0.00    +0.000 N 
ATOM     24  C   UNL     1      -4.808  11.124  17.388  0.00  0.00    +0.000 A 
ATOM     25  N   UNL     1      -5.128  11.491  18.601  0.00  0.00    +0.000 NA
ATOM     26  N   UNL     1      -3.978  11.913  19.222  0.00  0.00    +0.000 NA
ATOM     27  C   UNL     1      -2.975  11.802  18.375  0.00  0.00    +0.000 A 
ENDBRANCH  21  27
ENDBRANCH  17  21
ENDBRANCH  11  17
ENDBRANCH   1  15
BRANCH   8  28
ATOM     28  C   UNL     1       1.552   3.875  20.527  0.00  0.00    +0.000 C 
ATOM     29  F   UNL     1       1.956   4.076  21.808  0.00  0.00    +0.000 F 
ATOM     30  F   UNL     1       0.195   3.944  20.554  0.00  0.00    +0.000 F 
ATOM     31  F   UNL     1       1.866   2.587  20.235  0.00  0.00    +0.000 F 
ENDBRANCH   8  28
BRANCH   6  32
ATOM     32  C   UNL     1       4.437   4.740  16.487  0.00  0.00    +0.000 C 
BRANCH  32  33
ATOM     33  N   UNL     1       5.854   4.620  16.810  0.00  0.00    +0.000 NA
ATOM     34  C   UNL     1       6.199   4.046  18.103  0.00  0.00    +0.000 C 
ATOM     35  C   UNL     1       6.321   5.067  19.231  0.00  0.00    +0.000 C 
ATOM     36  C   UNL     1       7.157   6.324  18.914  0.00  0.00    +0.000 C 
ATOM     37  C   UNL     1       7.024   6.799  17.466  0.00  0.00    +0.000 C 
ATOM     38  F   UNL     1       6.024   7.720  17.409  0.00  0.00    +0.000 F 
ATOM     39  F   UNL     1       8.143   7.486  17.099  0.00  0.00    +0.000 F 
ATOM     40  C   UNL     1       6.757   5.703  16.426  0.00  0.00    +0.000 C 
BRANCH  36  41
ATOM     41  C   UNL     1       8.617   6.154  19.333  0.00  0.00    +0.000 C 
BRANCH  41  42
ATOM     42  O   UNL     1       8.764   5.188  20.358  0.00  0.00    +0.000 OA
ATOM     43  H   UNL     1       8.809   5.663  21.206  0.00  0.00    +0.000 HD
ENDBRANCH  41  42
ENDBRANCH  36  41
ENDBRANCH  32  33
ENDBRANCH   6  32
TORSDOF 9
ENDMDL
MODEL 7
REMARK VINA RESULT:      -8.9      1.525      1.897
REMARK  Name = 
REMARK  10 active torsions:
REMARK  status: ('A' for Active; 'I' for Inactive)
REMARK    1  A    between atoms: C_1  and  N_2
REMARK    2  A    between atoms: C_6  and  C_7
REMARK    3  A    between atoms: C_7  and  C_8
REMARK    4  A    between atoms: C_8  and  C_9
REMARK    5  A    between atoms: C_13  and  N_14
REMARK    6  A    between atoms: C_19  and  C_20
REMARK    7  A    between atoms: C_20  and  N_21
REMARK    8  A    between atoms: C_24  and  C_25
REMARK    9  A    between atoms: C_25  and  O_26
REMARK   10  A    between atoms: C_32  and  C_33
REMARK                            x       y       z     vdW  Elec       q    Type
REMARK                         _______ _______ _______ _____ _____    ______ ____
ROOT
ATOM      1  N   UNL     1       2.258   7.365  19.020  0.00  0.00    +0.000 N 
ATOM      2  C   UNL     1       1.550   7.706  20.235  0.00  0.00    +0.000 C 
ATOM      3  C   UNL     1       1.202   9.132  20.065  0.00  0.00    +0.000 A 
ATOM      4  C   UNL     1       1.556   9.560  18.789  0.00  0.00    +0.000 A 
ATOM      5  C   UNL     1       1.196  10.830  18.353  0.00  0.00    +0.000 A 
ATOM      6  C   UNL     1       0.491  11.671  19.248  0.00  0.00    +0.000 A 
ATOM      7  C   UNL     1       0.197  11.219  20.556  0.00  0.00    +0.000 A 
ATOM      8  C   UNL     1       0.573   9.942  20.995  0.00  0.00    +0.000 A 
ATOM      9  C   UNL     1       2.305   8.444  18.123  0.00  0.00    +0.000 C 
ATOM     10  O   UNL     1       2.836   8.537  17.032  0.00  0.00    +0.000 OA
ENDROOT
BRANCH   1  15
ATOM     11  C   UNL     1       4.503   4.674  17.710  0.00  0.00    +0.000 A 
ATOM     12  C   UNL     1       4.120   3.618  18.548  0.00  0.00    +0.000 A 
ATOM     13  C   UNL     1       3.208   3.809  19.605  0.00  0.00    +0.000 A 
ATOM     14  C   UNL     1       2.626   5.060  19.841  0.00  0.00    +0.000 A 
ATOM     15  C   UNL     1       2.926   6.117  18.997  0.00  0.00    +0.000 A 
ATOM     16  C   UNL     1       3.884   5.901  17.979  0.00  0.00    +0.000 A 
BRANCH  11  17
ATOM     17  C   UNL     1       5.583   4.558  16.512  0.00  0.00    +0.000 C 
ATOM     18  C   UNL     1       5.339   5.512  15.309  0.00  0.00    +0.000 C 
ATOM     19  O   UNL     1       5.183   4.422  14.383  0.00  0.00    +0.000 OA
ATOM     20  C   UNL     1       5.366   3.449  15.432  0.00  0.00    +0.000 C 
BRANCH  17  21
ATOM     21  C   UNL     1       7.030   4.607  17.054  0.00  0.00    +0.000 C 
BRANCH  21  27
ATOM     22  C   UNL     1       7.954   5.631  19.912  0.00  0.00    +0.000 C 
ATOM     23  N   UNL     1       7.872   6.393  18.697  0.00  0.00    +0.000 N 
ATOM     24  C   UNL     1       8.137   7.725  18.593  0.00  0.00    +0.000 A 
ATOM     25  N   UNL     1       7.964   8.112  17.357  0.00  0.00    +0.000 NA
ATOM     26  N   UNL     1       7.572   7.015  16.630  0.00  0.00    +0.000 NA
ATOM     27  C   UNL     1       7.507   5.975  17.437  0.00  0.00    +0.000 A 
ENDBRANCH  21  27
ENDBRANCH  17  21
ENDBRANCH  11  17
ENDBRANCH   1  15
BRANCH   8  28
ATOM     28  C   UNL     1       0.310   9.503  22.415  0.00  0.00    +0.000 C 
ATOM     29  F   UNL     1      -0.184  10.492  23.203  0.00  0.00    +0.000 F 
ATOM     30  F   UNL     1      -0.596   8.491  22.481  0.00  0.00    +0.000 F 
ATOM     31  F   UNL     1       1.431   9.056  23.036  0.00  0.00    +0.000 F 
ENDBRANCH   8  28
BRANCH   6  32
ATOM     32  C   UNL     1      -0.055  13.025  18.831  0.00  0.00    +0.000 C 
BRANCH  32  33
ATOM     33  N   UNL     1       0.201  14.189  19.673  0.00  0.00    +0.000 NA
ATOM     34  C   UNL     1      -0.706  15.320  19.544  0.00  0.00    +0.000 C 
ATOM     35  C   UNL     1      -0.287  16.344  18.493  0.00  0.00    +0.000 C 
ATOM     36  C   UNL     1       1.189  16.788  18.534  0.00  0.00    +0.000 C 
ATOM     37  C   UNL     1       2.153  15.671  18.938  0.00  0.00    +0.000 C 
ATOM     38  F   UNL     1       2.599  15.062  17.805  0.00  0.00    +0.000 F 
ATOM     39  F   UNL     1       3.273  16.207  19.502  0.00  0.00    +0.000 F 
ATOM     40  C   UNL     1       1.585  14.609  19.887  0.00  0.00    +0.000 C 
BRANCH  36  41
ATOM     41  C   UNL     1       1.379  18.047  19.382  0.00  0.00    +0.000 C 
BRANCH  41  42
ATOM     42  O   UNL     1       0.783  17.917  20.660  0.00  0.00    +0.000 OA
ATOM     43  H   UNL     1       1.458  18.145  21.323  0.00  0.00    +0.000 HD
ENDBRANCH  41  42
ENDBRANCH  36  41
ENDBRANCH  32  33
ENDBRANCH   6  32
TORSDOF 9
ENDMDL
MODEL 8
REMARK VINA RESULT:      -8.9      2.106      2.985
REMARK  Name = 
REMARK  10 active torsions:
REMARK  status: ('A' for Active; 'I' for Inactive)
REMARK    1  A    between atoms: C_1  and  N_2
REMARK    2  A    between atoms: C_6  and  C_7
REMARK    3  A    between atoms: C_7  and  C_8
REMARK    4  A    between atoms: C_8  and  C_9
REMARK    5  A    between atoms: C_13  and  N_14
REMARK    6  A    between atoms: C_19  and  C_20
REMARK    7  A    between atoms: C_20  and  N_21
REMARK    8  A    between atoms: C_24  and  C_25
REMARK    9  A    between atoms: C_25  and  O_26
REMARK   10  A    between atoms: C_32  and  C_33
REMARK                            x       y       z     vdW  Elec       q    Type
REMARK                         _______ _______ _______ _____ _____    ______ ____
ROOT
ATOM      1  N   UNL     1       2.258   7.557  19.176  0.00  0.00    +0.000 N 
ATOM      2  C   UNL     1       1.517   7.823  20.389  0.00  0.00    +0.000 C 
ATOM      3  C   UNL     1       1.064   9.223  20.239  0.00  0.00    +0.000 A 
ATOM      4  C   UNL     1       1.394   9.697  18.973  0.00  0.00    +0.000 A 
ATOM      5  C   UNL     1       0.943  10.943  18.553  0.00  0.00    +0.000 A 
ATOM      6  C   UNL     1       0.170  11.714  19.455  0.00  0.00    +0.000 A 
ATOM      7  C   UNL     1      -0.100  11.220  20.753  0.00  0.00    +0.000 A 
ATOM      8  C   UNL     1       0.367   9.967  21.175  0.00  0.00    +0.000 A 
ATOM      9  C   UNL     1       2.231   8.651  18.296  0.00  0.00    +0.000 C 
ATOM     10  O   UNL     1       2.761   8.802  17.212  0.00  0.00    +0.000 OA
ENDROOT
BRANCH   1  15
ATOM     11  C   UNL     1       5.215   5.367  18.503  0.00  0.00    +0.000 A 
ATOM     12  C   UNL     1       4.619   4.108  18.668  0.00  0.00    +0.000 A 
ATOM     13  C   UNL     1       3.284   3.975  19.099  0.00  0.00    +0.000 A 
ATOM     14  C   UNL     1       2.490   5.100  19.352  0.00  0.00    +0.000 A 
ATOM     15  C   UNL     1       3.018   6.363  19.139  0.00  0.00    +0.000 A 
ATOM     16  C   UNL     1       4.376   6.459  18.757  0.00  0.00    +0.000 A 
BRANCH  11  17
ATOM     17  C   UNL     1       6.753   5.611  18.068  0.00  0.00    +0.000 C 
ATOM     18  C   UNL     1       7.717   5.979  19.230  0.00  0.00    +0.000 C 
ATOM     19  O   UNL     1       8.045   7.254  18.651  0.00  0.00    +0.000 OA
ATOM     20  C   UNL     1       7.152   7.027  17.542  0.00  0.00    +0.000 C 
BRANCH  17  21
ATOM     21  C   UNL     1       7.273   4.459  17.177  0.00  0.00    +0.000 C 
BRANCH  21  27
ATOM     22  C   UNL     1       4.907   3.185  15.490  0.00  0.00    +0.000 C 
ATOM     23  N   UNL     1       5.965   4.029  15.009  0.00  0.00    +0.000 N 
ATOM     24  C   UNL     1       6.150   4.381  13.706  0.00  0.00    +0.000 A 
ATOM     25  N   UNL     1       7.203   5.149  13.603  0.00  0.00    +0.000 NA
ATOM     26  N   UNL     1       7.726   5.305  14.863  0.00  0.00    +0.000 NA
ATOM     27  C   UNL     1       6.986   4.623  15.714  0.00  0.00    +0.000 A 
ENDBRANCH  21  27
ENDBRANCH  17  21
ENDBRANCH  11  17
ENDBRANCH   1  15
BRANCH   8  28
ATOM     28  C   UNL     1       0.127   9.486  22.586  0.00  0.00    +0.000 C 
ATOM     29  F   UNL     1      -0.483  10.408  23.374  0.00  0.00    +0.000 F 
ATOM     30  F   UNL     1      -0.667   8.384  22.625  0.00  0.00    +0.000 F 
ATOM     31  F   UNL     1       1.279   9.154  23.224  0.00  0.00    +0.000 F 
ENDBRANCH   8  28
BRANCH   6  32
ATOM     32  C   UNL     1      -0.474  13.029  19.054  0.00  0.00    +0.000 C 
BRANCH  32  33
ATOM     33  N   UNL     1      -0.148  14.240  19.800  0.00  0.00    +0.000 NA
ATOM     34  C   UNL     1      -0.924  15.436  19.505  0.00  0.00    +0.000 C 
ATOM     35  C   UNL     1      -0.340  16.305  18.395  0.00  0.00    +0.000 C 
ATOM     36  C   UNL     1       1.170  16.605  18.496  0.00  0.00    +0.000 C 
ATOM     37  C   UNL     1       1.987  15.445  19.067  0.00  0.00    +0.000 C 
ATOM     38  F   UNL     1       2.433  14.686  18.029  0.00  0.00    +0.000 F 
ATOM     39  F   UNL     1       3.121  15.922  19.655  0.00  0.00    +0.000 F 
ATOM     40  C   UNL     1       1.256  14.543  20.070  0.00  0.00    +0.000 C 
BRANCH  36  41
ATOM     41  C   UNL     1       1.438  17.917  19.234  0.00  0.00    +0.000 C 
BRANCH  41  42
ATOM     42  O   UNL     1       0.243  18.630  19.495  0.00  0.00    +0.000 OA
ATOM     43  H   UNL     1      -0.145  18.878  18.637  0.00  0.00    +0.000 HD
ENDBRANCH  41  42
ENDBRANCH  36  41
ENDBRANCH  32  33
ENDBRANCH   6  32
TORSDOF 9
ENDMDL
MODEL 9
REMARK VINA RESULT:      -8.9      3.670      9.209
REMARK  Name = 
REMARK  10 active torsions:
REMARK  status: ('A' for Active; 'I' for Inactive)
REMARK    1  A    between atoms: C_1  and  N_2
REMARK    2  A    between atoms: C_6  and  C_7
REMARK    3  A    between atoms: C_7  and  C_8
REMARK    4  A    between atoms: C_8  and  C_9
REMARK    5  A    between atoms: C_13  and  N_14
REMARK    6  A    between atoms: C_19  and  C_20
REMARK    7  A    between atoms: C_20  and  N_21
REMARK    8  A    between atoms: C_24  and  C_25
REMARK    9  A    between atoms: C_25  and  O_26
REMARK   10  A    between atoms: C_32  and  C_33
REMARK                            x       y       z     vdW  Elec       q    Type
REMARK                         _______ _______ _______ _____ _____    ______ ____
ROOT
ATOM      1  N   UNL     1       1.306   8.099  20.181  0.00  0.00    +0.000 N 
ATOM      2  C   UNL     1       1.347   6.758  20.720  0.00  0.00    +0.000 C 
ATOM      3  C   UNL     1       2.047   5.970  19.684  0.00  0.00    +0.000 A 
ATOM      4  C   UNL     1       2.507   6.812  18.675  0.00  0.00    +0.000 A 
ATOM      5  C   UNL     1       3.319   6.313  17.663  0.00  0.00    +0.000 A 
ATOM      6  C   UNL     1       3.635   4.933  17.678  0.00  0.00    +0.000 A 
ATOM      7  C   UNL     1       3.105   4.099  18.690  0.00  0.00    +0.000 A 
ATOM      8  C   UNL     1       2.277   4.605  19.701  0.00  0.00    +0.000 A 
ATOM      9  C   UNL     1       1.973   8.188  18.949  0.00  0.00    +0.000 C 
ATOM     10  O   UNL     1       2.115   9.134  18.197  0.00  0.00    +0.000 OA
ENDROOT
BRANCH   1  15
ATOM     11  C   UNL     1      -0.814  11.153  20.605  0.00  0.00    +0.000 A 
ATOM     12  C   UNL     1      -0.909  11.181  22.004  0.00  0.00    +0.000 A 
ATOM     13  C   UNL     1      -0.373  10.150  22.801  0.00  0.00    +0.000 A 
ATOM     14  C   UNL     1       0.304   9.069  22.225  0.00  0.00    +0.000 A 
ATOM     15  C   UNL     1       0.480   9.033  20.851  0.00  0.00    +0.000 A 
ATOM     16  C   UNL     1      -0.117  10.058  20.080  0.00  0.00    +0.000 A 
BRANCH  11  17
ATOM     17  C   UNL     1      -1.447  12.261  19.613  0.00  0.00    +0.000 C 
ATOM     18  C   UNL     1      -0.522  12.709  18.448  0.00  0.00    +0.000 C 
ATOM     19  O   UNL     1      -0.505  14.077  18.889  0.00  0.00    +0.000 OA
ATOM     20  C   UNL     1      -1.337  13.764  20.025  0.00  0.00    +0.000 C 
BRANCH  17  21
ATOM     21  C   UNL     1      -2.867  11.856  19.154  0.00  0.00    +0.000 C 
BRANCH  21  27
ATOM     22  C   UNL     1      -5.243  12.094  17.064  0.00  0.00    +0.000 C 
ATOM     23  N   UNL     1      -4.000  11.394  16.895  0.00  0.00    +0.000 N 
ATOM     24  C   UNL     1      -3.661  10.661  15.799  0.00  0.00    +0.000 A 
ATOM     25  N   UNL     1      -2.469  10.150  15.962  0.00  0.00    +0.000 NA
ATOM     26  N   UNL     1      -2.013  10.552  17.193  0.00  0.00    +0.000 NA
ATOM     27  C   UNL     1      -2.938  11.297  17.764  0.00  0.00    +0.000 A 
ENDBRANCH  21  27
ENDBRANCH  17  21
ENDBRANCH  11  17
ENDBRANCH   1  15
BRANCH   8  28
ATOM     28  C   UNL     1       1.666   3.689  20.733  0.00  0.00    +0.000 C 
ATOM     29  F   UNL     1       1.966   2.379  20.538  0.00  0.00    +0.000 F 
ATOM     30  F   UNL     1       2.086   3.979  21.993  0.00  0.00    +0.000 F 
ATOM     31  F   UNL     1       0.310   3.761  20.755  0.00  0.00    +0.000 F 
ENDBRANCH   8  28
BRANCH   6  32
ATOM     32  C   UNL     1       4.611   4.313  16.693  0.00  0.00    +0.000 C 
BRANCH  32  33
ATOM     33  N   UNL     1       6.043   4.506  16.890  0.00  0.00    +0.000 NA
ATOM     34  C   UNL     1       6.581   4.217  18.211  0.00  0.00    +0.000 C 
ATOM     35  C   UNL     1       6.580   5.408  19.164  0.00  0.00    +0.000 C 
ATOM     36  C   UNL     1       7.130   6.731  18.592  0.00  0.00    +0.000 C 
ATOM     37  C   UNL     1       6.808   6.937  17.110  0.00  0.00    +0.000 C 
ATOM     38  F   UNL     1       5.645   7.640  17.020  0.00  0.00    +0.000 F 
ATOM     39  F   UNL     1       7.744   7.749  16.542  0.00  0.00    +0.000 F 
ATOM     40  C   UNL     1       6.689   5.661  16.269  0.00  0.00    +0.000 C 
BRANCH  36  41
ATOM     41  C   UNL     1       8.621   6.899  18.886  0.00  0.00    +0.000 C 
BRANCH  41  42
ATOM     42  O   UNL     1       8.951   8.241  19.191  0.00  0.00    +0.000 OA
ATOM     43  H   UNL     1       9.496   8.234  19.997  0.00  0.00    +0.000 HD
ENDBRANCH  41  42
ENDBRANCH  36  41
ENDBRANCH  32  33
ENDBRANCH   6  32
TORSDOF 9
ENDMDL
