MODEL 1
REMARK VINA RESULT:      -8.6      0.000      0.000
REMARK  Name = 
REMARK  10 active torsions:
REMARK  status: ('A' for Active; 'I' for Inactive)
REMARK    1  A    between atoms: C_1  and  C_2
REMARK    2  A    between atoms: C_2  and  C_3
REMARK    3  A    between atoms: C_2  and  C_10
REMARK    4  A    between atoms: C_3  and  C_4
REMARK    5  A    between atoms: N_8  and  C_9
REMARK    6  A    between atoms: C_14  and  N_15
REMARK    7  A    between atoms: C_16  and  C_18
REMARK    8  A    between atoms: C_20  and  C_21
REMARK    9  A    between atoms: C_25  and  O_26
REMARK   10  A    between atoms: C_28  and  C_29
REMARK                            x       y       z     vdW  Elec       q    Type
REMARK                         _______ _______ _______ _____ _____    ______ ____
ROOT
ATOM      1  N   UNL     1       0.700   7.521  21.315  0.00  0.00    +0.000 N 
ATOM      2  C   UNL     1       1.639   7.299  20.335  0.00  0.00    +0.000 C 
ATOM      3  O   UNL     1       2.174   8.134  19.613  0.00  0.00    +0.000 OA
ATOM      4  H   UNL     1       0.382   6.697  21.819  0.00  0.00    +0.000 HD
ENDROOT
BRANCH   1   9
ATOM      5  C   UNL     1      -0.721  10.862  20.675  0.00  0.00    +0.000 A 
ATOM      6  C   UNL     1      -0.905  11.343  21.980  0.00  0.00    +0.000 A 
ATOM      7  C   UNL     1      -0.630  10.531  23.073  0.00  0.00    +0.000 A 
ATOM      8  C   UNL     1      -0.135   9.245  22.874  0.00  0.00    +0.000 A 
ATOM      9  C   UNL     1       0.074   8.751  21.585  0.00  0.00    +0.000 A 
ATOM     10  C   UNL     1      -0.271   9.546  20.491  0.00  0.00    +0.000 A 
BRANCH   5  12
ATOM     11  C   UNL     1      -0.032  13.089  19.611  0.00  0.00    +0.000 C 
ATOM     12  C   UNL     1      -0.870  11.813  19.502  0.00  0.00    +0.000 C 
BRANCH  12  13
ATOM     13  C   UNL     1      -2.361  12.065  19.182  0.00  0.00    +0.000 C 
BRANCH  13  14
ATOM     14  C   UNL     1      -2.832  11.659  17.815  0.00  0.00    +0.000 A 
ATOM     15  N   UNL     1      -2.060  11.236  16.829  0.00  0.00    +0.000 NA
ATOM     16  C   UNL     1      -2.904  10.820  15.835  0.00  0.00    +0.000 A 
ATOM     17  C   UNL     1      -4.214  10.998  16.204  0.00  0.00    +0.000 A 
ATOM     18  N   UNL     1      -4.157  11.578  17.442  0.00  0.00    +0.000 N 
ATOM     19  C   UNL     1      -5.308  11.991  18.209  0.00  0.00    +0.000 C 
ENDBRANCH  13  14
ENDBRANCH  12  13
ENDBRANCH   5  12
ENDBRANCH   1   9
BRANCH   2  20
ATOM     20  C   UNL     1       2.028   5.872  20.155  0.00  0.00    +0.000 A 
ATOM     21  C   UNL     1       2.351   5.452  18.881  0.00  0.00    +0.000 A 
ATOM     22  C   UNL     1       2.816   4.154  18.707  0.00  0.00    +0.000 A 
ATOM     23  C   UNL     1       2.795   3.285  19.793  0.00  0.00    +0.000 A 
ATOM     24  C   UNL     1       2.447   3.793  21.037  0.00  0.00    +0.000 A 
ATOM     25  N   UNL     1       2.091   5.077  21.258  0.00  0.00    +0.000 NA
BRANCH  22  26
ATOM     26  C   UNL     1       3.363   3.876  17.354  0.00  0.00    +0.000 C 
ATOM     27  O   UNL     1       2.597   3.349  16.545  0.00  0.00    +0.000 OA
ATOM     28  N   UNL     1       4.613   4.340  16.973  0.00  0.00    +0.000 N 
ATOM     29  C   UNL     1       4.952   4.367  15.559  0.00  0.00    +0.000 C 
ATOM     30  C   UNL     1       6.405   3.925  15.512  0.00  0.00    +0.000 C 
ATOM     31  C   UNL     1       6.988   4.463  16.815  0.00  0.00    +0.000 C 
ATOM     32  C   UNL     1       5.804   4.576  17.788  0.00  0.00    +0.000 C 
ATOM     33  C   UNL     1       5.830   5.939  18.477  0.00  0.00    +0.000 C 
BRANCH  30  34
ATOM     34  O   UNL     1       7.110   4.446  14.398  0.00  0.00    +0.000 OA
ATOM     35  H   UNL     1       6.476   4.593  13.674  0.00  0.00    +0.000 HD
ENDBRANCH  30  34
ENDBRANCH  22  26
ENDBRANCH   2  20
TORSDOF 7
ENDMDL
MODEL 2
REMARK VINA RESULT:      -8.4      1.681      2.078
REMARK  Name = 
REMARK  10 active torsions:
REMARK  status: ('A' for Active; 'I' for Inactive)
REMARK    1  A    between atoms: C_1  and  C_2
REMARK    2  A    between atoms: C_2  and  C_3
REMARK    3  A    between atoms: C_2  and  C_10
REMARK    4  A    between atoms: C_3  and  C_4
REMARK    5  A    between atoms: N_8  and  C_9
REMARK    6  A    between atoms: C_14  and  N_15
REMARK    7  A    between atoms: C_16  and  C_18
REMARK    8  A    between atoms: C_20  and  C_21
REMARK    9  A    between atoms: C_25  and  O_26
REMARK   10  A    between atoms: C_28  and  C_29
REMARK                            x       y       z     vdW  Elec       q    Type
REMARK                         _______ _______ _______ _____ _____    ______ ____
ROOT
ATOM      1  N   UNL     1       2.125   7.096  20.478  0.00  0.00    +0.000 N 
ATOM      2  C   UNL     1       1.618   5.817  20.514  0.00  0.00    +0.000 C 
ATOM      3  O   UNL     1       0.450   5.484  20.687  0.00  0.00    +0.000 OA
ATOM      4  H   UNL     1       3.124   7.171  20.311  0.00  0.00    +0.000 HD
ENDROOT
BRANCH   1   9
ATOM      5  C   UNL     1       0.572  10.393  19.925  0.00  0.00    +0.000 A 
ATOM      6  C   UNL     1       0.246  10.773  21.236  0.00  0.00    +0.000 A 
ATOM      7  C   UNL     1       0.471   9.903  22.295  0.00  0.00    +0.000 A 
ATOM      8  C   UNL     1       1.056   8.662  22.061  0.00  0.00    +0.000 A 
ATOM      9  C   UNL     1       1.406   8.269  20.767  0.00  0.00    +0.000 A 
ATOM     10  C   UNL     1       1.113   9.118  19.700  0.00  0.00    +0.000 A 
BRANCH   5  12
ATOM     11  C   UNL     1       1.642  12.398  18.741  0.00  0.00    +0.000 C 
ATOM     12  C   UNL     1       0.472  11.414  18.807  0.00  0.00    +0.000 C 
BRANCH  12  13
ATOM     13  C   UNL     1      -0.918  12.088  18.798  0.00  0.00    +0.000 C 
BRANCH  13  14
ATOM     14  C   UNL     1      -2.022  11.339  18.106  0.00  0.00    +0.000 A 
ATOM     15  N   UNL     1      -1.862  10.437  17.155  0.00  0.00    +0.000 NA
ATOM     16  C   UNL     1      -3.099   9.893  16.931  0.00  0.00    +0.000 A 
ATOM     17  C   UNL     1      -4.038  10.474  17.746  0.00  0.00    +0.000 A 
ATOM     18  N   UNL     1      -3.355  11.427  18.452  0.00  0.00    +0.000 N 
ATOM     19  C   UNL     1      -3.952  12.326  19.409  0.00  0.00    +0.000 C 
ENDBRANCH  13  14
ENDBRANCH  12  13
ENDBRANCH   5  12
ENDBRANCH   1   9
BRANCH   2  20
ATOM     20  C   UNL     1       2.627   4.740  20.320  0.00  0.00    +0.000 A 
ATOM     21  C   UNL     1       3.706   5.012  19.503  0.00  0.00    +0.000 A 
ATOM     22  C   UNL     1       4.711   4.059  19.390  0.00  0.00    +0.000 A 
ATOM     23  C   UNL     1       4.521   2.814  19.981  0.00  0.00    +0.000 A 
ATOM     24  C   UNL     1       3.401   2.627  20.779  0.00  0.00    +0.000 A 
ATOM     25  N   UNL     1       2.458   3.569  20.993  0.00  0.00    +0.000 NA
BRANCH  22  26
ATOM     26  C   UNL     1       5.932   4.537  18.691  0.00  0.00    +0.000 C 
ATOM     27  O   UNL     1       6.914   4.779  19.396  0.00  0.00    +0.000 OA
ATOM     28  N   UNL     1       6.013   4.546  17.307  0.00  0.00    +0.000 N 
ATOM     29  C   UNL     1       7.320   4.667  16.680  0.00  0.00    +0.000 C 
ATOM     30  C   UNL     1       7.084   5.589  15.495  0.00  0.00    +0.000 C 
ATOM     31  C   UNL     1       5.658   5.264  15.062  0.00  0.00    +0.000 C 
ATOM     32  C   UNL     1       4.953   4.725  16.316  0.00  0.00    +0.000 C 
ATOM     33  C   UNL     1       4.195   3.444  15.973  0.00  0.00    +0.000 C 
BRANCH  30  34
ATOM     34  O   UNL     1       7.993   5.369  14.429  0.00  0.00    +0.000 OA
ATOM     35  H   UNL     1       7.700   4.585  13.932  0.00  0.00    +0.000 HD
ENDBRANCH  30  34
ENDBRANCH  22  26
ENDBRANCH   2  20
TORSDOF 7
ENDMDL
MODEL 3
REMARK VINA RESULT:      -8.2      5.760      8.591
REMARK  Name = 
REMARK  10 active torsions:
REMARK  status: ('A' for Active; 'I' for Inactive)
REMARK    1  A    between atoms: C_1  and  C_2
REMARK    2  A    between atoms: C_2  and  C_3
REMARK    3  A    between atoms: C_2  and  C_10
REMARK    4  A    between atoms: C_3  and  C_4
REMARK    5  A    between atoms: N_8  and  C_9
REMARK    6  A    between atoms: C_14  and  N_15
REMARK    7  A    between atoms: C_16  and  C_18
REMARK    8  A    between atoms: C_20  and  C_21
REMARK    9  A    between atoms: C_25  and  O_26
REMARK   10  A    between atoms: C_28  and  C_29
REMARK                            x       y       z     vdW  Elec       q    Type
REMARK                         _______ _______ _______ _____ _____    ______ ____
ROOT
ATOM      1  N   UNL     1       8.566   8.575  18.418  0.00  0.00    +0.000 N 
ATOM      2  C   UNL     1       7.458   8.323  17.644  0.00  0.00    +0.000 C 
ATOM      3  O   UNL     1       6.669   9.142  17.184  0.00  0.00    +0.000 OA
ATOM      4  H   UNL     1       9.107   7.761  18.696  0.00  0.00    +0.000 HD
ENDROOT
BRANCH   1   9
ATOM      5  C   UNL     1       9.617  12.109  18.446  0.00  0.00    +0.000 A 
ATOM      6  C   UNL     1       9.936  12.296  19.799  0.00  0.00    +0.000 A 
ATOM      7  C   UNL     1       9.730  11.273  20.717  0.00  0.00    +0.000 A 
ATOM      8  C   UNL     1       9.239  10.044  20.286  0.00  0.00    +0.000 A 
ATOM      9  C   UNL     1       8.931   9.828  18.941  0.00  0.00    +0.000 A 
ATOM     10  C   UNL     1       9.073  10.882  18.037  0.00  0.00    +0.000 A 
BRANCH   5  12
ATOM     11  C   UNL     1      11.430  13.061  16.907  0.00  0.00    +0.000 C 
ATOM     12  C   UNL     1       9.999  13.174  17.435  0.00  0.00    +0.000 C 
BRANCH  12  13
ATOM     13  C   UNL     1       9.628  14.583  17.952  0.00  0.00    +0.000 C 
BRANCH  13  14
ATOM     14  C   UNL     1       8.170  14.845  18.197  0.00  0.00    +0.000 A 
ATOM     15  N   UNL     1       7.176  14.456  17.419  0.00  0.00    +0.000 NA
ATOM     16  C   UNL     1       6.022  14.754  18.093  0.00  0.00    +0.000 A 
ATOM     17  C   UNL     1       6.305  15.345  19.299  0.00  0.00    +0.000 A 
ATOM     18  N   UNL     1       7.669  15.446  19.333  0.00  0.00    +0.000 N 
ATOM     19  C   UNL     1       8.421  16.051  20.406  0.00  0.00    +0.000 C 
ENDBRANCH  13  14
ENDBRANCH  12  13
ENDBRANCH   5  12
ENDBRANCH   1   9
BRANCH   2  20
ATOM     20  C   UNL     1       7.215   6.883  17.351  0.00  0.00    +0.000 A 
ATOM     21  C   UNL     1       6.490   6.155  18.273  0.00  0.00    +0.000 A 
ATOM     22  C   UNL     1       6.164   4.838  17.972  0.00  0.00    +0.000 A 
ATOM     23  C   UNL     1       6.706   4.260  16.828  0.00  0.00    +0.000 A 
ATOM     24  C   UNL     1       7.430   5.067  15.962  0.00  0.00    +0.000 A 
ATOM     25  N   UNL     1       7.677   6.378  16.175  0.00  0.00    +0.000 NA
BRANCH  22  26
ATOM     26  C   UNL     1       5.185   4.221  18.904  0.00  0.00    +0.000 C 
ATOM     27  O   UNL     1       5.642   3.473  19.770  0.00  0.00    +0.000 OA
ATOM     28  N   UNL     1       3.851   4.601  18.904  0.00  0.00    +0.000 N 
ATOM     29  C   UNL     1       3.022   4.255  20.047  0.00  0.00    +0.000 C 
ATOM     30  C   UNL     1       1.687   3.861  19.437  0.00  0.00    +0.000 C 
ATOM     31  C   UNL     1       1.579   4.747  18.201  0.00  0.00    +0.000 C 
ATOM     32  C   UNL     1       3.023   5.084  17.800  0.00  0.00    +0.000 C 
ATOM     33  C   UNL     1       3.149   6.582  17.532  0.00  0.00    +0.000 C 
BRANCH  30  34
ATOM     34  O   UNL     1       0.590   4.081  20.307  0.00  0.00    +0.000 OA
ATOM     35  H   UNL     1       0.798   3.684  21.171  0.00  0.00    +0.000 HD
ENDBRANCH  30  34
ENDBRANCH  22  26
ENDBRANCH   2  20
TORSDOF 7
ENDMDL
MODEL 4
REMARK VINA RESULT:      -8.2      6.867      9.742
REMARK  Name = 
REMARK  10 active torsions:
REMARK  status: ('A' for Active; 'I' for Inactive)
REMARK    1  A    between atoms: C_1  and  C_2
REMARK    2  A    between atoms: C_2  and  C_3
REMARK    3  A    between atoms: C_2  and  C_10
REMARK    4  A    between atoms: C_3  and  C_4
REMARK    5  A    between atoms: N_8  and  C_9
REMARK    6  A    between atoms: C_14  and  N_15
REMARK    7  A    between atoms: C_16  and  C_18
REMARK    8  A    between atoms: C_20  and  C_21
REMARK    9  A    between atoms: C_25  and  O_26
REMARK   10  A    between atoms: C_28  and  C_29
REMARK                            x       y       z     vdW  Elec       q    Type
REMARK                         _______ _______ _______ _____ _____    ______ ____
ROOT
ATOM      1  N   UNL     1       8.538   8.482  18.316  0.00  0.00    +0.000 N 
ATOM      2  C   UNL     1       7.345   8.236  17.677  0.00  0.00    +0.000 C 
ATOM      3  O   UNL     1       6.486   9.054  17.366  0.00  0.00    +0.000 OA
ATOM      4  H   UNL     1       9.128   7.670  18.479  0.00  0.00    +0.000 HD
ENDROOT
BRANCH   1   9
ATOM      5  C   UNL     1       9.928  11.895  18.414  0.00  0.00    +0.000 A 
ATOM      6  C   UNL     1      10.038  12.113  19.796  0.00  0.00    +0.000 A 
ATOM      7  C   UNL     1       9.580  11.160  20.696  0.00  0.00    +0.000 A 
ATOM      8  C   UNL     1       9.042   9.965  20.226  0.00  0.00    +0.000 A 
ATOM      9  C   UNL     1       8.939   9.717  18.855  0.00  0.00    +0.000 A 
ATOM     10  C   UNL     1       9.335  10.708  17.957  0.00  0.00    +0.000 A 
BRANCH   5  12
ATOM     11  C   UNL     1      12.106  12.905  17.521  0.00  0.00    +0.000 C 
ATOM     12  C   UNL     1      10.578  12.870  17.451  0.00  0.00    +0.000 C 
BRANCH  12  13
ATOM     13  C   UNL     1       9.913  14.262  17.542  0.00  0.00    +0.000 C 
BRANCH  13  14
ATOM     14  C   UNL     1      10.832  15.432  17.752  0.00  0.00    +0.000 A 
ATOM     15  N   UNL     1      11.440  16.114  16.797  0.00  0.00    +0.000 NA
ATOM     16  C   UNL     1      12.034  17.184  17.411  0.00  0.00    +0.000 A 
ATOM     17  C   UNL     1      11.802  17.157  18.763  0.00  0.00    +0.000 A 
ATOM     18  N   UNL     1      11.081  16.014  18.977  0.00  0.00    +0.000 N 
ATOM     19  C   UNL     1      10.644  15.548  20.271  0.00  0.00    +0.000 C 
ENDBRANCH  13  14
ENDBRANCH  12  13
ENDBRANCH   5  12
ENDBRANCH   1   9
BRANCH   2  20
ATOM     20  C   UNL     1       7.100   6.807  17.340  0.00  0.00    +0.000 A 
ATOM     21  C   UNL     1       6.387   6.049  18.246  0.00  0.00    +0.000 A 
ATOM     22  C   UNL     1       6.057   4.742  17.906  0.00  0.00    +0.000 A 
ATOM     23  C   UNL     1       6.585   4.202  16.737  0.00  0.00    +0.000 A 
ATOM     24  C   UNL     1       7.298   5.037  15.889  0.00  0.00    +0.000 A 
ATOM     25  N   UNL     1       7.547   6.341  16.142  0.00  0.00    +0.000 NA
BRANCH  22  26
ATOM     26  C   UNL     1       5.090   4.094  18.830  0.00  0.00    +0.000 C 
ATOM     27  O   UNL     1       5.557   3.305  19.654  0.00  0.00    +0.000 OA
ATOM     28  N   UNL     1       3.761   4.486  18.873  0.00  0.00    +0.000 N 
ATOM     29  C   UNL     1       2.950   4.098  20.017  0.00  0.00    +0.000 C 
ATOM     30  C   UNL     1       1.600   3.743  19.417  0.00  0.00    +0.000 C 
ATOM     31  C   UNL     1       1.477   4.683  18.222  0.00  0.00    +0.000 C 
ATOM     32  C   UNL     1       2.916   5.024  17.808  0.00  0.00    +0.000 C 
ATOM     33  C   UNL     1       3.052   6.531  17.602  0.00  0.00    +0.000 C 
BRANCH  30  34
ATOM     34  O   UNL     1       0.522   3.935  20.317  0.00  0.00    +0.000 OA
ATOM     35  H   UNL     1       0.885   4.208  21.178  0.00  0.00    +0.000 HD
ENDBRANCH  30  34
ENDBRANCH  22  26
ENDBRANCH   2  20
TORSDOF 7
ENDMDL
MODEL 5
REMARK VINA RESULT:      -8.1      0.885      1.218
REMARK  Name = 
REMARK  10 active torsions:
REMARK  status: ('A' for Active; 'I' for Inactive)
REMARK    1  A    between atoms: C_1  and  C_2
REMARK    2  A    between atoms: C_2  and  C_3
REMARK    3  A    between atoms: C_2  and  C_10
REMARK    4  A    between atoms: C_3  and  C_4
REMARK    5  A    between atoms: N_8  and  C_9
REMARK    6  A    between atoms: C_14  and  N_15
REMARK    7  A    between atoms: C_16  and  C_18
REMARK    8  A    between atoms: C_20  and  C_21
REMARK    9  A    between atoms: C_25  and  O_26
REMARK   10  A    between atoms: C_28  and  C_29
REMARK                            x       y       z     vdW  Elec       q    Type
REMARK                         _______ _______ _______ _____ _____    ______ ____
ROOT
ATOM      1  N   UNL     1       0.740   7.522  21.334  0.00  0.00    +0.000 N 
ATOM      2  C   UNL     1       1.646   7.326  20.318  0.00  0.00    +0.000 C 
ATOM      3  O   UNL     1       2.124   8.175  19.573  0.00  0.00    +0.000 OA
ATOM      4  H   UNL     1       0.469   6.690  21.852  0.00  0.00    +0.000 HD
ENDROOT
BRANCH   1   9
ATOM      5  C   UNL     1      -0.769  10.836  20.755  0.00  0.00    +0.000 A 
ATOM      6  C   UNL     1      -0.950  11.295  22.068  0.00  0.00    +0.000 A 
ATOM      7  C   UNL     1      -0.644  10.475  23.147  0.00  0.00    +0.000 A 
ATOM      8  C   UNL     1      -0.120   9.204  22.925  0.00  0.00    +0.000 A 
ATOM      9  C   UNL     1       0.087   8.733  21.627  0.00  0.00    +0.000 A 
ATOM     10  C   UNL     1      -0.288   9.533  20.548  0.00  0.00    +0.000 A 
BRANCH   5  12
ATOM     11  C   UNL     1       0.319  12.543  19.184  0.00  0.00    +0.000 C 
ATOM     12  C   UNL     1      -0.953  11.798  19.596  0.00  0.00    +0.000 C 
BRANCH  12  13
ATOM     13  C   UNL     1      -2.172  12.718  19.832  0.00  0.00    +0.000 C 
BRANCH  13  14
ATOM     14  C   UNL     1      -3.486  12.244  19.279  0.00  0.00    +0.000 A 
ATOM     15  N   UNL     1      -3.653  11.595  18.140  0.00  0.00    +0.000 NA
ATOM     16  C   UNL     1      -4.968  11.213  18.107  0.00  0.00    +0.000 A 
ATOM     17  C   UNL     1      -5.625  11.640  19.234  0.00  0.00    +0.000 A 
ATOM     18  N   UNL     1      -4.689  12.338  19.947  0.00  0.00    +0.000 N 
ATOM     19  C   UNL     1      -4.944  13.014  21.197  0.00  0.00    +0.000 C 
ENDBRANCH  13  14
ENDBRANCH  12  13
ENDBRANCH   5  12
ENDBRANCH   1   9
BRANCH   2  20
ATOM     20  C   UNL     1       2.071   5.912  20.125  0.00  0.00    +0.000 A 
ATOM     21  C   UNL     1       2.486   5.534  18.864  0.00  0.00    +0.000 A 
ATOM     22  C   UNL     1       2.985   4.250  18.685  0.00  0.00    +0.000 A 
ATOM     23  C   UNL     1       2.907   3.350  19.743  0.00  0.00    +0.000 A 
ATOM     24  C   UNL     1       2.469   3.816  20.974  0.00  0.00    +0.000 A 
ATOM     25  N   UNL     1       2.075   5.087  21.207  0.00  0.00    +0.000 NA
BRANCH  22  26
ATOM     26  C   UNL     1       3.626   4.020  17.364  0.00  0.00    +0.000 C 
ATOM     27  O   UNL     1       2.914   3.542  16.480  0.00  0.00    +0.000 OA
ATOM     28  N   UNL     1       4.908   4.477  17.096  0.00  0.00    +0.000 N 
ATOM     29  C   UNL     1       5.350   4.559  15.713  0.00  0.00    +0.000 C 
ATOM     30  C   UNL     1       6.796   4.093  15.753  0.00  0.00    +0.000 C 
ATOM     31  C   UNL     1       7.289   4.564  17.118  0.00  0.00    +0.000 C 
ATOM     32  C   UNL     1       6.039   4.657  18.005  0.00  0.00    +0.000 C 
ATOM     33  C   UNL     1       6.034   5.988  18.754  0.00  0.00    +0.000 C 
BRANCH  30  34
ATOM     34  O   UNL     1       7.589   4.648  14.717  0.00  0.00    +0.000 OA
ATOM     35  H   UNL     1       7.009   5.163  14.129  0.00  0.00    +0.000 HD
ENDBRANCH  30  34
ENDBRANCH  22  26
ENDBRANCH   2  20
TORSDOF 7
ENDMDL
MODEL 6
REMARK VINA RESULT:      -8.1      2.870     10.032
REMARK  Name = 
REMARK  10 active torsions:
REMARK  status: ('A' for Active; 'I' for Inactive)
REMARK    1  A    between atoms: C_1  and  C_2
REMARK    2  A    between atoms: C_2  and  C_3
REMARK    3  A    between atoms: C_2  and  C_10
REMARK    4  A    between atoms: C_3  and  C_4
REMARK    5  A    between atoms: N_8  and  C_9
REMARK    6  A    between atoms: C_14  and  N_15
REMARK    7  A    between atoms: C_16  and  C_18
REMARK    8  A    between atoms: C_20  and  C_21
REMARK    9  A    between atoms: C_25  and  O_26
REMARK   10  A    between atoms: C_28  and  C_29
REMARK                            x       y       z     vdW  Elec       q    Type
REMARK                         _______ _______ _______ _____ _____    ______ ____
ROOT
ATOM      1  N   UNL     1       1.616   8.413  19.437  0.00  0.00    +0.000 N 
ATOM      2  C   UNL     1       0.747   9.112  20.242  0.00  0.00    +0.000 C 
ATOM      3  O   UNL     1       0.311   8.773  21.337  0.00  0.00    +0.000 OA
ATOM      4  H   UNL     1       1.872   8.866  18.564  0.00  0.00    +0.000 HD
ENDROOT
BRANCH   1   9
ATOM      5  C   UNL     1       3.005   5.080  18.689  0.00  0.00    +0.000 A 
ATOM      6  C   UNL     1       2.757   4.398  19.889  0.00  0.00    +0.000 A 
ATOM      7  C   UNL     1       2.199   5.064  20.973  0.00  0.00    +0.000 A 
ATOM      8  C   UNL     1       1.850   6.406  20.857  0.00  0.00    +0.000 A 
ATOM      9  C   UNL     1       2.070   7.102  19.667  0.00  0.00    +0.000 A 
ATOM     10  C   UNL     1       2.695   6.447  18.606  0.00  0.00    +0.000 A 
BRANCH   5  12
ATOM     11  C   UNL     1       2.512   3.180  17.043  0.00  0.00    +0.000 C 
ATOM     12  C   UNL     1       3.460   4.303  17.468  0.00  0.00    +0.000 C 
BRANCH  12  13
ATOM     13  C   UNL     1       4.933   3.860  17.615  0.00  0.00    +0.000 C 
BRANCH  13  14
ATOM     14  C   UNL     1       5.928   4.937  17.941  0.00  0.00    +0.000 A 
ATOM     15  N   UNL     1       6.743   4.943  18.981  0.00  0.00    +0.000 NA
ATOM     16  C   UNL     1       7.583   6.010  18.804  0.00  0.00    +0.000 A 
ATOM     17  C   UNL     1       7.276   6.679  17.646  0.00  0.00    +0.000 A 
ATOM     18  N   UNL     1       6.192   6.021  17.132  0.00  0.00    +0.000 N 
ATOM     19  C   UNL     1       5.493   6.405  15.929  0.00  0.00    +0.000 C 
ENDBRANCH  13  14
ENDBRANCH  12  13
ENDBRANCH   5  12
ENDBRANCH   1   9
BRANCH   2  20
ATOM     20  C   UNL     1       0.302  10.422  19.691  0.00  0.00    +0.000 A 
ATOM     21  C   UNL     1      -1.022  10.773  19.860  0.00  0.00    +0.000 A 
ATOM     22  C   UNL     1      -1.434  12.034  19.447  0.00  0.00    +0.000 A 
ATOM     23  C   UNL     1      -0.537  12.833  18.745  0.00  0.00    +0.000 A 
ATOM     24  C   UNL     1       0.774  12.396  18.615  0.00  0.00    +0.000 A 
ATOM     25  N   UNL     1       1.232  11.220  19.098  0.00  0.00    +0.000 NA
BRANCH  22  26
ATOM     26  C   UNL     1      -2.803  12.406  19.888  0.00  0.00    +0.000 C 
ATOM     27  O   UNL     1      -2.887  13.098  20.904  0.00  0.00    +0.000 OA
ATOM     28  N   UNL     1      -3.913  12.131  19.103  0.00  0.00    +0.000 N 
ATOM     29  C   UNL     1      -5.162  12.821  19.386  0.00  0.00    +0.000 C 
ATOM     30  C   UNL     1      -6.230  11.758  19.191  0.00  0.00    +0.000 C 
ATOM     31  C   UNL     1      -5.663  10.873  18.086  0.00  0.00    +0.000 C 
ATOM     32  C   UNL     1      -4.137  11.034  18.163  0.00  0.00    +0.000 C 
ATOM     33  C   UNL     1      -3.572  11.282  16.766  0.00  0.00    +0.000 C 
BRANCH  30  34
ATOM     34  O   UNL     1      -7.485  12.293  18.808  0.00  0.00    +0.000 OA
ATOM     35  H   UNL     1      -7.472  13.253  18.967  0.00  0.00    +0.000 HD
ENDBRANCH  30  34
ENDBRANCH  22  26
ENDBRANCH   2  20
TORSDOF 7
ENDMDL
MODEL 7
REMARK VINA RESULT:      -8.1      1.649      2.212
REMARK  Name = 
REMARK  10 active torsions:
REMARK  status: ('A' for Active; 'I' for Inactive)
REMARK    1  A    between atoms: C_1  and  C_2
REMARK    2  A    between atoms: C_2  and  C_3
REMARK    3  A    between atoms: C_2  and  C_10
REMARK    4  A    between atoms: C_3  and  C_4
REMARK    5  A    between atoms: N_8  and  C_9
REMARK    6  A    between atoms: C_14  and  N_15
REMARK    7  A    between atoms: C_16  and  C_18
REMARK    8  A    between atoms: C_20  and  C_21
REMARK    9  A    between atoms: C_25  and  O_26
REMARK   10  A    between atoms: C_28  and  C_29
REMARK                            x       y       z     vdW  Elec       q    Type
REMARK                         _______ _______ _______ _____ _____    ______ ____
ROOT
ATOM      1  N   UNL     1       2.051   7.165  20.540  0.00  0.00    +0.000 N 
ATOM      2  C   UNL     1       1.551   5.884  20.564  0.00  0.00    +0.000 C 
ATOM      3  O   UNL     1       0.381   5.544  20.707  0.00  0.00    +0.000 OA
ATOM      4  H   UNL     1       3.054   7.246  20.398  0.00  0.00    +0.000 HD
ENDROOT
BRANCH   1   9
ATOM      5  C   UNL     1       0.198  10.284  19.879  0.00  0.00    +0.000 A 
ATOM      6  C   UNL     1       0.093  10.825  21.169  0.00  0.00    +0.000 A 
ATOM      7  C   UNL     1       0.568  10.121  22.267  0.00  0.00    +0.000 A 
ATOM      8  C   UNL     1       1.185   8.886  22.085  0.00  0.00    +0.000 A 
ATOM      9  C   UNL     1       1.318   8.335  20.809  0.00  0.00    +0.000 A 
ATOM     10  C   UNL     1       0.776   9.015  19.718  0.00  0.00    +0.000 A 
BRANCH   5  12
ATOM     11  C   UNL     1      -0.620  12.556  19.026  0.00  0.00    +0.000 C 
ATOM     12  C   UNL     1      -0.176  11.134  18.679  0.00  0.00    +0.000 C 
BRANCH  12  13
ATOM     13  C   UNL     1      -1.153  10.379  17.751  0.00  0.00    +0.000 C 
BRANCH  13  14
ATOM     14  C   UNL     1      -2.578  10.852  17.750  0.00  0.00    +0.000 A 
ATOM     15  N   UNL     1      -3.255  11.258  18.809  0.00  0.00    +0.000 NA
ATOM     16  C   UNL     1      -4.442  11.754  18.338  0.00  0.00    +0.000 A 
ATOM     17  C   UNL     1      -4.506  11.641  16.972  0.00  0.00    +0.000 A 
ATOM     18  N   UNL     1      -3.340  11.022  16.613  0.00  0.00    +0.000 N 
ATOM     19  C   UNL     1      -2.987  10.655  15.262  0.00  0.00    +0.000 C 
ENDBRANCH  13  14
ENDBRANCH  12  13
ENDBRANCH   5  12
ENDBRANCH   1   9
BRANCH   2  20
ATOM     20  C   UNL     1       2.572   4.812  20.397  0.00  0.00    +0.000 A 
ATOM     21  C   UNL     1       3.651   5.077  19.579  0.00  0.00    +0.000 A 
ATOM     22  C   UNL     1       4.666   4.132  19.490  0.00  0.00    +0.000 A 
ATOM     23  C   UNL     1       4.486   2.898  20.107  0.00  0.00    +0.000 A 
ATOM     24  C   UNL     1       3.365   2.717  20.904  0.00  0.00    +0.000 A 
ATOM     25  N   UNL     1       2.411   3.655  21.095  0.00  0.00    +0.000 NA
BRANCH  22  26
ATOM     26  C   UNL     1       5.885   4.607  18.785  0.00  0.00    +0.000 C 
ATOM     27  O   UNL     1       6.860   4.877  19.489  0.00  0.00    +0.000 OA
ATOM     28  N   UNL     1       5.972   4.583  17.401  0.00  0.00    +0.000 N 
ATOM     29  C   UNL     1       7.281   4.704  16.778  0.00  0.00    +0.000 C 
ATOM     30  C   UNL     1       7.041   5.593  15.570  0.00  0.00    +0.000 C 
ATOM     31  C   UNL     1       5.621   5.241  15.138  0.00  0.00    +0.000 C 
ATOM     32  C   UNL     1       4.916   4.725  16.401  0.00  0.00    +0.000 C 
ATOM     33  C   UNL     1       4.174   3.428  16.086  0.00  0.00    +0.000 C 
BRANCH  30  34
ATOM     34  O   UNL     1       7.957   5.358  14.514  0.00  0.00    +0.000 OA
ATOM     35  H   UNL     1       8.655   4.763  14.839  0.00  0.00    +0.000 HD
ENDBRANCH  30  34
ENDBRANCH  22  26
ENDBRANCH   2  20
TORSDOF 7
ENDMDL
MODEL 8
REMARK VINA RESULT:      -8.1      2.957     10.163
REMARK  Name = 
REMARK  10 active torsions:
REMARK  status: ('A' for Active; 'I' for Inactive)
REMARK    1  A    between atoms: C_1  and  C_2
REMARK    2  A    between atoms: C_2  and  C_3
REMARK    3  A    between atoms: C_2  and  C_10
REMARK    4  A    between atoms: C_3  and  C_4
REMARK    5  A    between atoms: N_8  and  C_9
REMARK    6  A    between atoms: C_14  and  N_15
REMARK    7  A    between atoms: C_16  and  C_18
REMARK    8  A    between atoms: C_20  and  C_21
REMARK    9  A    between atoms: C_25  and  O_26
REMARK   10  A    between atoms: C_28  and  C_29
REMARK                            x       y       z     vdW  Elec       q    Type
REMARK                         _______ _______ _______ _____ _____    ______ ____
ROOT
ATOM      1  N   UNL     1       1.561   8.666  19.306  0.00  0.00    +0.000 N 
ATOM      2  C   UNL     1       1.049   9.521  20.254  0.00  0.00    +0.000 C 
ATOM      3  O   UNL     1       1.048   9.367  21.471  0.00  0.00    +0.000 OA
ATOM      4  H   UNL     1       1.477   8.975  18.341  0.00  0.00    +0.000 HD
ENDROOT
BRANCH   1   9
ATOM      5  C   UNL     1       3.390   5.523  18.697  0.00  0.00    +0.000 A 
ATOM      6  C   UNL     1       2.934   4.725  19.757  0.00  0.00    +0.000 A 
ATOM      7  C   UNL     1       2.080   5.252  20.717  0.00  0.00    +0.000 A 
ATOM      8  C   UNL     1       1.644   6.570  20.608  0.00  0.00    +0.000 A 
ATOM      9  C   UNL     1       2.069   7.379  19.552  0.00  0.00    +0.000 A 
ATOM     10  C   UNL     1       2.982   6.865  18.631  0.00  0.00    +0.000 A 
BRANCH   5  12
ATOM     11  C   UNL     1       3.537   3.646  16.960  0.00  0.00    +0.000 C 
ATOM     12  C   UNL     1       4.187   4.888  17.574  0.00  0.00    +0.000 C 
BRANCH  12  13
ATOM     13  C   UNL     1       5.661   4.686  17.990  0.00  0.00    +0.000 C 
BRANCH  13  14
ATOM     14  C   UNL     1       6.569   5.874  17.842  0.00  0.00    +0.000 A 
ATOM     15  N   UNL     1       6.442   6.832  16.942  0.00  0.00    +0.000 NA
ATOM     16  C   UNL     1       7.367   7.788  17.268  0.00  0.00    +0.000 A 
ATOM     17  C   UNL     1       8.084   7.411  18.375  0.00  0.00    +0.000 A 
ATOM     18  N   UNL     1       7.606   6.171  18.702  0.00  0.00    +0.000 N 
ATOM     19  C   UNL     1       8.101   5.359  19.787  0.00  0.00    +0.000 C 
ENDBRANCH  13  14
ENDBRANCH  12  13
ENDBRANCH   5  12
ENDBRANCH   1   9
BRANCH   2  20
ATOM     20  C   UNL     1       0.432  10.762  19.710  0.00  0.00    +0.000 A 
ATOM     21  C   UNL     1      -0.910  10.970  19.954  0.00  0.00    +0.000 A 
ATOM     22  C   UNL     1      -1.482  12.169  19.545  0.00  0.00    +0.000 A 
ATOM     23  C   UNL     1      -0.721  13.044  18.776  0.00  0.00    +0.000 A 
ATOM     24  C   UNL     1       0.619  12.748  18.573  0.00  0.00    +0.000 A 
ATOM     25  N   UNL     1       1.231  11.641  19.046  0.00  0.00    +0.000 NA
BRANCH  22  26
ATOM     26  C   UNL     1      -2.855  12.401  20.063  0.00  0.00    +0.000 C 
ATOM     27  O   UNL     1      -2.947  13.000  21.136  0.00  0.00    +0.000 OA
ATOM     28  N   UNL     1      -3.974  12.109  19.296  0.00  0.00    +0.000 N 
ATOM     29  C   UNL     1      -5.256  12.678  19.679  0.00  0.00    +0.000 C 
ATOM     30  C   UNL     1      -6.253  11.558  19.433  0.00  0.00    +0.000 C 
ATOM     31  C   UNL     1      -5.669  10.811  18.238  0.00  0.00    +0.000 C 
ATOM     32  C   UNL     1      -4.157  11.078  18.276  0.00  0.00    +0.000 C 
ATOM     33  C   UNL     1      -3.668  11.480  16.886  0.00  0.00    +0.000 C 
BRANCH  30  34
ATOM     34  O   UNL     1      -7.558  12.027  19.140  0.00  0.00    +0.000 OA
ATOM     35  H   UNL     1      -7.919  11.494  18.410  0.00  0.00    +0.000 HD
ENDBRANCH  30  34
ENDBRANCH  22  26
ENDBRANCH   2  20
TORSDOF 7
ENDMDL
MODEL 9
REMARK VINA RESULT:      -8.1      5.766      8.916
REMARK  Name = 
REMARK  10 active torsions:
REMARK  status: ('A' for Active; 'I' for Inactive)
REMARK    1  A    between atoms: C_1  and  C_2
REMARK    2  A    between atoms: C_2  and  C_3
REMARK    3  A    between atoms: C_2  and  C_10
REMARK    4  A    between atoms: C_3  and  C_4
REMARK    5  A    between atoms: N_8  and  C_9
REMARK    6  A    between atoms: C_14  and  N_15
REMARK    7  A    between atoms: C_16  and  C_18
REMARK    8  A    between atoms: C_20  and  C_21
REMARK    9  A    between atoms: C_25  and  O_26
REMARK   10  A    between atoms: C_28  and  C_29
REMARK                            x       y       z     vdW  Elec       q    Type
REMARK                         _______ _______ _______ _____ _____    ______ ____
ROOT
ATOM      1  N   UNL     1       7.927   8.992  18.028  0.00  0.00    +0.000 N 
ATOM      2  C   UNL     1       7.940   7.658  18.364  0.00  0.00    +0.000 C 
ATOM      3  O   UNL     1       8.726   7.086  19.111  0.00  0.00    +0.000 OA
ATOM      4  H   UNL     1       7.184   9.283  17.399  0.00  0.00    +0.000 HD
ENDROOT
BRANCH   1   9
ATOM      5  C   UNL     1       9.774  11.402  20.120  0.00  0.00    +0.000 A 
ATOM      6  C   UNL     1      10.608  12.014  19.172  0.00  0.00    +0.000 A 
ATOM      7  C   UNL     1      10.613  11.575  17.854  0.00  0.00    +0.000 A 
ATOM      8  C   UNL     1       9.761  10.546  17.463  0.00  0.00    +0.000 A 
ATOM      9  C   UNL     1       8.908   9.934  18.384  0.00  0.00    +0.000 A 
ATOM     10  C   UNL     1       8.959  10.332  19.720  0.00  0.00    +0.000 A 
BRANCH   5  12
ATOM     11  C   UNL     1       8.431  11.541  22.297  0.00  0.00    +0.000 C 
ATOM     12  C   UNL     1       9.662  11.998  21.511  0.00  0.00    +0.000 C 
BRANCH  12  13
ATOM     13  C   UNL     1       9.848  13.531  21.470  0.00  0.00    +0.000 C 
BRANCH  13  14
ATOM     14  C   UNL     1       8.607  14.352  21.262  0.00  0.00    +0.000 A 
ATOM     15  N   UNL     1       7.938  14.463  20.128  0.00  0.00    +0.000 NA
ATOM     16  C   UNL     1       6.798  15.161  20.423  0.00  0.00    +0.000 A 
ATOM     17  C   UNL     1       6.766  15.497  21.753  0.00  0.00    +0.000 A 
ATOM     18  N   UNL     1       7.943  15.024  22.267  0.00  0.00    +0.000 N 
ATOM     19  C   UNL     1       8.367  15.189  23.636  0.00  0.00    +0.000 C 
ENDBRANCH  13  14
ENDBRANCH  12  13
ENDBRANCH   5  12
ENDBRANCH   1   9
BRANCH   2  20
ATOM     20  C   UNL     1       6.865   6.844  17.730  0.00  0.00    +0.000 A 
ATOM     21  C   UNL     1       6.406   5.741  18.420  0.00  0.00    +0.000 A 
ATOM     22  C   UNL     1       5.334   5.028  17.896  0.00  0.00    +0.000 A 
ATOM     23  C   UNL     1       4.864   5.362  16.630  0.00  0.00    +0.000 A 
ATOM     24  C   UNL     1       5.391   6.484  16.006  0.00  0.00    +0.000 A 
ATOM     25  N   UNL     1       6.362   7.259  16.536  0.00  0.00    +0.000 NA
BRANCH  22  26
ATOM     26  C   UNL     1       4.762   4.015  18.821  0.00  0.00    +0.000 C 
ATOM     27  O   UNL     1       5.508   3.098  19.167  0.00  0.00    +0.000 OA
ATOM     28  N   UNL     1       3.511   4.189  19.395  0.00  0.00    +0.000 N 
ATOM     29  C   UNL     1       3.150   3.383  20.550  0.00  0.00    +0.000 C 
ATOM     30  C   UNL     1       1.691   3.028  20.319  0.00  0.00    +0.000 C 
ATOM     31  C   UNL     1       1.136   4.242  19.581  0.00  0.00    +0.000 C 
ATOM     32  C   UNL     1       2.337   4.884  18.870  0.00  0.00    +0.000 C 
ATOM     33  C   UNL     1       2.339   6.391  19.118  0.00  0.00    +0.000 C 
BRANCH  30  34
ATOM     34  O   UNL     1       0.974   2.804  21.521  0.00  0.00    +0.000 OA
ATOM     35  H   UNL     1       1.554   3.027  22.270  0.00  0.00    +0.000 HD
ENDBRANCH  30  34
ENDBRANCH  22  26
ENDBRANCH   2  20
TORSDOF 7
ENDMDL
