MODEL 1
REMARK VINA RESULT:      -8.8      0.000      0.000
REMARK  Name = 
REMARK  7 active torsions:
REMARK  status: ('A' for Active; 'I' for Inactive)
REMARK    1  A    between atoms: C_1  and  C_2
REMARK    2  A    between atoms: C_2  and  C_3
REMARK    3  A    between atoms: C_2  and  C_10
REMARK    4  A    between atoms: C_3  and  C_4
REMARK    5  A    between atoms: N_8  and  C_9
REMARK    6  A    between atoms: C_14  and  C_15
REMARK    7  A    between atoms: C_21  and  C_22
REMARK                            x       y       z     vdW  Elec       q    Type
REMARK                         _______ _______ _______ _____ _____    ______ ____
ROOT
ATOM      1  C   UNL     1       0.389   9.935  19.295  0.00  0.00    +0.000 A 
ATOM      2  C   UNL     1       0.170   9.660  20.652  0.00  0.00    +0.000 A 
ATOM      3  C   UNL     1       0.887   8.656  21.304  0.00  0.00    +0.000 A 
ATOM      4  C   UNL     1       1.787   7.859  20.597  0.00  0.00    +0.000 A 
ATOM      5  C   UNL     1       1.936   8.029  19.215  0.00  0.00    +0.000 A 
ATOM      6  C   UNL     1       1.248   9.079  18.588  0.00  0.00    +0.000 A 
ENDROOT
BRANCH   5   7
ATOM      7  C   UNL     1       2.753   7.113  18.423  0.00  0.00    +0.000 A 
ATOM      8  N   UNL     1       3.777   7.493  17.592  0.00  0.00    +0.000 N 
ATOM      9  N   UNL     1       4.446   6.483  16.997  0.00  0.00    +0.000 NA
ATOM     10  C   UNL     1       3.818   5.369  17.426  0.00  0.00    +0.000 A 
ATOM     11  C   UNL     1       4.085   4.030  17.110  0.00  0.00    +0.000 A 
ATOM     12  C   UNL     1       3.213   3.131  17.748  0.00  0.00    +0.000 A 
ATOM     13  C   UNL     1       2.169   3.572  18.618  0.00  0.00    +0.000 A 
ATOM     14  N   UNL     1       1.914   4.886  18.937  0.00  0.00    +0.000 NA
ATOM     15  C   UNL     1       2.754   5.740  18.313  0.00  0.00    +0.000 A 
ATOM     16  H   UNL     1       4.068   8.440  17.382  0.00  0.00    +0.000 HD
BRANCH  13  17
ATOM     17  C   UNL     1       1.256   2.524  19.253  0.00  0.00    +0.000 C 
ATOM     18  F   UNL     1       1.875   1.339  19.493  0.00  0.00    +0.000 F 
ATOM     19  F   UNL     1       0.743   2.919  20.455  0.00  0.00    +0.000 F 
ATOM     20  F   UNL     1       0.178   2.220  18.466  0.00  0.00    +0.000 F 
ENDBRANCH  13  17
ENDBRANCH   5   7
BRANCH   1  22
ATOM     21  C   UNL     1       0.439  12.487  18.889  0.00  0.00    +0.000 C 
ATOM     22  C   UNL     1      -0.279  11.148  18.650  0.00  0.00    +0.000 C 
BRANCH  22  23
ATOM     23  C   UNL     1      -1.785  11.273  19.022  0.00  0.00    +0.000 C 
BRANCH  23  24
ATOM     24  C   UNL     1      -2.690  11.329  17.835  0.00  0.00    +0.000 A 
ATOM     25  N   UNL     1      -2.344  11.119  16.580  0.00  0.00    +0.000 NA
ATOM     26  N   UNL     1      -3.484  11.123  15.810  0.00  0.00    +0.000 NA
ATOM     27  C   UNL     1      -4.497  11.366  16.607  0.00  0.00    +0.000 A 
ATOM     28  N   UNL     1      -4.036  11.593  17.867  0.00  0.00    +0.000 N 
ATOM     29  C   UNL     1      -4.820  12.066  18.976  0.00  0.00    +0.000 C 
ENDBRANCH  23  24
ENDBRANCH  22  23
ENDBRANCH   1  22
TORSDOF 5
ENDMDL
MODEL 2
REMARK VINA RESULT:      -8.6      3.816      4.707
REMARK  Name = 
REMARK  7 active torsions:
REMARK  status: ('A' for Active; 'I' for Inactive)
REMARK    1  A    between atoms: C_1  and  C_2
REMARK    2  A    between atoms: C_2  and  C_3
REMARK    3  A    between atoms: C_2  and  C_10
REMARK    4  A    between atoms: C_3  and  C_4
REMARK    5  A    between atoms: N_8  and  C_9
REMARK    6  A    between atoms: C_14  and  C_15
REMARK    7  A    between atoms: C_21  and  C_22
REMARK                            x       y       z     vdW  Elec       q    Type
REMARK                         _______ _______ _______ _____ _____    ______ ____
ROOT
ATOM      1  C   UNL     1       0.879   9.759  20.623  0.00  0.00    +0.000 A 
ATOM      2  C   UNL     1       0.988  10.473  19.422  0.00  0.00    +0.000 A 
ATOM      3  C   UNL     1       1.457   9.856  18.261  0.00  0.00    +0.000 A 
ATOM      4  C   UNL     1       1.894   8.531  18.294  0.00  0.00    +0.000 A 
ATOM      5  C   UNL     1       1.911   7.831  19.506  0.00  0.00    +0.000 A 
ATOM      6  C   UNL     1       1.384   8.449  20.650  0.00  0.00    +0.000 A 
ENDROOT
BRANCH   5   7
ATOM      7  C   UNL     1       2.503   6.498  19.602  0.00  0.00    +0.000 A 
ATOM      8  N   UNL     1       2.275   5.609  20.621  0.00  0.00    +0.000 N 
ATOM      9  N   UNL     1       2.872   4.406  20.488  0.00  0.00    +0.000 NA
ATOM     10  C   UNL     1       3.563   4.505  19.333  0.00  0.00    +0.000 A 
ATOM     11  C   UNL     1       4.382   3.552  18.713  0.00  0.00    +0.000 A 
ATOM     12  C   UNL     1       4.947   4.012  17.511  0.00  0.00    +0.000 A 
ATOM     13  C   UNL     1       4.696   5.325  17.006  0.00  0.00    +0.000 A 
ATOM     14  N   UNL     1       3.882   6.256  17.610  0.00  0.00    +0.000 NA
ATOM     15  C   UNL     1       3.351   5.804  18.766  0.00  0.00    +0.000 A 
ATOM     16  H   UNL     1       1.717   5.769  21.452  0.00  0.00    +0.000 HD
BRANCH  13  17
ATOM     17  C   UNL     1       5.368   5.747  15.701  0.00  0.00    +0.000 C 
ATOM     18  F   UNL     1       6.718   5.870  15.801  0.00  0.00    +0.000 F 
ATOM     19  F   UNL     1       5.156   4.866  14.680  0.00  0.00    +0.000 F 
ATOM     20  F   UNL     1       4.924   6.960  15.249  0.00  0.00    +0.000 F 
ENDBRANCH  13  17
ENDBRANCH   5   7
BRANCH   1  22
ATOM     21  C   UNL     1      -0.408   9.415  22.839  0.00  0.00    +0.000 C 
ATOM     22  C   UNL     1       0.202  10.405  21.830  0.00  0.00    +0.000 C 
BRANCH  22  23
ATOM     23  C   UNL     1      -0.852  11.477  21.426  0.00  0.00    +0.000 C 
BRANCH  23  24
ATOM     24  C   UNL     1      -0.870  12.666  22.329  0.00  0.00    +0.000 A 
ATOM     25  N   UNL     1       0.084  13.570  22.448  0.00  0.00    +0.000 NA
ATOM     26  N   UNL     1      -0.371  14.573  23.271  0.00  0.00    +0.000 NA
ATOM     27  C   UNL     1      -1.579  14.246  23.661  0.00  0.00    +0.000 A 
ATOM     28  N   UNL     1      -1.896  13.017  23.170  0.00  0.00    +0.000 N 
ATOM     29  C   UNL     1      -3.056  12.244  23.523  0.00  0.00    +0.000 C 
ENDBRANCH  23  24
ENDBRANCH  22  23
ENDBRANCH   1  22
TORSDOF 5
ENDMDL
MODEL 3
REMARK VINA RESULT:      -8.5      0.650      1.052
REMARK  Name = 
REMARK  7 active torsions:
REMARK  status: ('A' for Active; 'I' for Inactive)
REMARK    1  A    between atoms: C_1  and  C_2
REMARK    2  A    between atoms: C_2  and  C_3
REMARK    3  A    between atoms: C_2  and  C_10
REMARK    4  A    between atoms: C_3  and  C_4
REMARK    5  A    between atoms: N_8  and  C_9
REMARK    6  A    between atoms: C_14  and  C_15
REMARK    7  A    between atoms: C_21  and  C_22
REMARK                            x       y       z     vdW  Elec       q    Type
REMARK                         _______ _______ _______ _____ _____    ______ ____
ROOT
ATOM      1  C   UNL     1       0.255  10.170  19.322  0.00  0.00    +0.000 A 
ATOM      2  C   UNL     1      -0.069   9.893  20.657  0.00  0.00    +0.000 A 
ATOM      3  C   UNL     1       0.583   8.876  21.356  0.00  0.00    +0.000 A 
ATOM      4  C   UNL     1       1.523   8.070  20.714  0.00  0.00    +0.000 A 
ATOM      5  C   UNL     1       1.778   8.244  19.349  0.00  0.00    +0.000 A 
ATOM      6  C   UNL     1       1.154   9.305  18.677  0.00  0.00    +0.000 A 
ENDROOT
BRANCH   5   7
ATOM      7  C   UNL     1       2.640   7.320  18.615  0.00  0.00    +0.000 A 
ATOM      8  N   UNL     1       3.505   7.681  17.614  0.00  0.00    +0.000 N 
ATOM      9  N   UNL     1       4.256   6.680  17.107  0.00  0.00    +0.000 NA
ATOM     10  C   UNL     1       3.851   5.585  17.782  0.00  0.00    +0.000 A 
ATOM     11  C   UNL     1       4.284   4.259  17.651  0.00  0.00    +0.000 A 
ATOM     12  C   UNL     1       3.627   3.377  18.527  0.00  0.00    +0.000 A 
ATOM     13  C   UNL     1       2.621   3.821  19.440  0.00  0.00    +0.000 A 
ATOM     14  N   UNL     1       2.205   5.125  19.576  0.00  0.00    +0.000 NA
ATOM     15  C   UNL     1       2.838   5.961  18.725  0.00  0.00    +0.000 A 
ATOM     16  H   UNL     1       3.628   8.607  17.222  0.00  0.00    +0.000 HD
BRANCH  13  17
ATOM     17  C   UNL     1       1.947   2.789  20.341  0.00  0.00    +0.000 C 
ATOM     18  F   UNL     1       0.802   3.238  20.918  0.00  0.00    +0.000 F 
ATOM     19  F   UNL     1       1.599   1.646  19.680  0.00  0.00    +0.000 F 
ATOM     20  F   UNL     1       2.747   2.393  21.379  0.00  0.00    +0.000 F 
ENDBRANCH  13  17
ENDBRANCH   5   7
BRANCH   1  22
ATOM     21  C   UNL     1       0.457  12.696  18.808  0.00  0.00    +0.000 C 
ATOM     22  C   UNL     1      -0.346  11.395  18.635  0.00  0.00    +0.000 C 
BRANCH  22  23
ATOM     23  C   UNL     1      -1.836  11.629  19.019  0.00  0.00    +0.000 C 
BRANCH  23  24
ATOM     24  C   UNL     1      -2.777  11.503  17.866  0.00  0.00    +0.000 A 
ATOM     25  N   UNL     1      -2.449  11.221  16.619  0.00  0.00    +0.000 NA
ATOM     26  N   UNL     1      -3.607  11.058  15.895  0.00  0.00    +0.000 NA
ATOM     27  C   UNL     1      -4.614  11.274  16.706  0.00  0.00    +0.000 A 
ATOM     28  N   UNL     1      -4.140  11.647  17.926  0.00  0.00    +0.000 N 
ATOM     29  C   UNL     1      -4.931  12.138  19.021  0.00  0.00    +0.000 C 
ENDBRANCH  23  24
ENDBRANCH  22  23
ENDBRANCH   1  22
TORSDOF 5
ENDMDL
MODEL 4
REMARK VINA RESULT:      -8.4      3.911      8.214
REMARK  Name = 
REMARK  7 active torsions:
REMARK  status: ('A' for Active; 'I' for Inactive)
REMARK    1  A    between atoms: C_1  and  C_2
REMARK    2  A    between atoms: C_2  and  C_3
REMARK    3  A    between atoms: C_2  and  C_10
REMARK    4  A    between atoms: C_3  and  C_4
REMARK    5  A    between atoms: N_8  and  C_9
REMARK    6  A    between atoms: C_14  and  C_15
REMARK    7  A    between atoms: C_21  and  C_22
REMARK                            x       y       z     vdW  Elec       q    Type
REMARK                         _______ _______ _______ _____ _____    ______ ____
ROOT
ATOM      1  C   UNL     1       2.958   4.200  18.612  0.00  0.00    +0.000 A 
ATOM      2  C   UNL     1       2.792   3.756  19.932  0.00  0.00    +0.000 A 
ATOM      3  C   UNL     1       2.224   4.586  20.900  0.00  0.00    +0.000 A 
ATOM      4  C   UNL     1       1.876   5.900  20.586  0.00  0.00    +0.000 A 
ATOM      5  C   UNL     1       2.144   6.409  19.310  0.00  0.00    +0.000 A 
ATOM      6  C   UNL     1       2.663   5.545  18.335  0.00  0.00    +0.000 A 
ENDROOT
BRANCH   5   7
ATOM      7  C   UNL     1       1.932   7.821  18.997  0.00  0.00    +0.000 A 
ATOM      8  N   UNL     1       2.276   8.423  17.814  0.00  0.00    +0.000 N 
ATOM      9  N   UNL     1       1.938   9.726  17.706  0.00  0.00    +0.000 NA
ATOM     10  C   UNL     1       1.366  10.020  18.891  0.00  0.00    +0.000 A 
ATOM     11  C   UNL     1       0.841  11.241  19.337  0.00  0.00    +0.000 A 
ATOM     12  C   UNL     1       0.325  11.173  20.643  0.00  0.00    +0.000 A 
ATOM     13  C   UNL     1       0.354   9.968  21.410  0.00  0.00    +0.000 A 
ATOM     14  N   UNL     1       0.858   8.767  20.967  0.00  0.00    +0.000 NA
ATOM     15  C   UNL     1       1.356   8.847  19.715  0.00  0.00    +0.000 A 
ATOM     16  H   UNL     1       2.756   7.994  17.032  0.00  0.00    +0.000 HD
BRANCH  13  17
ATOM     17  C   UNL     1      -0.213   9.992  22.828  0.00  0.00    +0.000 C 
ATOM     18  F   UNL     1      -0.632  11.222  23.225  0.00  0.00    +0.000 F 
ATOM     19  F   UNL     1      -1.291   9.169  22.988  0.00  0.00    +0.000 F 
ATOM     20  F   UNL     1       0.702   9.598  23.767  0.00  0.00    +0.000 F 
ENDBRANCH  13  17
ENDBRANCH   5   7
BRANCH   1  22
ATOM     21  C   UNL     1       3.568   1.762  18.006  0.00  0.00    +0.000 C 
ATOM     22  C   UNL     1       3.419   3.219  17.536  0.00  0.00    +0.000 C 
BRANCH  22  23
ATOM     23  C   UNL     1       4.716   3.686  16.813  0.00  0.00    +0.000 C 
BRANCH  23  24
ATOM     24  C   UNL     1       5.643   4.460  17.692  0.00  0.00    +0.000 A 
ATOM     25  N   UNL     1       6.201   4.030  18.808  0.00  0.00    +0.000 NA
ATOM     26  N   UNL     1       7.092   4.984  19.241  0.00  0.00    +0.000 NA
ATOM     27  C   UNL     1       7.036   5.988  18.399  0.00  0.00    +0.000 A 
ATOM     28  N   UNL     1       6.075   5.742  17.466  0.00  0.00    +0.000 N 
ATOM     29  C   UNL     1       5.595   6.679  16.487  0.00  0.00    +0.000 C 
ENDBRANCH  23  24
ENDBRANCH  22  23
ENDBRANCH   1  22
TORSDOF 5
ENDMDL
MODEL 5
REMARK VINA RESULT:      -8.4      2.591      3.819
REMARK  Name = 
REMARK  7 active torsions:
REMARK  status: ('A' for Active; 'I' for Inactive)
REMARK    1  A    between atoms: C_1  and  C_2
REMARK    2  A    between atoms: C_2  and  C_3
REMARK    3  A    between atoms: C_2  and  C_10
REMARK    4  A    between atoms: C_3  and  C_4
REMARK    5  A    between atoms: N_8  and  C_9
REMARK    6  A    between atoms: C_14  and  C_15
REMARK    7  A    between atoms: C_21  and  C_22
REMARK                            x       y       z     vdW  Elec       q    Type
REMARK                         _______ _______ _______ _____ _____    ______ ____
ROOT
ATOM      1  C   UNL     1       0.627  10.072  19.734  0.00  0.00    +0.000 A 
ATOM      2  C   UNL     1       0.215   9.605  20.990  0.00  0.00    +0.000 A 
ATOM      3  C   UNL     1       0.716   8.410  21.508  0.00  0.00    +0.000 A 
ATOM      4  C   UNL     1       1.585   7.622  20.752  0.00  0.00    +0.000 A 
ATOM      5  C   UNL     1       1.917   8.002  19.447  0.00  0.00    +0.000 A 
ATOM      6  C   UNL     1       1.448   9.233  18.964  0.00  0.00    +0.000 A 
ENDROOT
BRANCH   5   7
ATOM      7  C   UNL     1       2.699   7.126  18.578  0.00  0.00    +0.000 A 
ATOM      8  N   UNL     1       3.687   7.544  17.724  0.00  0.00    +0.000 N 
ATOM      9  N   UNL     1       4.330   6.564  17.054  0.00  0.00    +0.000 NA
ATOM     10  C   UNL     1       3.719   5.431  17.456  0.00  0.00    +0.000 A 
ATOM     11  C   UNL     1       3.970   4.109  17.066  0.00  0.00    +0.000 A 
ATOM     12  C   UNL     1       3.124   3.179  17.697  0.00  0.00    +0.000 A 
ATOM     13  C   UNL     1       2.118   3.578  18.630  0.00  0.00    +0.000 A 
ATOM     14  N   UNL     1       1.880   4.876  19.021  0.00  0.00    +0.000 NA
ATOM     15  C   UNL     1       2.694   5.759  18.403  0.00  0.00    +0.000 A 
ATOM     16  H   UNL     1       3.971   8.501  17.547  0.00  0.00    +0.000 HD
BRANCH  13  17
ATOM     17  C   UNL     1       1.232   2.501  19.252  0.00  0.00    +0.000 C 
ATOM     18  F   UNL     1       0.746   2.838  20.475  0.00  0.00    +0.000 F 
ATOM     19  F   UNL     1       0.137   2.204  18.493  0.00  0.00    +0.000 F 
ATOM     20  F   UNL     1       1.893   1.317  19.436  0.00  0.00    +0.000 F 
ENDBRANCH  13  17
ENDBRANCH   5   7
BRANCH   1  22
ATOM     21  C   UNL     1      -0.994  11.483  18.296  0.00  0.00    +0.000 C 
ATOM     22  C   UNL     1       0.201  11.462  19.266  0.00  0.00    +0.000 C 
BRANCH  22  23
ATOM     23  C   UNL     1       1.383  12.287  18.677  0.00  0.00    +0.000 C 
BRANCH  23  24
ATOM     24  C   UNL     1       2.115  13.094  19.699  0.00  0.00    +0.000 A 
ATOM     25  N   UNL     1       1.980  13.002  21.009  0.00  0.00    +0.000 NA
ATOM     26  N   UNL     1       2.924  13.809  21.599  0.00  0.00    +0.000 NA
ATOM     27  C   UNL     1       3.595  14.398  20.638  0.00  0.00    +0.000 A 
ATOM     28  N   UNL     1       3.061  14.051  19.435  0.00  0.00    +0.000 N 
ATOM     29  C   UNL     1       3.406  14.629  18.165  0.00  0.00    +0.000 C 
ENDBRANCH  23  24
ENDBRANCH  22  23
ENDBRANCH   1  22
TORSDOF 5
ENDMDL
MODEL 6
REMARK VINA RESULT:      -8.4      4.457      8.824
REMARK  Name = 
REMARK  7 active torsions:
REMARK  status: ('A' for Active; 'I' for Inactive)
REMARK    1  A    between atoms: C_1  and  C_2
REMARK    2  A    between atoms: C_2  and  C_3
REMARK    3  A    between atoms: C_2  and  C_10
REMARK    4  A    between atoms: C_3  and  C_4
REMARK    5  A    between atoms: N_8  and  C_9
REMARK    6  A    between atoms: C_14  and  C_15
REMARK    7  A    between atoms: C_21  and  C_22
REMARK                            x       y       z     vdW  Elec       q    Type
REMARK                         _______ _______ _______ _____ _____    ______ ____
ROOT
ATOM      1  C   UNL     1       2.482   7.319  18.923  0.00  0.00    +0.000 A 
ATOM      2  C   UNL     1       2.344   8.053  17.737  0.00  0.00    +0.000 A 
ATOM      3  C   UNL     1       1.758   9.320  17.743  0.00  0.00    +0.000 A 
ATOM      4  C   UNL     1       1.234   9.849  18.923  0.00  0.00    +0.000 A 
ATOM      5  C   UNL     1       1.247   9.087  20.097  0.00  0.00    +0.000 A 
ATOM      6  C   UNL     1       1.889   7.840  20.085  0.00  0.00    +0.000 A 
ENDROOT
BRANCH   5   7
ATOM      7  C   UNL     1       0.572   9.550  21.308  0.00  0.00    +0.000 A 
ATOM      8  N   UNL     1       0.859   9.122  22.579  0.00  0.00    +0.000 N 
ATOM      9  N   UNL     1       0.158   9.721  23.566  0.00  0.00    +0.000 NA
ATOM     10  C   UNL     1      -0.664  10.573  22.919  0.00  0.00    +0.000 A 
ATOM     11  C   UNL     1      -1.626  11.442  23.450  0.00  0.00    +0.000 A 
ATOM     12  C   UNL     1      -2.303  12.182  22.464  0.00  0.00    +0.000 A 
ATOM     13  C   UNL     1      -2.017  12.032  21.073  0.00  0.00    +0.000 A 
ATOM     14  N   UNL     1      -1.064  11.187  20.552  0.00  0.00    +0.000 NA
ATOM     15  C   UNL     1      -0.426  10.478  21.508  0.00  0.00    +0.000 A 
ATOM     16  H   UNL     1       1.528   8.409  22.843  0.00  0.00    +0.000 HD
BRANCH  13  17
ATOM     17  C   UNL     1      -2.816  12.863  20.070  0.00  0.00    +0.000 C 
ATOM     18  F   UNL     1      -2.420  14.162  20.004  0.00  0.00    +0.000 F 
ATOM     19  F   UNL     1      -2.730  12.390  18.793  0.00  0.00    +0.000 F 
ATOM     20  F   UNL     1      -4.152  12.903  20.366  0.00  0.00    +0.000 F 
ENDBRANCH  13  17
ENDBRANCH   5   7
BRANCH   1  22
ATOM     21  C   UNL     1       4.406   5.948  17.874  0.00  0.00    +0.000 C 
ATOM     22  C   UNL     1       3.280   6.016  18.920  0.00  0.00    +0.000 C 
BRANCH  22  23
ATOM     23  C   UNL     1       2.372   4.756  18.814  0.00  0.00    +0.000 C 
BRANCH  23  24
ATOM     24  C   UNL     1       2.317   3.953  20.072  0.00  0.00    +0.000 A 
ATOM     25  N   UNL     1       1.427   4.078  21.039  0.00  0.00    +0.000 NA
ATOM     26  N   UNL     1       1.633   3.068  21.949  0.00  0.00    +0.000 NA
ATOM     27  C   UNL     1       2.662   2.368  21.535  0.00  0.00    +0.000 A 
ATOM     28  N   UNL     1       3.178   2.941  20.413  0.00  0.00    +0.000 N 
ATOM     29  C   UNL     1       4.409   2.571  19.770  0.00  0.00    +0.000 C 
ENDBRANCH  23  24
ENDBRANCH  22  23
ENDBRANCH   1  22
TORSDOF 5
ENDMDL
MODEL 7
REMARK VINA RESULT:      -8.3      3.720      4.752
REMARK  Name = 
REMARK  7 active torsions:
REMARK  status: ('A' for Active; 'I' for Inactive)
REMARK    1  A    between atoms: C_1  and  C_2
REMARK    2  A    between atoms: C_2  and  C_3
REMARK    3  A    between atoms: C_2  and  C_10
REMARK    4  A    between atoms: C_3  and  C_4
REMARK    5  A    between atoms: N_8  and  C_9
REMARK    6  A    between atoms: C_14  and  C_15
REMARK    7  A    between atoms: C_21  and  C_22
REMARK                            x       y       z     vdW  Elec       q    Type
REMARK                         _______ _______ _______ _____ _____    ______ ____
ROOT
ATOM      1  C   UNL     1       0.879   9.753  20.681  0.00  0.00    +0.000 A 
ATOM      2  C   UNL     1       0.966  10.463  19.475  0.00  0.00    +0.000 A 
ATOM      3  C   UNL     1       1.412   9.841  18.309  0.00  0.00    +0.000 A 
ATOM      4  C   UNL     1       1.848   8.516  18.338  0.00  0.00    +0.000 A 
ATOM      5  C   UNL     1       1.888   7.820  19.552  0.00  0.00    +0.000 A 
ATOM      6  C   UNL     1       1.384   8.443  20.703  0.00  0.00    +0.000 A 
ENDROOT
BRANCH   5   7
ATOM      7  C   UNL     1       2.480   6.487  19.642  0.00  0.00    +0.000 A 
ATOM      8  N   UNL     1       2.246   5.590  20.652  0.00  0.00    +0.000 N 
ATOM      9  N   UNL     1       2.845   4.388  20.513  0.00  0.00    +0.000 NA
ATOM     10  C   UNL     1       3.544   4.497  19.365  0.00  0.00    +0.000 A 
ATOM     11  C   UNL     1       4.369   3.550  18.743  0.00  0.00    +0.000 A 
ATOM     12  C   UNL     1       4.942   4.020  17.548  0.00  0.00    +0.000 A 
ATOM     13  C   UNL     1       4.693   5.337  17.052  0.00  0.00    +0.000 A 
ATOM     14  N   UNL     1       3.874   6.262  17.657  0.00  0.00    +0.000 NA
ATOM     15  C   UNL     1       3.335   5.801  18.807  0.00  0.00    +0.000 A 
ATOM     16  H   UNL     1       1.682   5.742  21.480  0.00  0.00    +0.000 HD
BRANCH  13  17
ATOM     17  C   UNL     1       5.374   5.769  15.756  0.00  0.00    +0.000 C 
ATOM     18  F   UNL     1       4.906   6.946  15.263  0.00  0.00    +0.000 F 
ATOM     19  F   UNL     1       6.722   5.940  15.890  0.00  0.00    +0.000 F 
ATOM     20  F   UNL     1       5.210   4.859  14.746  0.00  0.00    +0.000 F 
ENDBRANCH  13  17
ENDBRANCH   5   7
BRANCH   1  22
ATOM     21  C   UNL     1      -0.256   9.422  22.980  0.00  0.00    +0.000 C 
ATOM     22  C   UNL     1       0.227  10.404  21.899  0.00  0.00    +0.000 C 
BRANCH  22  23
ATOM     23  C   UNL     1      -0.920  11.384  21.514  0.00  0.00    +0.000 C 
BRANCH  23  24
ATOM     24  C   UNL     1      -0.790  12.732  22.145  0.00  0.00    +0.000 A 
ATOM     25  N   UNL     1      -1.188  13.067  23.357  0.00  0.00    +0.000 NA
ATOM     26  N   UNL     1      -0.765  14.351  23.612  0.00  0.00    +0.000 NA
ATOM     27  C   UNL     1      -0.146  14.782  22.540  0.00  0.00    +0.000 A 
ATOM     28  N   UNL     1      -0.219  13.836  21.564  0.00  0.00    +0.000 N 
ATOM     29  C   UNL     1       0.183  14.008  20.194  0.00  0.00    +0.000 C 
ENDBRANCH  23  24
ENDBRANCH  22  23
ENDBRANCH   1  22
TORSDOF 5
ENDMDL
MODEL 8
REMARK VINA RESULT:      -8.2      3.929      7.984
REMARK  Name = 
REMARK  7 active torsions:
REMARK  status: ('A' for Active; 'I' for Inactive)
REMARK    1  A    between atoms: C_1  and  C_2
REMARK    2  A    between atoms: C_2  and  C_3
REMARK    3  A    between atoms: C_2  and  C_10
REMARK    4  A    between atoms: C_3  and  C_4
REMARK    5  A    between atoms: N_8  and  C_9
REMARK    6  A    between atoms: C_14  and  C_15
REMARK    7  A    between atoms: C_21  and  C_22
REMARK                            x       y       z     vdW  Elec       q    Type
REMARK                         _______ _______ _______ _____ _____    ______ ____
ROOT
ATOM      1  C   UNL     1       2.885   4.415  18.447  0.00  0.00    +0.000 A 
ATOM      2  C   UNL     1       2.804   3.936  19.762  0.00  0.00    +0.000 A 
ATOM      3  C   UNL     1       2.313   4.742  20.789  0.00  0.00    +0.000 A 
ATOM      4  C   UNL     1       1.958   6.068  20.536  0.00  0.00    +0.000 A 
ATOM      5  C   UNL     1       2.144   6.611  19.260  0.00  0.00    +0.000 A 
ATOM      6  C   UNL     1       2.587   5.770  18.228  0.00  0.00    +0.000 A 
ENDROOT
BRANCH   5   7
ATOM      7  C   UNL     1       1.928   8.032  19.002  0.00  0.00    +0.000 A 
ATOM      8  N   UNL     1       2.288   8.686  17.850  0.00  0.00    +0.000 N 
ATOM      9  N   UNL     1       1.941   9.989  17.789  0.00  0.00    +0.000 NA
ATOM     10  C   UNL     1       1.346  10.231  18.975  0.00  0.00    +0.000 A 
ATOM     11  C   UNL     1       0.805  11.428  19.462  0.00  0.00    +0.000 A 
ATOM     12  C   UNL     1       0.266  11.303  20.754  0.00  0.00    +0.000 A 
ATOM     13  C   UNL     1       0.290  10.067  21.471  0.00  0.00    +0.000 A 
ATOM     14  N   UNL     1       0.811   8.889  20.989  0.00  0.00    +0.000 NA
ATOM     15  C   UNL     1       1.331   9.024  19.750  0.00  0.00    +0.000 A 
ATOM     16  H   UNL     1       2.784   8.293  17.060  0.00  0.00    +0.000 HD
BRANCH  13  17
ATOM     17  C   UNL     1      -0.302  10.029  22.879  0.00  0.00    +0.000 C 
ATOM     18  F   UNL     1      -1.351   9.175  23.003  0.00  0.00    +0.000 F 
ATOM     19  F   UNL     1       0.600   9.641  23.828  0.00  0.00    +0.000 F 
ATOM     20  F   UNL     1      -0.773  11.248  23.285  0.00  0.00    +0.000 F 
ENDBRANCH  13  17
ENDBRANCH   5   7
BRANCH   1  22
ATOM     21  C   UNL     1       2.746   2.021  17.481  0.00  0.00    +0.000 C 
ATOM     22  C   UNL     1       3.261   3.461  17.314  0.00  0.00    +0.000 C 
BRANCH  22  23
ATOM     23  C   UNL     1       4.789   3.454  17.017  0.00  0.00    +0.000 C 
BRANCH  23  24
ATOM     24  C   UNL     1       5.351   4.810  16.744  0.00  0.00    +0.000 A 
ATOM     25  N   UNL     1       5.282   5.468  15.602  0.00  0.00    +0.000 NA
ATOM     26  N   UNL     1       5.792   6.730  15.798  0.00  0.00    +0.000 NA
ATOM     27  C   UNL     1       6.188   6.806  17.045  0.00  0.00    +0.000 A 
ATOM     28  N   UNL     1       6.016   5.597  17.649  0.00  0.00    +0.000 N 
ATOM     29  C   UNL     1       6.496   5.235  18.955  0.00  0.00    +0.000 C 
ENDBRANCH  23  24
ENDBRANCH  22  23
ENDBRANCH   1  22
TORSDOF 5
ENDMDL
MODEL 9
REMARK VINA RESULT:      -8.2      3.771      8.318
REMARK  Name = 
REMARK  7 active torsions:
REMARK  status: ('A' for Active; 'I' for Inactive)
REMARK    1  A    between atoms: C_1  and  C_2
REMARK    2  A    between atoms: C_2  and  C_3
REMARK    3  A    between atoms: C_2  and  C_10
REMARK    4  A    between atoms: C_3  and  C_4
REMARK    5  A    between atoms: N_8  and  C_9
REMARK    6  A    between atoms: C_14  and  C_15
REMARK    7  A    between atoms: C_21  and  C_22
REMARK                            x       y       z     vdW  Elec       q    Type
REMARK                         _______ _______ _______ _____ _____    ______ ____
ROOT
ATOM      1  C   UNL     1       3.952   5.262  18.157  0.00  0.00    +0.000 A 
ATOM      2  C   UNL     1       3.662   4.538  19.323  0.00  0.00    +0.000 A 
ATOM      3  C   UNL     1       2.736   5.016  20.251  0.00  0.00    +0.000 A 
ATOM      4  C   UNL     1       2.134   6.261  20.069  0.00  0.00    +0.000 A 
ATOM      5  C   UNL     1       2.496   7.061  18.978  0.00  0.00    +0.000 A 
ATOM      6  C   UNL     1       3.386   6.540  18.027  0.00  0.00    +0.000 A 
ENDROOT
BRANCH   5   7
ATOM      7  C   UNL     1       1.998   8.428  18.843  0.00  0.00    +0.000 A 
ATOM      8  N   UNL     1       2.162   9.217  17.733  0.00  0.00    +0.000 N 
ATOM      9  N   UNL     1       1.571  10.430  17.790  0.00  0.00    +0.000 NA
ATOM     10  C   UNL     1       1.009  10.468  19.015  0.00  0.00    +0.000 A 
ATOM     11  C   UNL     1       0.277  11.501  19.617  0.00  0.00    +0.000 A 
ATOM     12  C   UNL     1      -0.154  11.183  20.917  0.00  0.00    +0.000 A 
ATOM     13  C   UNL     1       0.145   9.930  21.532  0.00  0.00    +0.000 A 
ATOM     14  N   UNL     1       0.853   8.911  20.937  0.00  0.00    +0.000 NA
ATOM     15  C   UNL     1       1.267   9.230  19.692  0.00  0.00    +0.000 A 
ATOM     16  H   UNL     1       2.679   8.984  16.894  0.00  0.00    +0.000 HD
BRANCH  13  17
ATOM     17  C   UNL     1      -0.349   9.679  22.956  0.00  0.00    +0.000 C 
ATOM     18  F   UNL     1      -1.144   8.583  23.070  0.00  0.00    +0.000 F 
ATOM     19  F   UNL     1       0.666   9.488  23.849  0.00  0.00    +0.000 F 
ATOM     20  F   UNL     1      -1.089  10.721  23.447  0.00  0.00    +0.000 F 
ENDBRANCH  13  17
ENDBRANCH   5   7
BRANCH   1  22
ATOM     21  C   UNL     1       4.339   3.285  16.537  0.00  0.00    +0.000 C 
ATOM     22  C   UNL     1       4.834   4.638  17.077  0.00  0.00    +0.000 C 
BRANCH  22  23
ATOM     23  C   UNL     1       6.326   4.531  17.508  0.00  0.00    +0.000 C 
BRANCH  23  24
ATOM     24  C   UNL     1       7.033   5.847  17.542  0.00  0.00    +0.000 A 
ATOM     25  N   UNL     1       7.076   6.735  16.567  0.00  0.00    +0.000 NA
ATOM     26  N   UNL     1       7.703   7.864  17.038  0.00  0.00    +0.000 NA
ATOM     27  C   UNL     1       8.056   7.631  18.280  0.00  0.00    +0.000 A 
ATOM     28  N   UNL     1       7.739   6.348  18.606  0.00  0.00    +0.000 N 
ATOM     29  C   UNL     1       8.127   5.667  19.811  0.00  0.00    +0.000 C 
ENDBRANCH  23  24
ENDBRANCH  22  23
ENDBRANCH   1  22
TORSDOF 5
ENDMDL
