MODEL 1
REMARK VINA RESULT:      -8.1      0.000      0.000
REMARK  Name = 
REMARK  8 active torsions:
REMARK  status: ('A' for Active; 'I' for Inactive)
REMARK    1  A    between atoms: C_1  and  C_2
REMARK    2  A    between atoms: C_2  and  S_3
REMARK    3  A    between atoms: C_2  and  C_10
REMARK    4  A    between atoms: S_3  and  C_4
REMARK    5  A    between atoms: N_8  and  C_9
REMARK    6  A    between atoms: C_14  and  N_15
REMARK    7  A    between atoms: N_18  and  C_19
REMARK    8  A    between atoms: N_23  and  C_24
REMARK                            x       y       z     vdW  Elec       q    Type
REMARK                         _______ _______ _______ _____ _____    ______ ____
ROOT
ATOM      1  C   UNL     1      -0.390  10.807  20.298  0.00  0.00    +0.000 A 
ATOM      2  C   UNL     1      -0.698  11.223  21.599  0.00  0.00    +0.000 A 
ATOM      3  C   UNL     1      -0.246  10.502  22.703  0.00  0.00    +0.000 A 
ATOM      4  C   UNL     1       0.486   9.328  22.527  0.00  0.00    +0.000 A 
ATOM      5  C   UNL     1       0.772   8.859  21.247  0.00  0.00    +0.000 A 
ATOM      6  C   UNL     1       0.362   9.622  20.143  0.00  0.00    +0.000 A 
ENDROOT
BRANCH   5   7
ATOM      7  N   UNL     1       1.430   7.638  20.990  0.00  0.00    +0.000 N 
ATOM      8  C   UNL     1       2.153   7.312  19.864  0.00  0.00    +0.000 C 
ATOM      9  O   UNL     1       2.314   8.007  18.869  0.00  0.00    +0.000 OA
ATOM     10  N   UNL     1       2.755   6.080  19.990  0.00  0.00    +0.000 N 
ATOM     11  H   UNL     1       1.486   6.981  21.752  0.00  0.00    +0.000 HD
ATOM     12  H   UNL     1       2.380   5.418  20.656  0.00  0.00    +0.000 HD
BRANCH  10  13
ATOM     13  C   UNL     1       3.474   5.476  18.867  0.00  0.00    +0.000 C 
ATOM     14  C   UNL     1       2.496   4.951  17.810  0.00  0.00    +0.000 C 
ATOM     15  C   UNL     1       1.681   3.785  18.366  0.00  0.00    +0.000 C 
ATOM     16  C   UNL     1       2.583   2.696  18.953  0.00  0.00    +0.000 C 
ATOM     17  N   UNL     1       3.545   3.221  19.939  0.00  0.00    +0.000 NA
ATOM     18  C   UNL     1       4.427   2.140  20.391  0.00  0.00    +0.000 C 
ATOM     19  C   UNL     1       4.357   4.314  19.361  0.00  0.00    +0.000 C 
ENDBRANCH  10  13
ENDBRANCH   5   7
BRANCH   1  21
ATOM     20  C   UNL     1      -0.165  12.965  18.868  0.00  0.00    +0.000 C 
ATOM     21  C   UNL     1      -0.820  11.593  19.065  0.00  0.00    +0.000 C 
BRANCH  21  22
ATOM     22  S   UNL     1      -2.638  11.692  18.873  0.00  0.00    +0.000 S 
BRANCH  22  23
ATOM     23  C   UNL     1      -2.893  11.175  17.246  0.00  0.00    +0.000 A 
ATOM     24  N   UNL     1      -2.064  10.475  16.504  0.00  0.00    +0.000 NA
ATOM     25  N   UNL     1      -2.712  10.184  15.321  0.00  0.00    +0.000 NA
ATOM     26  C   UNL     1      -3.914  10.713  15.385  0.00  0.00    +0.000 A 
ATOM     27  N   UNL     1      -4.066  11.351  16.580  0.00  0.00    +0.000 N 
ATOM     28  C   UNL     1      -5.243  12.055  17.018  0.00  0.00    +0.000 C 
ENDBRANCH  22  23
ENDBRANCH  21  22
ENDBRANCH   1  21
TORSDOF 5
ENDMDL
MODEL 2
REMARK VINA RESULT:      -7.9      6.497      9.525
REMARK  Name = 
REMARK  8 active torsions:
REMARK  status: ('A' for Active; 'I' for Inactive)
REMARK    1  A    between atoms: C_1  and  C_2
REMARK    2  A    between atoms: C_2  and  S_3
REMARK    3  A    between atoms: C_2  and  C_10
REMARK    4  A    between atoms: S_3  and  C_4
REMARK    5  A    between atoms: N_8  and  C_9
REMARK    6  A    between atoms: C_14  and  N_15
REMARK    7  A    between atoms: N_18  and  C_19
REMARK    8  A    between atoms: N_23  and  C_24
REMARK                            x       y       z     vdW  Elec       q    Type
REMARK                         _______ _______ _______ _____ _____    ______ ____
ROOT
ATOM      1  C   UNL     1       5.699   4.970  18.573  0.00  0.00    +0.000 A 
ATOM      2  C   UNL     1       5.613   4.561  17.236  0.00  0.00    +0.000 A 
ATOM      3  C   UNL     1       6.452   5.112  16.269  0.00  0.00    +0.000 A 
ATOM      4  C   UNL     1       7.363   6.110  16.611  0.00  0.00    +0.000 A 
ATOM      5  C   UNL     1       7.445   6.574  17.922  0.00  0.00    +0.000 A 
ATOM      6  C   UNL     1       6.637   5.974  18.900  0.00  0.00    +0.000 A 
ENDROOT
BRANCH   5   7
ATOM      7  N   UNL     1       8.278   7.638  18.324  0.00  0.00    +0.000 N 
ATOM      8  C   UNL     1       8.136   8.967  17.992  0.00  0.00    +0.000 C 
ATOM      9  O   UNL     1       7.288   9.453  17.254  0.00  0.00    +0.000 OA
ATOM     10  N   UNL     1       9.060   9.753  18.647  0.00  0.00    +0.000 N 
ATOM     11  H   UNL     1       8.975   7.433  19.023  0.00  0.00    +0.000 HD
ATOM     12  H   UNL     1       9.907   9.324  18.995  0.00  0.00    +0.000 HD
BRANCH  10  13
ATOM     13  C   UNL     1       9.174  11.182  18.354  0.00  0.00    +0.000 C 
ATOM     14  C   UNL     1      10.571  11.521  17.822  0.00  0.00    +0.000 C 
ATOM     15  C   UNL     1      11.624  11.305  18.907  0.00  0.00    +0.000 C 
ATOM     16  C   UNL     1      11.268  12.051  20.195  0.00  0.00    +0.000 C 
ATOM     17  N   UNL     1       9.907  11.745  20.674  0.00  0.00    +0.000 NA
ATOM     18  C   UNL     1       9.607  12.558  21.858  0.00  0.00    +0.000 C 
ATOM     19  C   UNL     1       8.900  12.012  19.623  0.00  0.00    +0.000 C 
ENDBRANCH  10  13
ENDBRANCH   5   7
BRANCH   1  21
ATOM     20  C   UNL     1       4.641   2.839  19.620  0.00  0.00    +0.000 C 
ATOM     21  C   UNL     1       4.837   4.358  19.672  0.00  0.00    +0.000 C 
BRANCH  21  22
ATOM     22  S   UNL     1       3.241   5.226  19.901  0.00  0.00    +0.000 S 
BRANCH  22  23
ATOM     23  C   UNL     1       2.095   4.134  19.213  0.00  0.00    +0.000 A 
ATOM     24  N   UNL     1       1.826   3.977  17.936  0.00  0.00    +0.000 NA
ATOM     25  N   UNL     1       0.940   2.925  17.825  0.00  0.00    +0.000 NA
ATOM     26  C   UNL     1       0.703   2.476  19.037  0.00  0.00    +0.000 A 
ATOM     27  N   UNL     1       1.407   3.214  19.941  0.00  0.00    +0.000 N 
ATOM     28  C   UNL     1       1.404   3.028  21.369  0.00  0.00    +0.000 C 
ENDBRANCH  22  23
ENDBRANCH  21  22
ENDBRANCH   1  21
TORSDOF 5
ENDMDL
MODEL 3
REMARK VINA RESULT:      -7.9      6.287      9.431
REMARK  Name = 
REMARK  8 active torsions:
REMARK  status: ('A' for Active; 'I' for Inactive)
REMARK    1  A    between atoms: C_1  and  C_2
REMARK    2  A    between atoms: C_2  and  S_3
REMARK    3  A    between atoms: C_2  and  C_10
REMARK    4  A    between atoms: S_3  and  C_4
REMARK    5  A    between atoms: N_8  and  C_9
REMARK    6  A    between atoms: C_14  and  N_15
REMARK    7  A    between atoms: N_18  and  C_19
REMARK    8  A    between atoms: N_23  and  C_24
REMARK                            x       y       z     vdW  Elec       q    Type
REMARK                         _______ _______ _______ _____ _____    ______ ____
ROOT
ATOM      1  C   UNL     1       4.701   6.308  17.582  0.00  0.00    +0.000 A 
ATOM      2  C   UNL     1       5.299   5.157  17.056  0.00  0.00    +0.000 A 
ATOM      3  C   UNL     1       6.645   5.157  16.693  0.00  0.00    +0.000 A 
ATOM      4  C   UNL     1       7.407   6.318  16.812  0.00  0.00    +0.000 A 
ATOM      5  C   UNL     1       6.834   7.495  17.289  0.00  0.00    +0.000 A 
ATOM      6  C   UNL     1       5.494   7.470  17.705  0.00  0.00    +0.000 A 
ENDROOT
BRANCH   5   7
ATOM      7  N   UNL     1       7.516   8.727  17.355  0.00  0.00    +0.000 N 
ATOM      8  C   UNL     1       8.485   9.085  18.266  0.00  0.00    +0.000 C 
ATOM      9  O   UNL     1       8.893   8.414  19.206  0.00  0.00    +0.000 OA
ATOM     10  N   UNL     1       9.021  10.320  17.975  0.00  0.00    +0.000 N 
ATOM     11  H   UNL     1       7.377   9.368  16.590  0.00  0.00    +0.000 HD
ATOM     12  H   UNL     1       8.486  10.964  17.407  0.00  0.00    +0.000 HD
BRANCH  10  13
ATOM     13  C   UNL     1       9.981  10.956  18.878  0.00  0.00    +0.000 C 
ATOM     14  C   UNL     1       9.282  11.965  19.797  0.00  0.00    +0.000 C 
ATOM     15  C   UNL     1       8.739  13.140  18.987  0.00  0.00    +0.000 C 
ATOM     16  C   UNL     1       9.824  13.769  18.108  0.00  0.00    +0.000 C 
ATOM     17  N   UNL     1      10.514  12.781  17.258  0.00  0.00    +0.000 NA
ATOM     18  C   UNL     1      11.592  13.440  16.513  0.00  0.00    +0.000 C 
ATOM     19  C   UNL     1      11.076  11.680  18.071  0.00  0.00    +0.000 C 
ENDBRANCH  10  13
ENDBRANCH   5   7
BRANCH   1  21
ATOM     20  C   UNL     1       2.536   7.693  17.972  0.00  0.00    +0.000 C 
ATOM     21  C   UNL     1       3.247   6.337  18.039  0.00  0.00    +0.000 C 
BRANCH  21  22
ATOM     22  S   UNL     1       2.987   5.532  19.663  0.00  0.00    +0.000 S 
BRANCH  22  23
ATOM     23  C   UNL     1       2.003   4.168  19.276  0.00  0.00    +0.000 A 
ATOM     24  N   UNL     1       1.561   3.829  18.085  0.00  0.00    +0.000 NA
ATOM     25  N   UNL     1       0.917   2.615  18.213  0.00  0.00    +0.000 NA
ATOM     26  C   UNL     1       0.992   2.255  19.475  0.00  0.00    +0.000 A 
ATOM     27  N   UNL     1       1.664   3.209  20.179  0.00  0.00    +0.000 N 
ATOM     28  C   UNL     1       1.944   3.176  21.591  0.00  0.00    +0.000 C 
ENDBRANCH  22  23
ENDBRANCH  21  22
ENDBRANCH   1  21
TORSDOF 5
ENDMDL
MODEL 4
REMARK VINA RESULT:      -7.8      6.233      9.692
REMARK  Name = 
REMARK  8 active torsions:
REMARK  status: ('A' for Active; 'I' for Inactive)
REMARK    1  A    between atoms: C_1  and  C_2
REMARK    2  A    between atoms: C_2  and  S_3
REMARK    3  A    between atoms: C_2  and  C_10
REMARK    4  A    between atoms: S_3  and  C_4
REMARK    5  A    between atoms: N_8  and  C_9
REMARK    6  A    between atoms: C_14  and  N_15
REMARK    7  A    between atoms: N_18  and  C_19
REMARK    8  A    between atoms: N_23  and  C_24
REMARK                            x       y       z     vdW  Elec       q    Type
REMARK                         _______ _______ _______ _____ _____    ______ ____
ROOT
ATOM      1  C   UNL     1       4.476   5.831  17.281  0.00  0.00    +0.000 A 
ATOM      2  C   UNL     1       5.062   4.846  16.476  0.00  0.00    +0.000 A 
ATOM      3  C   UNL     1       6.366   4.993  16.008  0.00  0.00    +0.000 A 
ATOM      4  C   UNL     1       7.096   6.144  16.301  0.00  0.00    +0.000 A 
ATOM      5  C   UNL     1       6.530   7.166  17.061  0.00  0.00    +0.000 A 
ATOM      6  C   UNL     1       5.237   6.984  17.576  0.00  0.00    +0.000 A 
ENDROOT
BRANCH   5   7
ATOM      7  N   UNL     1       7.172   8.393  17.324  0.00  0.00    +0.000 N 
ATOM      8  C   UNL     1       8.226   8.604  18.185  0.00  0.00    +0.000 C 
ATOM      9  O   UNL     1       8.762   7.771  18.907  0.00  0.00    +0.000 OA
ATOM     10  N   UNL     1       8.682   9.902  18.118  0.00  0.00    +0.000 N 
ATOM     11  H   UNL     1       6.924   9.174  16.737  0.00  0.00    +0.000 HD
ATOM     12  H   UNL     1       8.064  10.619  17.765  0.00  0.00    +0.000 HD
BRANCH  10  13
ATOM     13  C   UNL     1       9.717  10.384  19.033  0.00  0.00    +0.000 C 
ATOM     14  C   UNL     1       9.114  11.292  20.111  0.00  0.00    +0.000 C 
ATOM     15  C   UNL     1       8.577  12.579  19.487  0.00  0.00    +0.000 C 
ATOM     16  C   UNL     1       9.637  13.276  18.630  0.00  0.00    +0.000 C 
ATOM     17  N   UNL     1      10.236  12.380  17.623  0.00  0.00    +0.000 NA
ATOM     18  C   UNL     1      11.297  13.090  16.902  0.00  0.00    +0.000 C 
ATOM     19  C   UNL     1      10.795  11.165  18.257  0.00  0.00    +0.000 C 
ENDBRANCH  10  13
ENDBRANCH   5   7
BRANCH   1  21
ATOM     20  C   UNL     1       2.849   6.255  19.263  0.00  0.00    +0.000 C 
ATOM     21  C   UNL     1       3.072   5.688  17.857  0.00  0.00    +0.000 C 
BRANCH  21  22
ATOM     22  S   UNL     1       2.406   3.988  17.714  0.00  0.00    +0.000 S 
BRANCH  22  23
ATOM     23  C   UNL     1       3.113   3.171  19.059  0.00  0.00    +0.000 A 
ATOM     24  N   UNL     1       4.361   2.772  19.171  0.00  0.00    +0.000 NA
ATOM     25  N   UNL     1       4.524   2.275  20.448  0.00  0.00    +0.000 NA
ATOM     26  C   UNL     1       3.372   2.391  21.070  0.00  0.00    +0.000 A 
ATOM     27  N   UNL     1       2.456   2.947  20.228  0.00  0.00    +0.000 N 
ATOM     28  C   UNL     1       1.079   3.228  20.546  0.00  0.00    +0.000 C 
ENDBRANCH  22  23
ENDBRANCH  21  22
ENDBRANCH   1  21
TORSDOF 5
ENDMDL
MODEL 5
REMARK VINA RESULT:      -7.7      0.961      1.002
REMARK  Name = 
REMARK  8 active torsions:
REMARK  status: ('A' for Active; 'I' for Inactive)
REMARK    1  A    between atoms: C_1  and  C_2
REMARK    2  A    between atoms: C_2  and  S_3
REMARK    3  A    between atoms: C_2  and  C_10
REMARK    4  A    between atoms: S_3  and  C_4
REMARK    5  A    between atoms: N_8  and  C_9
REMARK    6  A    between atoms: C_14  and  N_15
REMARK    7  A    between atoms: N_18  and  C_19
REMARK    8  A    between atoms: N_23  and  C_24
REMARK                            x       y       z     vdW  Elec       q    Type
REMARK                         _______ _______ _______ _____ _____    ______ ____
ROOT
ATOM      1  C   UNL     1       0.048  11.125  20.868  0.00  0.00    +0.000 A 
ATOM      2  C   UNL     1      -0.617  11.267  22.092  0.00  0.00    +0.000 A 
ATOM      3  C   UNL     1      -0.521  10.281  23.073  0.00  0.00    +0.000 A 
ATOM      4  C   UNL     1       0.208   9.116  22.833  0.00  0.00    +0.000 A 
ATOM      5  C   UNL     1       0.845   8.920  21.610  0.00  0.00    +0.000 A 
ATOM      6  C   UNL     1       0.790   9.943  20.650  0.00  0.00    +0.000 A 
ENDROOT
BRANCH   5   7
ATOM      7  N   UNL     1       1.525   7.734  21.264  0.00  0.00    +0.000 N 
ATOM      8  C   UNL     1       2.076   7.427  20.039  0.00  0.00    +0.000 C 
ATOM      9  O   UNL     1       2.034   8.110  19.023  0.00  0.00    +0.000 OA
ATOM     10  N   UNL     1       2.763   6.234  20.080  0.00  0.00    +0.000 N 
ATOM     11  H   UNL     1       1.741   7.096  22.014  0.00  0.00    +0.000 HD
ATOM     12  H   UNL     1       2.539   5.565  20.804  0.00  0.00    +0.000 HD
BRANCH  10  13
ATOM     13  C   UNL     1       3.328   5.649  18.862  0.00  0.00    +0.000 C 
ATOM     14  C   UNL     1       2.218   5.155  17.928  0.00  0.00    +0.000 C 
ATOM     15  C   UNL     1       1.469   3.983  18.559  0.00  0.00    +0.000 C 
ATOM     16  C   UNL     1       2.427   2.874  19.003  0.00  0.00    +0.000 C 
ATOM     17  N   UNL     1       3.512   3.371  19.870  0.00  0.00    +0.000 NA
ATOM     18  C   UNL     1       4.433   2.274  20.183  0.00  0.00    +0.000 C 
ATOM     19  C   UNL     1       4.255   4.471  19.215  0.00  0.00    +0.000 C 
ENDBRANCH  10  13
ENDBRANCH   5   7
BRANCH   1  21
ATOM     20  C   UNL     1       0.969  13.384  19.972  0.00  0.00    +0.000 C 
ATOM     21  C   UNL     1       0.012  12.200  19.789  0.00  0.00    +0.000 C 
BRANCH  21  22
ATOM     22  S   UNL     1      -1.683  12.772  19.399  0.00  0.00    +0.000 S 
BRANCH  22  23
ATOM     23  C   UNL     1      -2.276  11.555  18.329  0.00  0.00    +0.000 A 
ATOM     24  N   UNL     1      -1.557  10.709  17.625  0.00  0.00    +0.000 NA
ATOM     25  N   UNL     1      -2.431   9.841  17.003  0.00  0.00    +0.000 NA
ATOM     26  C   UNL     1      -3.651  10.185  17.353  0.00  0.00    +0.000 A 
ATOM     27  N   UNL     1      -3.596  11.265  18.184  0.00  0.00    +0.000 N 
ATOM     28  C   UNL     1      -4.727  11.935  18.772  0.00  0.00    +0.000 C 
ENDBRANCH  22  23
ENDBRANCH  21  22
ENDBRANCH   1  21
TORSDOF 5
ENDMDL
MODEL 6
REMARK VINA RESULT:      -7.7      5.938      9.440
REMARK  Name = 
REMARK  8 active torsions:
REMARK  status: ('A' for Active; 'I' for Inactive)
REMARK    1  A    between atoms: C_1  and  C_2
REMARK    2  A    between atoms: C_2  and  S_3
REMARK    3  A    between atoms: C_2  and  C_10
REMARK    4  A    between atoms: S_3  and  C_4
REMARK    5  A    between atoms: N_8  and  C_9
REMARK    6  A    between atoms: C_14  and  N_15
REMARK    7  A    between atoms: N_18  and  C_19
REMARK    8  A    between atoms: N_23  and  C_24
REMARK                            x       y       z     vdW  Elec       q    Type
REMARK                         _______ _______ _______ _____ _____    ______ ____
ROOT
ATOM      1  C   UNL     1       4.965   5.897  17.715  0.00  0.00    +0.000 A 
ATOM      2  C   UNL     1       5.411   4.769  17.015  0.00  0.00    +0.000 A 
ATOM      3  C   UNL     1       6.771   4.562  16.792  0.00  0.00    +0.000 A 
ATOM      4  C   UNL     1       7.708   5.498  17.228  0.00  0.00    +0.000 A 
ATOM      5  C   UNL     1       7.298   6.655  17.888  0.00  0.00    +0.000 A 
ATOM      6  C   UNL     1       5.931   6.827  18.158  0.00  0.00    +0.000 A 
ENDROOT
BRANCH   5   7
ATOM      7  N   UNL     1       8.177   7.685  18.280  0.00  0.00    +0.000 N 
ATOM      8  C   UNL     1       8.089   9.018  17.941  0.00  0.00    +0.000 C 
ATOM      9  O   UNL     1       7.258   9.535  17.205  0.00  0.00    +0.000 OA
ATOM     10  N   UNL     1       9.048   9.767  18.587  0.00  0.00    +0.000 N 
ATOM     11  H   UNL     1       8.869   7.455  18.976  0.00  0.00    +0.000 HD
ATOM     12  H   UNL     1       9.878   9.305  18.933  0.00  0.00    +0.000 HD
BRANCH  10  13
ATOM     13  C   UNL     1       9.220  11.189  18.285  0.00  0.00    +0.000 C 
ATOM     14  C   UNL     1      10.642  11.474  17.788  0.00  0.00    +0.000 C 
ATOM     15  C   UNL     1      11.658  11.231  18.902  0.00  0.00    +0.000 C 
ATOM     16  C   UNL     1      11.295  12.000  20.174  0.00  0.00    +0.000 C 
ATOM     17  N   UNL     1       9.912  11.747  20.620  0.00  0.00    +0.000 NA
ATOM     18  C   UNL     1       9.611  12.580  21.788  0.00  0.00    +0.000 C 
ATOM     19  C   UNL     1       8.943  12.039  19.540  0.00  0.00    +0.000 C 
ENDBRANCH  10  13
ENDBRANCH   5   7
BRANCH   1  21
ATOM     20  C   UNL     1       2.979   7.570  17.844  0.00  0.00    +0.000 C 
ATOM     21  C   UNL     1       3.492   6.137  18.025  0.00  0.00    +0.000 C 
BRANCH  21  22
ATOM     22  S   UNL     1       2.977   5.448  19.642  0.00  0.00    +0.000 S 
BRANCH  22  23
ATOM     23  C   UNL     1       2.279   3.927  19.221  0.00  0.00    +0.000 A 
ATOM     24  N   UNL     1       1.111   3.728  18.652  0.00  0.00    +0.000 NA
ATOM     25  N   UNL     1       1.003   2.378  18.389  0.00  0.00    +0.000 NA
ATOM     26  C   UNL     1       2.110   1.802  18.802  0.00  0.00    +0.000 A 
ATOM     27  N   UNL     1       2.938   2.743  19.337  0.00  0.00    +0.000 N 
ATOM     28  C   UNL     1       4.241   2.500  19.901  0.00  0.00    +0.000 C 
ENDBRANCH  22  23
ENDBRANCH  21  22
ENDBRANCH   1  21
TORSDOF 5
ENDMDL
MODEL 7
REMARK VINA RESULT:      -7.6      2.832      3.886
REMARK  Name = 
REMARK  8 active torsions:
REMARK  status: ('A' for Active; 'I' for Inactive)
REMARK    1  A    between atoms: C_1  and  C_2
REMARK    2  A    between atoms: C_2  and  S_3
REMARK    3  A    between atoms: C_2  and  C_10
REMARK    4  A    between atoms: S_3  and  C_4
REMARK    5  A    between atoms: N_8  and  C_9
REMARK    6  A    between atoms: C_14  and  N_15
REMARK    7  A    between atoms: N_18  and  C_19
REMARK    8  A    between atoms: N_23  and  C_24
REMARK                            x       y       z     vdW  Elec       q    Type
REMARK                         _______ _______ _______ _____ _____    ______ ____
ROOT
ATOM      1  C   UNL     1      -0.269  10.937  20.628  0.00  0.00    +0.000 A 
ATOM      2  C   UNL     1      -0.780  11.175  21.910  0.00  0.00    +0.000 A 
ATOM      3  C   UNL     1      -0.506  10.300  22.960  0.00  0.00    +0.000 A 
ATOM      4  C   UNL     1       0.250   9.149  22.739  0.00  0.00    +0.000 A 
ATOM      5  C   UNL     1       0.736   8.855  21.468  0.00  0.00    +0.000 A 
ATOM      6  C   UNL     1       0.504   9.771  20.430  0.00  0.00    +0.000 A 
ENDROOT
BRANCH   5   7
ATOM      7  N   UNL     1       1.431   7.670  21.150  0.00  0.00    +0.000 N 
ATOM      8  C   UNL     1       2.074   7.383  19.967  0.00  0.00    +0.000 C 
ATOM      9  O   UNL     1       2.118   8.087  18.966  0.00  0.00    +0.000 OA
ATOM     10  N   UNL     1       2.746   6.182  20.035  0.00  0.00    +0.000 N 
ATOM     11  H   UNL     1       1.583   7.015  21.901  0.00  0.00    +0.000 HD
ATOM     12  H   UNL     1       2.461   5.501  20.725  0.00  0.00    +0.000 HD
BRANCH  10  13
ATOM     13  C   UNL     1       3.400   5.618  18.853  0.00  0.00    +0.000 C 
ATOM     14  C   UNL     1       2.362   5.129  17.836  0.00  0.00    +0.000 C 
ATOM     15  C   UNL     1       1.580   3.944  18.398  0.00  0.00    +0.000 C 
ATOM     16  C   UNL     1       2.512   2.836  18.894  0.00  0.00    +0.000 C 
ATOM     17  N   UNL     1       3.529   3.328  19.842  0.00  0.00    +0.000 NA
ATOM     18  C   UNL     1       4.434   2.233  20.206  0.00  0.00    +0.000 C 
ATOM     19  C   UNL     1       4.308   4.441  19.256  0.00  0.00    +0.000 C 
ENDBRANCH  10  13
ENDBRANCH   5   7
BRANCH   1  21
ATOM     20  C   UNL     1      -1.314  11.350  18.285  0.00  0.00    +0.000 C 
ATOM     21  C   UNL     1      -0.501  11.893  19.465  0.00  0.00    +0.000 C 
BRANCH  21  22
ATOM     22  S   UNL     1       1.032  12.715  18.892  0.00  0.00    +0.000 S 
BRANCH  22  23
ATOM     23  C   UNL     1       1.470  13.714  20.230  0.00  0.00    +0.000 A 
ATOM     24  N   UNL     1       2.191  13.364  21.271  0.00  0.00    +0.000 NA
ATOM     25  N   UNL     1       2.396  14.496  22.033  0.00  0.00    +0.000 NA
ATOM     26  C   UNL     1       1.796  15.497  21.428  0.00  0.00    +0.000 A 
ATOM     27  N   UNL     1       1.196  15.045  20.290  0.00  0.00    +0.000 N 
ATOM     28  C   UNL     1       0.437  15.843  19.362  0.00  0.00    +0.000 C 
ENDBRANCH  22  23
ENDBRANCH  21  22
ENDBRANCH   1  21
TORSDOF 5
ENDMDL
MODEL 8
REMARK VINA RESULT:      -7.6      4.188      9.131
REMARK  Name = 
REMARK  8 active torsions:
REMARK  status: ('A' for Active; 'I' for Inactive)
REMARK    1  A    between atoms: C_1  and  C_2
REMARK    2  A    between atoms: C_2  and  S_3
REMARK    3  A    between atoms: C_2  and  C_10
REMARK    4  A    between atoms: S_3  and  C_4
REMARK    5  A    between atoms: N_8  and  C_9
REMARK    6  A    between atoms: C_14  and  N_15
REMARK    7  A    between atoms: N_18  and  C_19
REMARK    8  A    between atoms: N_23  and  C_24
REMARK                            x       y       z     vdW  Elec       q    Type
REMARK                         _______ _______ _______ _____ _____    ______ ____
ROOT
ATOM      1  C   UNL     1       5.031   5.933  18.113  0.00  0.00    +0.000 A 
ATOM      2  C   UNL     1       4.431   4.673  18.228  0.00  0.00    +0.000 A 
ATOM      3  C   UNL     1       3.043   4.541  18.214  0.00  0.00    +0.000 A 
ATOM      4  C   UNL     1       2.229   5.670  18.126  0.00  0.00    +0.000 A 
ATOM      5  C   UNL     1       2.790   6.943  18.056  0.00  0.00    +0.000 A 
ATOM      6  C   UNL     1       4.188   7.061  18.013  0.00  0.00    +0.000 A 
ENDROOT
BRANCH   5   7
ATOM      7  N   UNL     1       2.032   8.132  18.053  0.00  0.00    +0.000 N 
ATOM      8  C   UNL     1       1.552   8.807  19.153  0.00  0.00    +0.000 C 
ATOM      9  O   UNL     1       1.660   8.470  20.326  0.00  0.00    +0.000 OA
ATOM     10  N   UNL     1       0.948   9.992  18.795  0.00  0.00    +0.000 N 
ATOM     11  H   UNL     1       1.933   8.608  17.170  0.00  0.00    +0.000 HD
ATOM     12  H   UNL     1       0.610  10.102  17.849  0.00  0.00    +0.000 HD
BRANCH  10  13
ATOM     13  C   UNL     1       0.258  10.815  19.790  0.00  0.00    +0.000 C 
ATOM     14  C   UNL     1      -1.214  11.012  19.410  0.00  0.00    +0.000 C 
ATOM     15  C   UNL     1      -1.332  11.841  18.133  0.00  0.00    +0.000 C 
ATOM     16  C   UNL     1      -0.552  13.154  18.239  0.00  0.00    +0.000 C 
ATOM     17  N   UNL     1       0.852  12.953  18.642  0.00  0.00    +0.000 NA
ATOM     18  C   UNL     1       1.509  14.254  18.805  0.00  0.00    +0.000 C 
ATOM     19  C   UNL     1       0.939  12.192  19.909  0.00  0.00    +0.000 C 
ENDBRANCH  10  13
ENDBRANCH   5   7
BRANCH   1  21
ATOM     20  C   UNL     1       7.057   7.416  17.442  0.00  0.00    +0.000 C 
ATOM     21  C   UNL     1       6.543   6.117  18.072  0.00  0.00    +0.000 C 
BRANCH  21  22
ATOM     22  S   UNL     1       7.427   4.660  17.401  0.00  0.00    +0.000 S 
BRANCH  22  23
ATOM     23  C   UNL     1       7.104   4.746  15.708  0.00  0.00    +0.000 A 
ATOM     24  N   UNL     1       7.726   5.496  14.826  0.00  0.00    +0.000 NA
ATOM     25  N   UNL     1       7.231   5.166  13.580  0.00  0.00    +0.000 NA
ATOM     26  C   UNL     1       6.329   4.225  13.746  0.00  0.00    +0.000 A 
ATOM     27  N   UNL     1       6.216   3.935  15.074  0.00  0.00    +0.000 N 
ATOM     28  C   UNL     1       5.327   2.960  15.652  0.00  0.00    +0.000 C 
ENDBRANCH  22  23
ENDBRANCH  21  22
ENDBRANCH   1  21
TORSDOF 5
ENDMDL
MODEL 9
REMARK VINA RESULT:      -7.5      2.291      3.366
REMARK  Name = 
REMARK  8 active torsions:
REMARK  status: ('A' for Active; 'I' for Inactive)
REMARK    1  A    between atoms: C_1  and  C_2
REMARK    2  A    between atoms: C_2  and  S_3
REMARK    3  A    between atoms: C_2  and  C_10
REMARK    4  A    between atoms: S_3  and  C_4
REMARK    5  A    between atoms: N_8  and  C_9
REMARK    6  A    between atoms: C_14  and  N_15
REMARK    7  A    between atoms: N_18  and  C_19
REMARK    8  A    between atoms: N_23  and  C_24
REMARK                            x       y       z     vdW  Elec       q    Type
REMARK                         _______ _______ _______ _____ _____    ______ ____
ROOT
ATOM      1  C   UNL     1      -0.788  10.622  20.607  0.00  0.00    +0.000 A 
ATOM      2  C   UNL     1      -0.989  11.045  21.927  0.00  0.00    +0.000 A 
ATOM      3  C   UNL     1      -0.353  10.399  22.986  0.00  0.00    +0.000 A 
ATOM      4  C   UNL     1       0.463   9.294  22.750  0.00  0.00    +0.000 A 
ATOM      5  C   UNL     1       0.650   8.817  21.455  0.00  0.00    +0.000 A 
ATOM      6  C   UNL     1       0.052   9.508  20.390  0.00  0.00    +0.000 A 
ENDROOT
BRANCH   5   7
ATOM      7  N   UNL     1       1.389   7.655  21.148  0.00  0.00    +0.000 N 
ATOM      8  C   UNL     1       2.103   7.413  19.995  0.00  0.00    +0.000 C 
ATOM      9  O   UNL     1       2.186   8.144  19.016  0.00  0.00    +0.000 OA
ATOM     10  N   UNL     1       2.797   6.226  20.072  0.00  0.00    +0.000 N 
ATOM     11  H   UNL     1       1.513   6.984  21.889  0.00  0.00    +0.000 HD
ATOM     12  H   UNL     1       2.490   5.521  20.728  0.00  0.00    +0.000 HD
BRANCH  10  13
ATOM     13  C   UNL     1       3.528   5.706  18.915  0.00  0.00    +0.000 C 
ATOM     14  C   UNL     1       2.562   5.285  17.802  0.00  0.00    +0.000 C 
ATOM     15  C   UNL     1       1.722   4.089  18.246  0.00  0.00    +0.000 C 
ATOM     16  C   UNL     1       2.599   2.942  18.755  0.00  0.00    +0.000 C 
ATOM     17  N   UNL     1       3.550   3.369  19.798  0.00  0.00    +0.000 NA
ATOM     18  C   UNL     1       4.409   2.242  20.173  0.00  0.00    +0.000 C 
ATOM     19  C   UNL     1       4.387   4.494  19.325  0.00  0.00    +0.000 C 
ENDBRANCH  10  13
ENDBRANCH   5   7
BRANCH   1  21
ATOM     20  C   UNL     1      -1.211  10.683  18.044  0.00  0.00    +0.000 C 
ATOM     21  C   UNL     1      -1.422  11.331  19.417  0.00  0.00    +0.000 C 
BRANCH  21  22
ATOM     22  S   UNL     1      -1.053  13.124  19.367  0.00  0.00    +0.000 S 
BRANCH  22  23
ATOM     23  C   UNL     1       0.672  13.174  19.359  0.00  0.00    +0.000 A 
ATOM     24  N   UNL     1       1.464  12.840  18.365  0.00  0.00    +0.000 NA
ATOM     25  N   UNL     1       2.755  13.144  18.744  0.00  0.00    +0.000 NA
ATOM     26  C   UNL     1       2.705  13.656  19.954  0.00  0.00    +0.000 A 
ATOM     27  N   UNL     1       1.410  13.688  20.379  0.00  0.00    +0.000 N 
ATOM     28  C   UNL     1       0.952  14.176  21.654  0.00  0.00    +0.000 C 
ENDBRANCH  22  23
ENDBRANCH  21  22
ENDBRANCH   1  21
TORSDOF 5
ENDMDL
