MODEL 1
REMARK VINA RESULT:      -8.6      0.000      0.000
REMARK  Name = 
REMARK  7 active torsions:
REMARK  status: ('A' for Active; 'I' for Inactive)
REMARK    1  A    between atoms: C_1  and  C_2
REMARK    2  A    between atoms: C_2  and  C_3
REMARK    3  A    between atoms: C_2  and  C_10
REMARK    4  A    between atoms: C_3  and  C_4
REMARK    5  A    between atoms: N_8  and  C_9
REMARK    6  A    between atoms: C_14  and  C_15
REMARK    7  A    between atoms: C_20  and  C_21
REMARK                            x       y       z     vdW  Elec       q    Type
REMARK                         _______ _______ _______ _____ _____    ______ ____
ROOT
ATOM      1  C   UNL     1       4.301   4.673  16.986  0.00  0.00    +0.000 A 
ATOM      2  C   UNL     1       3.542   3.496  16.910  0.00  0.00    +0.000 A 
ATOM      3  C   UNL     1       2.370   3.346  17.653  0.00  0.00    +0.000 A 
ATOM      4  C   UNL     1       1.943   4.368  18.496  0.00  0.00    +0.000 A 
ATOM      5  C   UNL     1       2.679   5.552  18.599  0.00  0.00    +0.000 A 
ATOM      6  C   UNL     1       3.862   5.689  17.851  0.00  0.00    +0.000 A 
ENDROOT
BRANCH   5   7
ATOM      7  C   UNL     1       2.187   6.649  19.432  0.00  0.00    +0.000 A 
ATOM      8  N   UNL     1       1.834   6.461  20.720  0.00  0.00    +0.000 NA
ATOM      9  N   UNL     1       1.397   7.668  21.120  0.00  0.00    +0.000 N 
ATOM     10  C   UNL     1       1.444   8.632  20.157  0.00  0.00    +0.000 A 
ATOM     11  C   UNL     1       1.077   9.978  20.133  0.00  0.00    +0.000 A 
ATOM     12  C   UNL     1       1.258  10.679  18.929  0.00  0.00    +0.000 A 
ATOM     13  C   UNL     1       1.789   9.940  17.860  0.00  0.00    +0.000 A 
ATOM     14  N   UNL     1       2.157   8.640  17.861  0.00  0.00    +0.000 NA
ATOM     15  C   UNL     1       1.967   8.001  19.042  0.00  0.00    +0.000 A 
ATOM     16  H   UNL     1       1.067   7.762  22.073  0.00  0.00    +0.000 HD
BRANCH  12  17
ATOM     17  C   UNL     1       0.874  12.201  18.760  0.00  0.00    +0.000 C 
ATOM     18  C   UNL     1       0.564  13.046  20.029  0.00  0.00    +0.000 C 
ATOM     19  C   UNL     1       1.232  14.240  19.326  0.00  0.00    +0.000 C 
ATOM     20  C   UNL     1       2.020  13.220  18.485  0.00  0.00    +0.000 C 
ENDBRANCH  12  17
ENDBRANCH   5   7
BRANCH   1  22
ATOM     21  C   UNL     1       5.635   3.975  14.921  0.00  0.00    +0.000 C 
ATOM     22  C   UNL     1       5.561   4.885  16.155  0.00  0.00    +0.000 C 
BRANCH  22  23
ATOM     23  C   UNL     1       6.860   4.878  16.988  0.00  0.00    +0.000 C 
BRANCH  23  24
ATOM     24  C   UNL     1       7.346   6.224  17.403  0.00  0.00    +0.000 A 
ATOM     25  N   UNL     1       7.295   7.337  16.697  0.00  0.00    +0.000 NA
ATOM     26  N   UNL     1       7.872   8.343  17.436  0.00  0.00    +0.000 NA
ATOM     27  C   UNL     1       8.242   7.830  18.584  0.00  0.00    +0.000 A 
ATOM     28  N   UNL     1       7.908   6.512  18.621  0.00  0.00    +0.000 N 
ATOM     29  C   UNL     1       8.086   5.622  19.736  0.00  0.00    +0.000 C 
ENDBRANCH  23  24
ENDBRANCH  22  23
ENDBRANCH   1  22
TORSDOF 5
ENDMDL
MODEL 2
REMARK VINA RESULT:      -8.6      0.927      1.412
REMARK  Name = 
REMARK  7 active torsions:
REMARK  status: ('A' for Active; 'I' for Inactive)
REMARK    1  A    between atoms: C_1  and  C_2
REMARK    2  A    between atoms: C_2  and  C_3
REMARK    3  A    between atoms: C_2  and  C_10
REMARK    4  A    between atoms: C_3  and  C_4
REMARK    5  A    between atoms: N_8  and  C_9
REMARK    6  A    between atoms: C_14  and  C_15
REMARK    7  A    between atoms: C_20  and  C_21
REMARK                            x       y       z     vdW  Elec       q    Type
REMARK                         _______ _______ _______ _____ _____    ______ ____
ROOT
ATOM      1  C   UNL     1       4.684   4.584  16.685  0.00  0.00    +0.000 A 
ATOM      2  C   UNL     1       4.292   3.247  16.845  0.00  0.00    +0.000 A 
ATOM      3  C   UNL     1       3.355   2.884  17.814  0.00  0.00    +0.000 A 
ATOM      4  C   UNL     1       2.804   3.852  18.649  0.00  0.00    +0.000 A 
ATOM      5  C   UNL     1       3.179   5.192  18.519  0.00  0.00    +0.000 A 
ATOM      6  C   UNL     1       4.128   5.546  17.544  0.00  0.00    +0.000 A 
ENDROOT
BRANCH   5   7
ATOM      7  C   UNL     1       2.543   6.213  19.352  0.00  0.00    +0.000 A 
ATOM      8  N   UNL     1       2.154   5.957  20.618  0.00  0.00    +0.000 NA
ATOM      9  N   UNL     1       1.581   7.104  21.023  0.00  0.00    +0.000 N 
ATOM     10  C   UNL     1       1.575   8.093  20.085  0.00  0.00    +0.000 A 
ATOM     11  C   UNL     1       1.076   9.396  20.074  0.00  0.00    +0.000 A 
ATOM     12  C   UNL     1       1.238  10.144  18.894  0.00  0.00    +0.000 A 
ATOM     13  C   UNL     1       1.888   9.489  17.836  0.00  0.00    +0.000 A 
ATOM     14  N   UNL     1       2.383   8.232  17.825  0.00  0.00    +0.000 NA
ATOM     15  C   UNL     1       2.206   7.547  18.982  0.00  0.00    +0.000 A 
ATOM     16  H   UNL     1       1.202   7.140  21.962  0.00  0.00    +0.000 HD
BRANCH  12  17
ATOM     17  C   UNL     1       0.712  11.624  18.741  0.00  0.00    +0.000 C 
ATOM     18  C   UNL     1      -0.372  12.145  19.727  0.00  0.00    +0.000 C 
ATOM     19  C   UNL     1       0.319  13.518  19.668  0.00  0.00    +0.000 C 
ATOM     20  C   UNL     1       1.610  12.780  19.274  0.00  0.00    +0.000 C 
ENDBRANCH  12  17
ENDBRANCH   5   7
BRANCH   1  22
ATOM     21  C   UNL     1       5.340   4.459  14.218  0.00  0.00    +0.000 C 
ATOM     22  C   UNL     1       5.671   5.019  15.608  0.00  0.00    +0.000 C 
BRANCH  22  23
ATOM     23  C   UNL     1       7.149   4.816  16.004  0.00  0.00    +0.000 C 
BRANCH  23  24
ATOM     24  C   UNL     1       7.480   5.191  17.407  0.00  0.00    +0.000 A 
ATOM     25  N   UNL     1       7.736   4.370  18.406  0.00  0.00    +0.000 NA
ATOM     26  N   UNL     1       7.968   5.122  19.535  0.00  0.00    +0.000 NA
ATOM     27  C   UNL     1       7.872   6.385  19.195  0.00  0.00    +0.000 A 
ATOM     28  N   UNL     1       7.596   6.478  17.868  0.00  0.00    +0.000 N 
ATOM     29  C   UNL     1       7.484   7.693  17.107  0.00  0.00    +0.000 C 
ENDBRANCH  23  24
ENDBRANCH  22  23
ENDBRANCH   1  22
TORSDOF 5
ENDMDL
MODEL 3
REMARK VINA RESULT:      -8.6      3.335      5.677
REMARK  Name = 
REMARK  7 active torsions:
REMARK  status: ('A' for Active; 'I' for Inactive)
REMARK    1  A    between atoms: C_1  and  C_2
REMARK    2  A    between atoms: C_2  and  C_3
REMARK    3  A    between atoms: C_2  and  C_10
REMARK    4  A    between atoms: C_3  and  C_4
REMARK    5  A    between atoms: N_8  and  C_9
REMARK    6  A    between atoms: C_14  and  C_15
REMARK    7  A    between atoms: C_20  and  C_21
REMARK                            x       y       z     vdW  Elec       q    Type
REMARK                         _______ _______ _______ _____ _____    ______ ____
ROOT
ATOM      1  C   UNL     1       2.473   7.499  18.823  0.00  0.00    +0.000 A 
ATOM      2  C   UNL     1       2.453   8.378  17.730  0.00  0.00    +0.000 A 
ATOM      3  C   UNL     1       1.792   9.604  17.806  0.00  0.00    +0.000 A 
ATOM      4  C   UNL     1       1.125   9.968  18.973  0.00  0.00    +0.000 A 
ATOM      5  C   UNL     1       1.121   9.111  20.078  0.00  0.00    +0.000 A 
ATOM      6  C   UNL     1       1.785   7.876  19.989  0.00  0.00    +0.000 A 
ENDROOT
BRANCH   5   7
ATOM      7  C   UNL     1       0.479   9.530  21.325  0.00  0.00    +0.000 A 
ATOM      8  N   UNL     1       0.752   8.929  22.501  0.00  0.00    +0.000 NA
ATOM      9  N   UNL     1      -0.055   9.550  23.380  0.00  0.00    +0.000 N 
ATOM     10  C   UNL     1      -0.842  10.521  22.835  0.00  0.00    +0.000 A 
ATOM     11  C   UNL     1      -1.813  11.372  23.364  0.00  0.00    +0.000 A 
ATOM     12  C   UNL     1      -2.448  12.261  22.479  0.00  0.00    +0.000 A 
ATOM     13  C   UNL     1      -2.038  12.192  21.138  0.00  0.00    +0.000 A 
ATOM     14  N   UNL     1      -1.098  11.383  20.605  0.00  0.00    +0.000 NA
ATOM     15  C   UNL     1      -0.510  10.542  21.492  0.00  0.00    +0.000 A 
ATOM     16  H   UNL     1      -0.024   9.249  24.347  0.00  0.00    +0.000 HD
BRANCH  12  17
ATOM     17  C   UNL     1      -3.572  13.269  22.941  0.00  0.00    +0.000 C 
ATOM     18  C   UNL     1      -4.999  13.134  22.338  0.00  0.00    +0.000 C 
ATOM     19  C   UNL     1      -5.554  13.553  23.710  0.00  0.00    +0.000 C 
ATOM     20  C   UNL     1      -4.244  13.034  24.326  0.00  0.00    +0.000 C 
ENDBRANCH  12  17
ENDBRANCH   5   7
BRANCH   1  22
ATOM     21  C   UNL     1       4.444   6.190  17.858  0.00  0.00    +0.000 C 
ATOM     22  C   UNL     1       3.222   6.173  18.788  0.00  0.00    +0.000 C 
BRANCH  22  23
ATOM     23  C   UNL     1       2.309   4.951  18.560  0.00  0.00    +0.000 C 
BRANCH  23  24
ATOM     24  C   UNL     1       2.114   4.081  19.755  0.00  0.00    +0.000 A 
ATOM     25  N   UNL     1       1.047   4.025  20.527  0.00  0.00    +0.000 NA
ATOM     26  N   UNL     1       1.287   3.114  21.529  0.00  0.00    +0.000 NA
ATOM     27  C   UNL     1       2.485   2.617  21.334  0.00  0.00    +0.000 A 
ATOM     28  N   UNL     1       3.030   3.171  20.219  0.00  0.00    +0.000 N 
ATOM     29  C   UNL     1       4.301   2.835  19.638  0.00  0.00    +0.000 C 
ENDBRANCH  23  24
ENDBRANCH  22  23
ENDBRANCH   1  22
TORSDOF 5
ENDMDL
MODEL 4
REMARK VINA RESULT:      -8.2      2.122      3.632
REMARK  Name = 
REMARK  7 active torsions:
REMARK  status: ('A' for Active; 'I' for Inactive)
REMARK    1  A    between atoms: C_1  and  C_2
REMARK    2  A    between atoms: C_2  and  C_3
REMARK    3  A    between atoms: C_2  and  C_10
REMARK    4  A    between atoms: C_3  and  C_4
REMARK    5  A    between atoms: N_8  and  C_9
REMARK    6  A    between atoms: C_14  and  C_15
REMARK    7  A    between atoms: C_20  and  C_21
REMARK                            x       y       z     vdW  Elec       q    Type
REMARK                         _______ _______ _______ _____ _____    ______ ____
ROOT
ATOM      1  C   UNL     1       4.533   5.002  17.367  0.00  0.00    +0.000 A 
ATOM      2  C   UNL     1       3.668   3.926  17.615  0.00  0.00    +0.000 A 
ATOM      3  C   UNL     1       2.361   4.141  18.054  0.00  0.00    +0.000 A 
ATOM      4  C   UNL     1       1.899   5.437  18.266  0.00  0.00    +0.000 A 
ATOM      5  C   UNL     1       2.738   6.531  18.033  0.00  0.00    +0.000 A 
ATOM      6  C   UNL     1       4.055   6.303  17.597  0.00  0.00    +0.000 A 
ENDROOT
BRANCH   5   7
ATOM      7  C   UNL     1       2.225   7.892  18.189  0.00  0.00    +0.000 A 
ATOM      8  N   UNL     1       2.290   8.796  17.190  0.00  0.00    +0.000 NA
ATOM      9  N   UNL     1       1.773   9.915  17.727  0.00  0.00    +0.000 N 
ATOM     10  C   UNL     1       1.378   9.788  19.025  0.00  0.00    +0.000 A 
ATOM     11  C   UNL     1       0.827  10.678  19.948  0.00  0.00    +0.000 A 
ATOM     12  C   UNL     1       0.553  10.189  21.237  0.00  0.00    +0.000 A 
ATOM     13  C   UNL     1       0.874   8.842  21.465  0.00  0.00    +0.000 A 
ATOM     14  N   UNL     1       1.401   7.961  20.588  0.00  0.00    +0.000 NA
ATOM     15  C   UNL     1       1.650   8.472  19.357  0.00  0.00    +0.000 A 
ATOM     16  H   UNL     1       1.729  10.744  17.145  0.00  0.00    +0.000 HD
BRANCH  12  17
ATOM     17  C   UNL     1      -0.058  11.089  22.380  0.00  0.00    +0.000 C 
ATOM     18  C   UNL     1      -0.938  12.311  21.989  0.00  0.00    +0.000 C 
ATOM     19  C   UNL     1      -1.797  12.016  23.230  0.00  0.00    +0.000 C 
ATOM     20  C   UNL     1      -1.310  10.559  23.140  0.00  0.00    +0.000 C 
ENDBRANCH  12  17
ENDBRANCH   5   7
BRANCH   1  22
ATOM     21  C   UNL     1       6.752   6.109  16.749  0.00  0.00    +0.000 C 
ATOM     22  C   UNL     1       5.951   4.803  16.845  0.00  0.00    +0.000 C 
BRANCH  22  23
ATOM     23  C   UNL     1       6.024   3.955  15.558  0.00  0.00    +0.000 C 
BRANCH  23  24
ATOM     24  C   UNL     1       6.836   4.551  14.459  0.00  0.00    +0.000 A 
ATOM     25  N   UNL     1       7.819   5.420  14.583  0.00  0.00    +0.000 NA
ATOM     26  N   UNL     1       8.282   5.730  13.326  0.00  0.00    +0.000 NA
ATOM     27  C   UNL     1       7.588   5.027  12.464  0.00  0.00    +0.000 A 
ATOM     28  N   UNL     1       6.690   4.252  13.128  0.00  0.00    +0.000 N 
ATOM     29  C   UNL     1       5.796   3.293  12.539  0.00  0.00    +0.000 C 
ENDBRANCH  23  24
ENDBRANCH  22  23
ENDBRANCH   1  22
TORSDOF 5
ENDMDL
MODEL 5
REMARK VINA RESULT:      -8.2      1.962      2.947
REMARK  Name = 
REMARK  7 active torsions:
REMARK  status: ('A' for Active; 'I' for Inactive)
REMARK    1  A    between atoms: C_1  and  C_2
REMARK    2  A    between atoms: C_2  and  C_3
REMARK    3  A    between atoms: C_2  and  C_10
REMARK    4  A    between atoms: C_3  and  C_4
REMARK    5  A    between atoms: N_8  and  C_9
REMARK    6  A    between atoms: C_14  and  C_15
REMARK    7  A    between atoms: C_20  and  C_21
REMARK                            x       y       z     vdW  Elec       q    Type
REMARK                         _______ _______ _______ _____ _____    ______ ____
ROOT
ATOM      1  C   UNL     1       4.232   4.980  17.041  0.00  0.00    +0.000 A 
ATOM      2  C   UNL     1       3.574   3.746  16.935  0.00  0.00    +0.000 A 
ATOM      3  C   UNL     1       2.467   3.450  17.731  0.00  0.00    +0.000 A 
ATOM      4  C   UNL     1       2.005   4.381  18.658  0.00  0.00    +0.000 A 
ATOM      5  C   UNL     1       2.642   5.618  18.793  0.00  0.00    +0.000 A 
ATOM      6  C   UNL     1       3.761   5.902  17.990  0.00  0.00    +0.000 A 
ENDROOT
BRANCH   5   7
ATOM      7  C   UNL     1       2.109   6.618  19.719  0.00  0.00    +0.000 A 
ATOM      8  N   UNL     1       1.815   6.315  21.000  0.00  0.00    +0.000 NA
ATOM      9  N   UNL     1       1.314   7.459  21.499  0.00  0.00    +0.000 N 
ATOM     10  C   UNL     1       1.265   8.490  20.608  0.00  0.00    +0.000 A 
ATOM     11  C   UNL     1       0.810   9.806  20.694  0.00  0.00    +0.000 A 
ATOM     12  C   UNL     1       0.901  10.601  19.539  0.00  0.00    +0.000 A 
ATOM     13  C   UNL     1       1.442   9.977  18.404  0.00  0.00    +0.000 A 
ATOM     14  N   UNL     1       1.894   8.708  18.298  0.00  0.00    +0.000 NA
ATOM     15  C   UNL     1       1.787   7.976  19.435  0.00  0.00    +0.000 A 
ATOM     16  H   UNL     1       1.013   7.463  22.467  0.00  0.00    +0.000 HD
BRANCH  12  17
ATOM     17  C   UNL     1       0.413  12.102  19.493  0.00  0.00    +0.000 C 
ATOM     18  C   UNL     1       1.154  13.108  18.566  0.00  0.00    +0.000 C 
ATOM     19  C   UNL     1      -0.206  13.776  18.303  0.00  0.00    +0.000 C 
ATOM     20  C   UNL     1      -0.863  12.432  18.664  0.00  0.00    +0.000 C 
ENDBRANCH  12  17
ENDBRANCH   5   7
BRANCH   1  22
ATOM     21  C   UNL     1       5.220   6.673  15.402  0.00  0.00    +0.000 C 
ATOM     22  C   UNL     1       5.416   5.351  16.156  0.00  0.00    +0.000 C 
BRANCH  22  23
ATOM     23  C   UNL     1       5.891   4.201  15.244  0.00  0.00    +0.000 C 
BRANCH  23  24
ATOM     24  C   UNL     1       6.745   4.621  14.097  0.00  0.00    +0.000 A 
ATOM     25  N   UNL     1       7.769   5.451  14.135  0.00  0.00    +0.000 NA
ATOM     26  N   UNL     1       8.262   5.585  12.858  0.00  0.00    +0.000 NA
ATOM     27  C   UNL     1       7.545   4.817  12.073  0.00  0.00    +0.000 A 
ATOM     28  N   UNL     1       6.602   4.172  12.809  0.00  0.00    +0.000 N 
ATOM     29  C   UNL     1       5.670   3.192  12.322  0.00  0.00    +0.000 C 
ENDBRANCH  23  24
ENDBRANCH  22  23
ENDBRANCH   1  22
TORSDOF 5
ENDMDL
MODEL 6
REMARK VINA RESULT:      -8.2      1.834      3.100
REMARK  Name = 
REMARK  7 active torsions:
REMARK  status: ('A' for Active; 'I' for Inactive)
REMARK    1  A    between atoms: C_1  and  C_2
REMARK    2  A    between atoms: C_2  and  C_3
REMARK    3  A    between atoms: C_2  and  C_10
REMARK    4  A    between atoms: C_3  and  C_4
REMARK    5  A    between atoms: N_8  and  C_9
REMARK    6  A    between atoms: C_14  and  C_15
REMARK    7  A    between atoms: C_20  and  C_21
REMARK                            x       y       z     vdW  Elec       q    Type
REMARK                         _______ _______ _______ _____ _____    ______ ____
ROOT
ATOM      1  C   UNL     1       3.657   5.679  17.905  0.00  0.00    +0.000 A 
ATOM      2  C   UNL     1       3.388   4.968  19.083  0.00  0.00    +0.000 A 
ATOM      3  C   UNL     1       2.640   5.539  20.113  0.00  0.00    +0.000 A 
ATOM      4  C   UNL     1       2.157   6.839  19.988  0.00  0.00    +0.000 A 
ATOM      5  C   UNL     1       2.413   7.577  18.828  0.00  0.00    +0.000 A 
ATOM      6  C   UNL     1       3.173   6.994  17.800  0.00  0.00    +0.000 A 
ENDROOT
BRANCH   5   7
ATOM      7  C   UNL     1       1.843   8.916  18.674  0.00  0.00    +0.000 A 
ATOM      8  N   UNL     1       2.140   9.697  17.616  0.00  0.00    +0.000 NA
ATOM      9  N   UNL     1       1.475  10.841  17.856  0.00  0.00    +0.000 N 
ATOM     10  C   UNL     1       0.763  10.845  19.019  0.00  0.00    +0.000 A 
ATOM     11  C   UNL     1      -0.029  11.805  19.651  0.00  0.00    +0.000 A 
ATOM     12  C   UNL     1      -0.612  11.457  20.881  0.00  0.00    +0.000 A 
ATOM     13  C   UNL     1      -0.328  10.167  21.354  0.00  0.00    +0.000 A 
ATOM     14  N   UNL     1       0.429   9.220  20.758  0.00  0.00    +0.000 NA
ATOM     15  C   UNL     1       0.973   9.596  19.574  0.00  0.00    +0.000 A 
ATOM     16  H   UNL     1       1.561  11.591  17.181  0.00  0.00    +0.000 HD
BRANCH  12  17
ATOM     17  C   UNL     1      -1.519  12.450  21.708  0.00  0.00    +0.000 C 
ATOM     18  C   UNL     1      -2.241  11.928  22.983  0.00  0.00    +0.000 C 
ATOM     19  C   UNL     1      -2.005  13.311  23.612  0.00  0.00    +0.000 C 
ATOM     20  C   UNL     1      -0.818  13.474  22.648  0.00  0.00    +0.000 C 
ENDBRANCH  12  17
ENDBRANCH   5   7
BRANCH   1  22
ATOM     21  C   UNL     1       4.536   3.539  16.820  0.00  0.00    +0.000 C 
ATOM     22  C   UNL     1       4.433   5.069  16.744  0.00  0.00    +0.000 C 
BRANCH  22  23
ATOM     23  C   UNL     1       5.791   5.752  16.480  0.00  0.00    +0.000 C 
BRANCH  23  24
ATOM     24  C   UNL     1       6.748   5.711  17.622  0.00  0.00    +0.000 A 
ATOM     25  N   UNL     1       7.058   4.661  18.357  0.00  0.00    +0.000 NA
ATOM     26  N   UNL     1       7.958   5.058  19.319  0.00  0.00    +0.000 NA
ATOM     27  C   UNL     1       8.195   6.335  19.136  0.00  0.00    +0.000 A 
ATOM     28  N   UNL     1       7.482   6.780  18.068  0.00  0.00    +0.000 N 
ATOM     29  C   UNL     1       7.526   8.105  17.511  0.00  0.00    +0.000 C 
ENDBRANCH  23  24
ENDBRANCH  22  23
ENDBRANCH   1  22
TORSDOF 5
ENDMDL
MODEL 7
REMARK VINA RESULT:      -8.1      3.456      5.696
REMARK  Name = 
REMARK  7 active torsions:
REMARK  status: ('A' for Active; 'I' for Inactive)
REMARK    1  A    between atoms: C_1  and  C_2
REMARK    2  A    between atoms: C_2  and  C_3
REMARK    3  A    between atoms: C_2  and  C_10
REMARK    4  A    between atoms: C_3  and  C_4
REMARK    5  A    between atoms: N_8  and  C_9
REMARK    6  A    between atoms: C_14  and  C_15
REMARK    7  A    between atoms: C_20  and  C_21
REMARK                            x       y       z     vdW  Elec       q    Type
REMARK                         _______ _______ _______ _____ _____    ______ ____
ROOT
ATOM      1  C   UNL     1       2.339   7.619  18.675  0.00  0.00    +0.000 A 
ATOM      2  C   UNL     1       2.427   8.593  17.669  0.00  0.00    +0.000 A 
ATOM      3  C   UNL     1       1.873   9.861  17.846  0.00  0.00    +0.000 A 
ATOM      4  C   UNL     1       1.209  10.175  19.029  0.00  0.00    +0.000 A 
ATOM      5  C   UNL     1       1.098   9.225  20.049  0.00  0.00    +0.000 A 
ATOM      6  C   UNL     1       1.655   7.948  19.857  0.00  0.00    +0.000 A 
ENDROOT
BRANCH   5   7
ATOM      7  C   UNL     1       0.462   9.584  21.316  0.00  0.00    +0.000 A 
ATOM      8  N   UNL     1       0.716   8.910  22.456  0.00  0.00    +0.000 NA
ATOM      9  N   UNL     1      -0.080   9.495  23.367  0.00  0.00    +0.000 N 
ATOM     10  C   UNL     1      -0.843  10.514  22.878  0.00  0.00    +0.000 A 
ATOM     11  C   UNL     1      -1.798  11.354  23.453  0.00  0.00    +0.000 A 
ATOM     12  C   UNL     1      -2.411  12.306  22.621  0.00  0.00    +0.000 A 
ATOM     13  C   UNL     1      -1.997  12.307  21.279  0.00  0.00    +0.000 A 
ATOM     14  N   UNL     1      -1.072  11.509  20.702  0.00  0.00    +0.000 NA
ATOM     15  C   UNL     1      -0.506  10.606  21.540  0.00  0.00    +0.000 A 
ATOM     16  H   UNL     1      -0.059   9.138  24.315  0.00  0.00    +0.000 HD
BRANCH  12  17
ATOM     17  C   UNL     1      -3.514  13.310  23.137  0.00  0.00    +0.000 C 
ATOM     18  C   UNL     1      -4.686  13.694  22.190  0.00  0.00    +0.000 C 
ATOM     19  C   UNL     1      -5.598  13.727  23.429  0.00  0.00    +0.000 C 
ATOM     20  C   UNL     1      -4.606  12.764  24.104  0.00  0.00    +0.000 C 
ENDBRANCH  12  17
ENDBRANCH   5   7
BRANCH   1  22
ATOM     21  C   UNL     1       4.357   6.272  17.873  0.00  0.00    +0.000 C 
ATOM     22  C   UNL     1       2.970   6.240  18.531  0.00  0.00    +0.000 C 
BRANCH  22  23
ATOM     23  C   UNL     1       2.029   5.190  17.904  0.00  0.00    +0.000 C 
BRANCH  23  24
ATOM     24  C   UNL     1       2.336   3.777  18.265  0.00  0.00    +0.000 A 
ATOM     25  N   UNL     1       3.105   2.939  17.598  0.00  0.00    +0.000 NA
ATOM     26  N   UNL     1       3.101   1.732  18.257  0.00  0.00    +0.000 NA
ATOM     27  C   UNL     1       2.348   1.865  19.323  0.00  0.00    +0.000 A 
ATOM     28  N   UNL     1       1.871   3.136  19.385  0.00  0.00    +0.000 N 
ATOM     29  C   UNL     1       1.067   3.690  20.440  0.00  0.00    +0.000 C 
ENDBRANCH  23  24
ENDBRANCH  22  23
ENDBRANCH   1  22
TORSDOF 5
ENDMDL
MODEL 8
REMARK VINA RESULT:      -8.1      3.419      5.484
REMARK  Name = 
REMARK  7 active torsions:
REMARK  status: ('A' for Active; 'I' for Inactive)
REMARK    1  A    between atoms: C_1  and  C_2
REMARK    2  A    between atoms: C_2  and  C_3
REMARK    3  A    between atoms: C_2  and  C_10
REMARK    4  A    between atoms: C_3  and  C_4
REMARK    5  A    between atoms: N_8  and  C_9
REMARK    6  A    between atoms: C_14  and  C_15
REMARK    7  A    between atoms: C_20  and  C_21
REMARK                            x       y       z     vdW  Elec       q    Type
REMARK                         _______ _______ _______ _____ _____    ______ ____
ROOT
ATOM      1  C   UNL     1       2.559   7.473  18.964  0.00  0.00    +0.000 A 
ATOM      2  C   UNL     1       2.522   8.294  17.828  0.00  0.00    +0.000 A 
ATOM      3  C   UNL     1       1.752   9.457  17.805  0.00  0.00    +0.000 A 
ATOM      4  C   UNL     1       0.993   9.813  18.917  0.00  0.00    +0.000 A 
ATOM      5  C   UNL     1       1.002   9.013  20.064  0.00  0.00    +0.000 A 
ATOM      6  C   UNL     1       1.777   7.840  20.072  0.00  0.00    +0.000 A 
ENDROOT
BRANCH   5   7
ATOM      7  C   UNL     1       0.259   9.430  21.252  0.00  0.00    +0.000 A 
ATOM      8  N   UNL     1      -0.143   8.545  22.187  0.00  0.00    +0.000 NA
ATOM      9  N   UNL     1      -0.822   9.292  23.075  0.00  0.00    +0.000 N 
ATOM     10  C   UNL     1      -0.886  10.618  22.765  0.00  0.00    +0.000 A 
ATOM     11  C   UNL     1      -1.493  11.715  23.378  0.00  0.00    +0.000 A 
ATOM     12  C   UNL     1      -1.360  12.965  22.751  0.00  0.00    +0.000 A 
ATOM     13  C   UNL     1      -0.628  12.978  21.553  0.00  0.00    +0.000 A 
ATOM     14  N   UNL     1      -0.027  11.932  20.944  0.00  0.00    +0.000 NA
ATOM     15  C   UNL     1      -0.179  10.746  21.582  0.00  0.00    +0.000 A 
ATOM     16  H   UNL     1      -1.230   8.824  23.876  0.00  0.00    +0.000 HD
BRANCH  12  17
ATOM     17  C   UNL     1      -2.005  14.285  23.329  0.00  0.00    +0.000 C 
ATOM     18  C   UNL     1      -3.277  14.176  24.218  0.00  0.00    +0.000 C 
ATOM     19  C   UNL     1      -2.731  15.354  25.042  0.00  0.00    +0.000 C 
ATOM     20  C   UNL     1      -1.325  14.954  24.560  0.00  0.00    +0.000 C 
ENDBRANCH  12  17
ENDBRANCH   5   7
BRANCH   1  22
ATOM     21  C   UNL     1       3.743   5.622  17.659  0.00  0.00    +0.000 C 
ATOM     22  C   UNL     1       3.423   6.220  19.036  0.00  0.00    +0.000 C 
BRANCH  22  23
ATOM     23  C   UNL     1       2.911   5.171  20.045  0.00  0.00    +0.000 C 
BRANCH  23  24
ATOM     24  C   UNL     1       2.317   3.949  19.432  0.00  0.00    +0.000 A 
ATOM     25  N   UNL     1       1.144   3.852  18.838  0.00  0.00    +0.000 NA
ATOM     26  N   UNL     1       0.970   2.548  18.437  0.00  0.00    +0.000 NA
ATOM     27  C   UNL     1       2.049   1.882  18.774  0.00  0.00    +0.000 A 
ATOM     28  N   UNL     1       2.932   2.724  19.374  0.00  0.00    +0.000 N 
ATOM     29  C   UNL     1       4.255   2.387  19.823  0.00  0.00    +0.000 C 
ENDBRANCH  23  24
ENDBRANCH  22  23
ENDBRANCH   1  22
TORSDOF 5
ENDMDL
MODEL 9
REMARK VINA RESULT:      -8.0      2.331      7.972
REMARK  Name = 
REMARK  7 active torsions:
REMARK  status: ('A' for Active; 'I' for Inactive)
REMARK    1  A    between atoms: C_1  and  C_2
REMARK    2  A    between atoms: C_2  and  C_3
REMARK    3  A    between atoms: C_2  and  C_10
REMARK    4  A    between atoms: C_3  and  C_4
REMARK    5  A    between atoms: N_8  and  C_9
REMARK    6  A    between atoms: C_14  and  C_15
REMARK    7  A    between atoms: C_20  and  C_21
REMARK                            x       y       z     vdW  Elec       q    Type
REMARK                         _______ _______ _______ _____ _____    ______ ____
ROOT
ATOM      1  C   UNL     1       1.894   6.850  20.333  0.00  0.00    +0.000 A 
ATOM      2  C   UNL     1       1.160   5.745  20.788  0.00  0.00    +0.000 A 
ATOM      3  C   UNL     1       1.646   4.446  20.635  0.00  0.00    +0.000 A 
ATOM      4  C   UNL     1       2.871   4.228  20.011  0.00  0.00    +0.000 A 
ATOM      5  C   UNL     1       3.625   5.307  19.540  0.00  0.00    +0.000 A 
ATOM      6  C   UNL     1       3.122   6.611  19.694  0.00  0.00    +0.000 A 
ENDROOT
BRANCH   5   7
ATOM      7  C   UNL     1       4.943   5.076  18.949  0.00  0.00    +0.000 A 
ATOM      8  N   UNL     1       6.076   5.181  19.674  0.00  0.00    +0.000 NA
ATOM      9  N   UNL     1       7.057   4.950  18.784  0.00  0.00    +0.000 N 
ATOM     10  C   UNL     1       6.621   4.704  17.515  0.00  0.00    +0.000 A 
ATOM     11  C   UNL     1       7.279   4.446  16.312  0.00  0.00    +0.000 A 
ATOM     12  C   UNL     1       6.487   4.251  15.168  0.00  0.00    +0.000 A 
ATOM     13  C   UNL     1       5.099   4.345  15.357  0.00  0.00    +0.000 A 
ATOM     14  N   UNL     1       4.440   4.587  16.511  0.00  0.00    +0.000 NA
ATOM     15  C   UNL     1       5.241   4.769  17.590  0.00  0.00    +0.000 A 
ATOM     16  H   UNL     1       8.015   4.986  19.113  0.00  0.00    +0.000 HD
BRANCH  12  17
ATOM     17  C   UNL     1       7.100   3.963  13.742  0.00  0.00    +0.000 C 
ATOM     18  C   UNL     1       6.145   3.605  12.568  0.00  0.00    +0.000 C 
ATOM     19  C   UNL     1       7.088   4.387  11.639  0.00  0.00    +0.000 C 
ATOM     20  C   UNL     1       7.545   5.179  12.877  0.00  0.00    +0.000 C 
ENDBRANCH  12  17
ENDBRANCH   5   7
BRANCH   1  22
ATOM     21  C   UNL     1       0.132   8.386  21.366  0.00  0.00    +0.000 C 
ATOM     22  C   UNL     1       1.412   8.283  20.524  0.00  0.00    +0.000 C 
BRANCH  22  23
ATOM     23  C   UNL     1       1.336   9.091  19.212  0.00  0.00    +0.000 C 
BRANCH  23  24
ATOM     24  C   UNL     1       0.729  10.446  19.343  0.00  0.00    +0.000 A 
ATOM     25  N   UNL     1       1.196  11.457  20.048  0.00  0.00    +0.000 NA
ATOM     26  N   UNL     1       0.323  12.512  19.918  0.00  0.00    +0.000 NA
ATOM     27  C   UNL     1      -0.644  12.131  19.119  0.00  0.00    +0.000 A 
ATOM     28  N   UNL     1      -0.418  10.854  18.711  0.00  0.00    +0.000 N 
ATOM     29  C   UNL     1      -1.216  10.108  17.776  0.00  0.00    +0.000 C 
ENDBRANCH  23  24
ENDBRANCH  22  23
ENDBRANCH   1  22
TORSDOF 5
ENDMDL
