MODEL 1
REMARK VINA RESULT:      -8.6      0.000      0.000
REMARK  Name = 
REMARK  8 active torsions:
REMARK  status: ('A' for Active; 'I' for Inactive)
REMARK    1  A    between atoms: C_1  and  C_2
REMARK    2  A    between atoms: C_2  and  C_3
REMARK    3  A    between atoms: C_2  and  C_10
REMARK    4  A    between atoms: C_3  and  C_4
REMARK    5  A    between atoms: N_8  and  C_9
REMARK    6  A    between atoms: C_14  and  N_15
REMARK    7  A    between atoms: C_16  and  C_18
REMARK    8  A    between atoms: C_22  and  C_23
REMARK                            x       y       z     vdW  Elec       q    Type
REMARK                         _______ _______ _______ _____ _____    ______ ____
ROOT
ATOM      1  C   UNL     1       4.292   5.125  16.896  0.00  0.00    +0.000 A 
ATOM      2  C   UNL     1       3.691   3.872  17.080  0.00  0.00    +0.000 A 
ATOM      3  C   UNL     1       2.552   3.744  17.869  0.00  0.00    +0.000 A 
ATOM      4  C   UNL     1       2.002   4.861  18.497  0.00  0.00    +0.000 A 
ATOM      5  C   UNL     1       2.574   6.123  18.334  0.00  0.00    +0.000 A 
ATOM      6  C   UNL     1       3.700   6.251  17.505  0.00  0.00    +0.000 A 
ENDROOT
BRANCH   5   7
ATOM      7  N   UNL     1       2.069   7.279  18.972  0.00  0.00    +0.000 N 
ATOM      8  C   UNL     1       1.931   8.537  18.404  0.00  0.00    +0.000 C 
ATOM      9  O   UNL     1       2.193   8.851  17.248  0.00  0.00    +0.000 OA
ATOM     10  H   UNL     1       1.694   7.185  19.912  0.00  0.00    +0.000 HD
BRANCH   8  11
ATOM     11  C   UNL     1       1.365   9.576  19.320  0.00  0.00    +0.000 A 
ATOM     12  C   UNL     1       1.344  10.903  18.904  0.00  0.00    +0.000 A 
ATOM     13  C   UNL     1       0.808  11.856  19.757  0.00  0.00    +0.000 A 
ATOM     14  C   UNL     1       0.310  11.457  20.995  0.00  0.00    +0.000 A 
ATOM     15  C   UNL     1       0.360  10.106  21.353  0.00  0.00    +0.000 A 
ATOM     16  N   UNL     1       0.888   9.153  20.523  0.00  0.00    +0.000 NA
BRANCH  15  17
ATOM     17  C   UNL     1      -0.194   9.673  22.707  0.00  0.00    +0.000 C 
ATOM     18  F   UNL     1      -0.999  10.608  23.292  0.00  0.00    +0.000 F 
ATOM     19  F   UNL     1      -0.948   8.540  22.629  0.00  0.00    +0.000 F 
ATOM     20  F   UNL     1       0.785   9.411  23.619  0.00  0.00    +0.000 F 
ENDBRANCH  15  17
ENDBRANCH   8  11
ENDBRANCH   5   7
BRANCH   1  22
ATOM     21  C   UNL     1       5.509   4.235  14.848  0.00  0.00    +0.000 C 
ATOM     22  C   UNL     1       5.550   5.215  16.031  0.00  0.00    +0.000 C 
BRANCH  22  23
ATOM     23  C   UNL     1       6.804   5.069  16.917  0.00  0.00    +0.000 C 
BRANCH  23  24
ATOM     24  C   UNL     1       7.333   6.378  17.402  0.00  0.00    +0.000 A 
ATOM     25  N   UNL     1       7.349   7.516  16.736  0.00  0.00    +0.000 NA
ATOM     26  N   UNL     1       7.966   8.462  17.522  0.00  0.00    +0.000 NA
ATOM     27  C   UNL     1       8.300   7.889  18.650  0.00  0.00    +0.000 A 
ATOM     28  N   UNL     1       7.913   6.585  18.627  0.00  0.00    +0.000 N 
ATOM     29  C   UNL     1       8.088   5.626  19.683  0.00  0.00    +0.000 C 
ENDBRANCH  23  24
ENDBRANCH  22  23
ENDBRANCH   1  22
TORSDOF 6
ENDMDL
MODEL 2
REMARK VINA RESULT:      -8.1      4.440      8.882
REMARK  Name = 
REMARK  8 active torsions:
REMARK  status: ('A' for Active; 'I' for Inactive)
REMARK    1  A    between atoms: C_1  and  C_2
REMARK    2  A    between atoms: C_2  and  C_3
REMARK    3  A    between atoms: C_2  and  C_10
REMARK    4  A    between atoms: C_3  and  C_4
REMARK    5  A    between atoms: N_8  and  C_9
REMARK    6  A    between atoms: C_14  and  N_15
REMARK    7  A    between atoms: C_16  and  C_18
REMARK    8  A    between atoms: C_22  and  C_23
REMARK                            x       y       z     vdW  Elec       q    Type
REMARK                         _______ _______ _______ _____ _____    ______ ____
ROOT
ATOM      1  C   UNL     1      -0.233  10.167  19.812  0.00  0.00    +0.000 A 
ATOM      2  C   UNL     1      -0.374  10.227  21.205  0.00  0.00    +0.000 A 
ATOM      3  C   UNL     1       0.405   9.422  22.030  0.00  0.00    +0.000 A 
ATOM      4  C   UNL     1       1.328   8.535  21.477  0.00  0.00    +0.000 A 
ATOM      5  C   UNL     1       1.496   8.450  20.095  0.00  0.00    +0.000 A 
ATOM      6  C   UNL     1       0.734   9.293  19.271  0.00  0.00    +0.000 A 
ENDROOT
BRANCH   5   7
ATOM      7  N   UNL     1       2.398   7.547  19.488  0.00  0.00    +0.000 N 
ATOM      8  C   UNL     1       2.434   6.173  19.673  0.00  0.00    +0.000 C 
ATOM      9  O   UNL     1       1.673   5.507  20.367  0.00  0.00    +0.000 OA
ATOM     10  H   UNL     1       3.039   7.906  18.786  0.00  0.00    +0.000 HD
BRANCH   8  11
ATOM     11  C   UNL     1       3.501   5.467  18.897  0.00  0.00    +0.000 A 
ATOM     12  C   UNL     1       3.130   4.530  17.938  0.00  0.00    +0.000 A 
ATOM     13  C   UNL     1       4.129   3.890  17.218  0.00  0.00    +0.000 A 
ATOM     14  C   UNL     1       5.460   4.204  17.474  0.00  0.00    +0.000 A 
ATOM     15  C   UNL     1       5.767   5.157  18.451  0.00  0.00    +0.000 A 
ATOM     16  N   UNL     1       4.794   5.797  19.173  0.00  0.00    +0.000 NA
BRANCH  15  17
ATOM     17  C   UNL     1       7.227   5.503  18.724  0.00  0.00    +0.000 C 
ATOM     18  F   UNL     1       7.608   6.707  18.203  0.00  0.00    +0.000 F 
ATOM     19  F   UNL     1       7.512   5.574  20.055  0.00  0.00    +0.000 F 
ATOM     20  F   UNL     1       8.093   4.589  18.202  0.00  0.00    +0.000 F 
ENDBRANCH  15  17
ENDBRANCH   8  11
ENDBRANCH   5   7
BRANCH   1  22
ATOM     21  C   UNL     1      -1.328  12.450  19.571  0.00  0.00    +0.000 C 
ATOM     22  C   UNL     1      -1.121  11.062  18.946  0.00  0.00    +0.000 C 
BRANCH  22  23
ATOM     23  C   UNL     1      -2.435  10.327  18.611  0.00  0.00    +0.000 C 
BRANCH  23  24
ATOM     24  C   UNL     1      -2.784  10.383  17.161  0.00  0.00    +0.000 A 
ATOM     25  N   UNL     1      -2.109   9.841  16.167  0.00  0.00    +0.000 NA
ATOM     26  N   UNL     1      -2.742  10.170  14.990  0.00  0.00    +0.000 NA
ATOM     27  C   UNL     1      -3.793  10.892  15.290  0.00  0.00    +0.000 A 
ATOM     28  N   UNL     1      -3.868  11.042  16.640  0.00  0.00    +0.000 N 
ATOM     29  C   UNL     1      -4.885  11.756  17.362  0.00  0.00    +0.000 C 
ENDBRANCH  23  24
ENDBRANCH  22  23
ENDBRANCH   1  22
TORSDOF 6
ENDMDL
MODEL 3
REMARK VINA RESULT:      -8.1      5.652      7.551
REMARK  Name = 
REMARK  8 active torsions:
REMARK  status: ('A' for Active; 'I' for Inactive)
REMARK    1  A    between atoms: C_1  and  C_2
REMARK    2  A    between atoms: C_2  and  C_3
REMARK    3  A    between atoms: C_2  and  C_10
REMARK    4  A    between atoms: C_3  and  C_4
REMARK    5  A    between atoms: N_8  and  C_9
REMARK    6  A    between atoms: C_14  and  N_15
REMARK    7  A    between atoms: C_16  and  C_18
REMARK    8  A    between atoms: C_22  and  C_23
REMARK                            x       y       z     vdW  Elec       q    Type
REMARK                         _______ _______ _______ _____ _____    ______ ____
ROOT
ATOM      1  C   UNL     1       6.492   6.210  17.301  0.00  0.00    +0.000 A 
ATOM      2  C   UNL     1       6.970   5.401  18.341  0.00  0.00    +0.000 A 
ATOM      3  C   UNL     1       7.939   5.876  19.219  0.00  0.00    +0.000 A 
ATOM      4  C   UNL     1       8.457   7.162  19.064  0.00  0.00    +0.000 A 
ATOM      5  C   UNL     1       8.003   7.995  18.041  0.00  0.00    +0.000 A 
ATOM      6  C   UNL     1       6.997   7.522  17.184  0.00  0.00    +0.000 A 
ENDROOT
BRANCH   5   7
ATOM      7  N   UNL     1       8.517   9.294  17.828  0.00  0.00    +0.000 N 
ATOM      8  C   UNL     1       8.970  10.169  18.805  0.00  0.00    +0.000 C 
ATOM      9  O   UNL     1       9.029   9.953  20.010  0.00  0.00    +0.000 OA
ATOM     10  H   UNL     1       8.650   9.608  16.871  0.00  0.00    +0.000 HD
BRANCH   8  11
ATOM     11  C   UNL     1       9.461  11.483  18.285  0.00  0.00    +0.000 A 
ATOM     12  C   UNL     1      10.723  11.550  17.704  0.00  0.00    +0.000 A 
ATOM     13  C   UNL     1      11.164  12.772  17.216  0.00  0.00    +0.000 A 
ATOM     14  C   UNL     1      10.334  13.885  17.323  0.00  0.00    +0.000 A 
ATOM     15  C   UNL     1       9.076  13.751  17.918  0.00  0.00    +0.000 A 
ATOM     16  N   UNL     1       8.626  12.553  18.406  0.00  0.00    +0.000 NA
BRANCH  15  17
ATOM     17  C   UNL     1       8.168  14.972  18.025  0.00  0.00    +0.000 C 
ATOM     18  F   UNL     1       6.976  14.825  17.373  0.00  0.00    +0.000 F 
ATOM     19  F   UNL     1       7.844  15.276  19.314  0.00  0.00    +0.000 F 
ATOM     20  F   UNL     1       8.732  16.098  17.504  0.00  0.00    +0.000 F 
ENDBRANCH  15  17
ENDBRANCH   8  11
ENDBRANCH   5   7
BRANCH   1  22
ATOM     21  C   UNL     1       4.098   5.384  17.065  0.00  0.00    +0.000 C 
ATOM     22  C   UNL     1       5.436   5.639  16.353  0.00  0.00    +0.000 C 
BRANCH  22  23
ATOM     23  C   UNL     1       6.001   4.401  15.627  0.00  0.00    +0.000 C 
BRANCH  23  24
ATOM     24  C   UNL     1       6.831   4.750  14.437  0.00  0.00    +0.000 A 
ATOM     25  N   UNL     1       7.893   5.531  14.420  0.00  0.00    +0.000 NA
ATOM     26  N   UNL     1       8.331   5.630  13.119  0.00  0.00    +0.000 NA
ATOM     27  C   UNL     1       7.539   4.900  12.374  0.00  0.00    +0.000 A 
ATOM     28  N   UNL     1       6.591   4.319  13.157  0.00  0.00    +0.000 N 
ATOM     29  C   UNL     1       5.547   3.434  12.717  0.00  0.00    +0.000 C 
ENDBRANCH  23  24
ENDBRANCH  22  23
ENDBRANCH   1  22
TORSDOF 6
ENDMDL
MODEL 4
REMARK VINA RESULT:      -8.1      5.214      7.635
REMARK  Name = 
REMARK  8 active torsions:
REMARK  status: ('A' for Active; 'I' for Inactive)
REMARK    1  A    between atoms: C_1  and  C_2
REMARK    2  A    between atoms: C_2  and  C_3
REMARK    3  A    between atoms: C_2  and  C_10
REMARK    4  A    between atoms: C_3  and  C_4
REMARK    5  A    between atoms: N_8  and  C_9
REMARK    6  A    between atoms: C_14  and  N_15
REMARK    7  A    between atoms: C_16  and  C_18
REMARK    8  A    between atoms: C_22  and  C_23
REMARK                            x       y       z     vdW  Elec       q    Type
REMARK                         _______ _______ _______ _____ _____    ______ ____
ROOT
ATOM      1  C   UNL     1       4.750   5.065  17.242  0.00  0.00    +0.000 A 
ATOM      2  C   UNL     1       5.449   4.119  16.478  0.00  0.00    +0.000 A 
ATOM      3  C   UNL     1       6.706   4.417  15.961  0.00  0.00    +0.000 A 
ATOM      4  C   UNL     1       7.280   5.668  16.187  0.00  0.00    +0.000 A 
ATOM      5  C   UNL     1       6.614   6.632  16.944  0.00  0.00    +0.000 A 
ATOM      6  C   UNL     1       5.363   6.310  17.495  0.00  0.00    +0.000 A 
ENDROOT
BRANCH   5   7
ATOM      7  N   UNL     1       7.143   7.923  17.176  0.00  0.00    +0.000 N 
ATOM      8  C   UNL     1       8.079   8.265  18.140  0.00  0.00    +0.000 C 
ATOM      9  O   UNL     1       8.628   7.505  18.930  0.00  0.00    +0.000 OA
ATOM     10  H   UNL     1       6.885   8.670  16.538  0.00  0.00    +0.000 HD
BRANCH   8  11
ATOM     11  C   UNL     1       8.457   9.713  18.155  0.00  0.00    +0.000 A 
ATOM     12  C   UNL     1       7.736  10.607  17.372  0.00  0.00    +0.000 A 
ATOM     13  C   UNL     1       8.089  11.948  17.402  0.00  0.00    +0.000 A 
ATOM     14  C   UNL     1       9.147  12.354  18.212  0.00  0.00    +0.000 A 
ATOM     15  C   UNL     1       9.832  11.405  18.977  0.00  0.00    +0.000 A 
ATOM     16  N   UNL     1       9.497  10.076  18.957  0.00  0.00    +0.000 NA
BRANCH  15  17
ATOM     17  C   UNL     1      10.985  11.855  19.869  0.00  0.00    +0.000 C 
ATOM     18  F   UNL     1      11.252  13.192  19.781  0.00  0.00    +0.000 F 
ATOM     19  F   UNL     1      10.754  11.615  21.190  0.00  0.00    +0.000 F 
ATOM     20  F   UNL     1      12.158  11.228  19.572  0.00  0.00    +0.000 F 
ENDBRANCH  15  17
ENDBRANCH   8  11
ENDBRANCH   5   7
BRANCH   1  22
ATOM     21  C   UNL     1       2.915   5.637  18.907  0.00  0.00    +0.000 C 
ATOM     22  C   UNL     1       3.366   4.696  17.779  0.00  0.00    +0.000 C 
BRANCH  22  23
ATOM     23  C   UNL     1       3.336   3.203  18.163  0.00  0.00    +0.000 C 
BRANCH  23  24
ATOM     24  C   UNL     1       2.879   2.969  19.565  0.00  0.00    +0.000 A 
ATOM     25  N   UNL     1       3.634   2.936  20.644  0.00  0.00    +0.000 NA
ATOM     26  N   UNL     1       2.829   2.643  21.721  0.00  0.00    +0.000 NA
ATOM     27  C   UNL     1       1.603   2.517  21.281  0.00  0.00    +0.000 A 
ATOM     28  N   UNL     1       1.581   2.724  19.937  0.00  0.00    +0.000 N 
ATOM     29  C   UNL     1       0.422   2.687  19.088  0.00  0.00    +0.000 C 
ENDBRANCH  23  24
ENDBRANCH  22  23
ENDBRANCH   1  22
TORSDOF 6
ENDMDL
MODEL 5
REMARK VINA RESULT:      -7.9      2.144      2.532
REMARK  Name = 
REMARK  8 active torsions:
REMARK  status: ('A' for Active; 'I' for Inactive)
REMARK    1  A    between atoms: C_1  and  C_2
REMARK    2  A    between atoms: C_2  and  C_3
REMARK    3  A    between atoms: C_2  and  C_10
REMARK    4  A    between atoms: C_3  and  C_4
REMARK    5  A    between atoms: N_8  and  C_9
REMARK    6  A    between atoms: C_14  and  N_15
REMARK    7  A    between atoms: C_16  and  C_18
REMARK    8  A    between atoms: C_22  and  C_23
REMARK                            x       y       z     vdW  Elec       q    Type
REMARK                         _______ _______ _______ _____ _____    ______ ____
ROOT
ATOM      1  C   UNL     1       4.494   4.751  16.813  0.00  0.00    +0.000 A 
ATOM      2  C   UNL     1       3.842   3.513  16.891  0.00  0.00    +0.000 A 
ATOM      3  C   UNL     1       2.626   3.394  17.556  0.00  0.00    +0.000 A 
ATOM      4  C   UNL     1       2.047   4.507  18.165  0.00  0.00    +0.000 A 
ATOM      5  C   UNL     1       2.666   5.755  18.106  0.00  0.00    +0.000 A 
ATOM      6  C   UNL     1       3.874   5.875  17.399  0.00  0.00    +0.000 A 
ENDROOT
BRANCH   5   7
ATOM      7  N   UNL     1       2.132   6.905  18.731  0.00  0.00    +0.000 N 
ATOM      8  C   UNL     1       1.782   7.026  20.067  0.00  0.00    +0.000 C 
ATOM      9  O   UNL     1       1.906   6.170  20.937  0.00  0.00    +0.000 OA
ATOM     10  H   UNL     1       2.061   7.760  18.186  0.00  0.00    +0.000 HD
BRANCH   8  11
ATOM     11  C   UNL     1       1.240   8.367  20.451  0.00  0.00    +0.000 A 
ATOM     12  C   UNL     1       0.492   8.483  21.618  0.00  0.00    +0.000 A 
ATOM     13  C   UNL     1       0.003   9.733  21.969  0.00  0.00    +0.000 A 
ATOM     14  C   UNL     1       0.275  10.824  21.148  0.00  0.00    +0.000 A 
ATOM     15  C   UNL     1       1.034  10.641  19.988  0.00  0.00    +0.000 A 
ATOM     16  N   UNL     1       1.523   9.413  19.626  0.00  0.00    +0.000 NA
BRANCH  15  17
ATOM     17  C   UNL     1       1.336  11.840  19.096  0.00  0.00    +0.000 C 
ATOM     18  F   UNL     1       0.218  12.447  18.600  0.00  0.00    +0.000 F 
ATOM     19  F   UNL     1       2.026  12.820  19.746  0.00  0.00    +0.000 F 
ATOM     20  F   UNL     1       2.087  11.513  18.006  0.00  0.00    +0.000 F 
ENDBRANCH  15  17
ENDBRANCH   8  11
ENDBRANCH   5   7
BRANCH   1  22
ATOM     21  C   UNL     1       5.962   3.758  14.989  0.00  0.00    +0.000 C 
ATOM     22  C   UNL     1       5.835   4.830  16.083  0.00  0.00    +0.000 C 
BRANCH  22  23
ATOM     23  C   UNL     1       6.988   4.814  17.107  0.00  0.00    +0.000 C 
BRANCH  23  24
ATOM     24  C   UNL     1       7.445   6.181  17.495  0.00  0.00    +0.000 A 
ATOM     25  N   UNL     1       7.443   7.258  16.733  0.00  0.00    +0.000 NA
ATOM     26  N   UNL     1       7.990   8.294  17.456  0.00  0.00    +0.000 NA
ATOM     27  C   UNL     1       8.300   7.834  18.642  0.00  0.00    +0.000 A 
ATOM     28  N   UNL     1       7.966   6.518  18.718  0.00  0.00    +0.000 N 
ATOM     29  C   UNL     1       8.135   5.661  19.860  0.00  0.00    +0.000 C 
ENDBRANCH  23  24
ENDBRANCH  22  23
ENDBRANCH   1  22
TORSDOF 6
ENDMDL
MODEL 6
REMARK VINA RESULT:      -7.9      3.824      8.646
REMARK  Name = 
REMARK  8 active torsions:
REMARK  status: ('A' for Active; 'I' for Inactive)
REMARK    1  A    between atoms: C_1  and  C_2
REMARK    2  A    between atoms: C_2  and  C_3
REMARK    3  A    between atoms: C_2  and  C_10
REMARK    4  A    between atoms: C_3  and  C_4
REMARK    5  A    between atoms: N_8  and  C_9
REMARK    6  A    between atoms: C_14  and  N_15
REMARK    7  A    between atoms: C_16  and  C_18
REMARK    8  A    between atoms: C_22  and  C_23
REMARK                            x       y       z     vdW  Elec       q    Type
REMARK                         _______ _______ _______ _____ _____    ______ ____
ROOT
ATOM      1  C   UNL     1      -0.573  10.979  20.346  0.00  0.00    +0.000 A 
ATOM      2  C   UNL     1      -0.888  11.267  21.682  0.00  0.00    +0.000 A 
ATOM      3  C   UNL     1      -0.462  10.427  22.706  0.00  0.00    +0.000 A 
ATOM      4  C   UNL     1       0.273   9.279  22.413  0.00  0.00    +0.000 A 
ATOM      5  C   UNL     1       0.606   8.962  21.096  0.00  0.00    +0.000 A 
ATOM      6  C   UNL     1       0.207   9.835  20.072  0.00  0.00    +0.000 A 
ENDROOT
BRANCH   5   7
ATOM      7  N   UNL     1       1.325   7.796  20.749  0.00  0.00    +0.000 N 
ATOM      8  C   UNL     1       2.063   7.601  19.590  0.00  0.00    +0.000 C 
ATOM      9  O   UNL     1       2.241   8.414  18.690  0.00  0.00    +0.000 OA
ATOM     10  H   UNL     1       1.386   7.046  21.432  0.00  0.00    +0.000 HD
BRANCH   8  11
ATOM     11  C   UNL     1       2.723   6.261  19.490  0.00  0.00    +0.000 A 
ATOM     12  C   UNL     1       3.799   6.102  18.622  0.00  0.00    +0.000 A 
ATOM     13  C   UNL     1       4.409   4.859  18.546  0.00  0.00    +0.000 A 
ATOM     14  C   UNL     1       3.929   3.816  19.334  0.00  0.00    +0.000 A 
ATOM     15  C   UNL     1       2.844   4.042  20.187  0.00  0.00    +0.000 A 
ATOM     16  N   UNL     1       2.228   5.263  20.273  0.00  0.00    +0.000 NA
BRANCH  15  17
ATOM     17  C   UNL     1       2.326   2.899  21.054  0.00  0.00    +0.000 C 
ATOM     18  F   UNL     1       1.630   1.955  20.355  0.00  0.00    +0.000 F 
ATOM     19  F   UNL     1       3.327   2.222  21.685  0.00  0.00    +0.000 F 
ATOM     20  F   UNL     1       1.481   3.322  22.037  0.00  0.00    +0.000 F 
ENDBRANCH  15  17
ENDBRANCH   8  11
ENDBRANCH   5   7
BRANCH   1  22
ATOM     21  C   UNL     1      -0.762  13.394  19.574  0.00  0.00    +0.000 C 
ATOM     22  C   UNL     1      -1.074  11.924  19.254  0.00  0.00    +0.000 C 
BRANCH  22  23
ATOM     23  C   UNL     1      -2.565  11.651  18.970  0.00  0.00    +0.000 C 
BRANCH  23  24
ATOM     24  C   UNL     1      -2.809  11.095  17.607  0.00  0.00    +0.000 A 
ATOM     25  N   UNL     1      -1.972  10.371  16.890  0.00  0.00    +0.000 NA
ATOM     26  N   UNL     1      -2.565  10.107  15.677  0.00  0.00    +0.000 NA
ATOM     27  C   UNL     1      -3.751  10.662  15.682  0.00  0.00    +0.000 A 
ATOM     28  N   UNL     1      -3.954  11.283  16.875  0.00  0.00    +0.000 N 
ATOM     29  C   UNL     1      -5.137  11.995  17.275  0.00  0.00    +0.000 C 
ENDBRANCH  23  24
ENDBRANCH  22  23
ENDBRANCH   1  22
TORSDOF 6
ENDMDL
MODEL 7
REMARK VINA RESULT:      -7.9      4.004      8.708
REMARK  Name = 
REMARK  8 active torsions:
REMARK  status: ('A' for Active; 'I' for Inactive)
REMARK    1  A    between atoms: C_1  and  C_2
REMARK    2  A    between atoms: C_2  and  C_3
REMARK    3  A    between atoms: C_2  and  C_10
REMARK    4  A    between atoms: C_3  and  C_4
REMARK    5  A    between atoms: N_8  and  C_9
REMARK    6  A    between atoms: C_14  and  N_15
REMARK    7  A    between atoms: C_16  and  C_18
REMARK    8  A    between atoms: C_22  and  C_23
REMARK                            x       y       z     vdW  Elec       q    Type
REMARK                         _______ _______ _______ _____ _____    ______ ____
ROOT
ATOM      1  C   UNL     1      -0.264  10.705  19.892  0.00  0.00    +0.000 A 
ATOM      2  C   UNL     1      -0.327  10.804  21.289  0.00  0.00    +0.000 A 
ATOM      3  C   UNL     1       0.352   9.895  22.094  0.00  0.00    +0.000 A 
ATOM      4  C   UNL     1       1.093   8.863  21.518  0.00  0.00    +0.000 A 
ATOM      5  C   UNL     1       1.179   8.735  20.132  0.00  0.00    +0.000 A 
ATOM      6  C   UNL     1       0.524   9.680  19.326  0.00  0.00    +0.000 A 
ENDROOT
BRANCH   5   7
ATOM      7  N   UNL     1       1.895   7.691  19.502  0.00  0.00    +0.000 N 
ATOM      8  C   UNL     1       2.524   7.754  18.268  0.00  0.00    +0.000 C 
ATOM      9  O   UNL     1       2.593   8.731  17.530  0.00  0.00    +0.000 OA
ATOM     10  H   UNL     1       2.042   6.829  20.019  0.00  0.00    +0.000 HD
BRANCH   8  11
ATOM     11  C   UNL     1       3.209   6.491  17.852  0.00  0.00    +0.000 A 
ATOM     12  C   UNL     1       4.394   6.572  17.127  0.00  0.00    +0.000 A 
ATOM     13  C   UNL     1       5.025   5.393  16.757  0.00  0.00    +0.000 A 
ATOM     14  C   UNL     1       4.457   4.175  17.120  0.00  0.00    +0.000 A 
ATOM     15  C   UNL     1       3.265   4.161  17.850  0.00  0.00    +0.000 A 
ATOM     16  N   UNL     1       2.627   5.316  18.222  0.00  0.00    +0.000 NA
BRANCH  15  17
ATOM     17  C   UNL     1       2.651   2.824  18.252  0.00  0.00    +0.000 C 
ATOM     18  F   UNL     1       2.787   2.539  19.581  0.00  0.00    +0.000 F 
ATOM     19  F   UNL     1       1.313   2.762  18.000  0.00  0.00    +0.000 F 
ATOM     20  F   UNL     1       3.208   1.768  17.594  0.00  0.00    +0.000 F 
ENDBRANCH  15  17
ENDBRANCH   8  11
ENDBRANCH   5   7
BRANCH   1  22
ATOM     21  C   UNL     1      -0.928  13.144  19.615  0.00  0.00    +0.000 C 
ATOM     22  C   UNL     1      -1.037  11.720  19.049  0.00  0.00    +0.000 C 
BRANCH  22  23
ATOM     23  C   UNL     1      -2.488  11.237  18.851  0.00  0.00    +0.000 C 
BRANCH  23  24
ATOM     24  C   UNL     1      -2.782  10.828  17.446  0.00  0.00    +0.000 A 
ATOM     25  N   UNL     1      -2.003  10.120  16.652  0.00  0.00    +0.000 NA
ATOM     26  N   UNL     1      -2.625  10.010  15.430  0.00  0.00    +0.000 NA
ATOM     27  C   UNL     1      -3.770  10.640  15.505  0.00  0.00    +0.000 A 
ATOM     28  N   UNL     1      -3.919  11.159  16.754  0.00  0.00    +0.000 N 
ATOM     29  C   UNL     1      -5.048  11.907  17.236  0.00  0.00    +0.000 C 
ENDBRANCH  23  24
ENDBRANCH  22  23
ENDBRANCH   1  22
TORSDOF 6
ENDMDL
MODEL 8
REMARK VINA RESULT:      -7.9      2.450      3.425
REMARK  Name = 
REMARK  8 active torsions:
REMARK  status: ('A' for Active; 'I' for Inactive)
REMARK    1  A    between atoms: C_1  and  C_2
REMARK    2  A    between atoms: C_2  and  C_3
REMARK    3  A    between atoms: C_2  and  C_10
REMARK    4  A    between atoms: C_3  and  C_4
REMARK    5  A    between atoms: N_8  and  C_9
REMARK    6  A    between atoms: C_14  and  N_15
REMARK    7  A    between atoms: C_16  and  C_18
REMARK    8  A    between atoms: C_22  and  C_23
REMARK                            x       y       z     vdW  Elec       q    Type
REMARK                         _______ _______ _______ _____ _____    ______ ____
ROOT
ATOM      1  C   UNL     1       4.554   5.331  17.593  0.00  0.00    +0.000 A 
ATOM      2  C   UNL     1       4.506   3.986  17.984  0.00  0.00    +0.000 A 
ATOM      3  C   UNL     1       3.706   3.588  19.050  0.00  0.00    +0.000 A 
ATOM      4  C   UNL     1       2.951   4.528  19.751  0.00  0.00    +0.000 A 
ATOM      5  C   UNL     1       2.974   5.874  19.388  0.00  0.00    +0.000 A 
ATOM      6  C   UNL     1       3.753   6.262  18.287  0.00  0.00    +0.000 A 
ENDROOT
BRANCH   5   7
ATOM      7  N   UNL     1       2.248   6.867  20.086  0.00  0.00    +0.000 N 
ATOM      8  C   UNL     1       1.815   8.080  19.572  0.00  0.00    +0.000 C 
ATOM      9  O   UNL     1       1.961   8.483  18.423  0.00  0.00    +0.000 OA
ATOM     10  H   UNL     1       1.935   6.660  21.030  0.00  0.00    +0.000 HD
BRANCH   8  11
ATOM     11  C   UNL     1       1.065   8.936  20.544  0.00  0.00    +0.000 A 
ATOM     12  C   UNL     1       1.076   8.596  21.892  0.00  0.00    +0.000 A 
ATOM     13  C   UNL     1       0.385   9.403  22.785  0.00  0.00    +0.000 A 
ATOM     14  C   UNL     1      -0.292  10.521  22.306  0.00  0.00    +0.000 A 
ATOM     15  C   UNL     1      -0.264  10.809  20.938  0.00  0.00    +0.000 A 
ATOM     16  N   UNL     1       0.412  10.022  20.042  0.00  0.00    +0.000 NA
BRANCH  15  17
ATOM     17  C   UNL     1      -1.001  12.040  20.418  0.00  0.00    +0.000 C 
ATOM     18  F   UNL     1      -0.423  12.596  19.313  0.00  0.00    +0.000 F 
ATOM     19  F   UNL     1      -2.288  11.771  20.062  0.00  0.00    +0.000 F 
ATOM     20  F   UNL     1      -1.067  13.043  21.339  0.00  0.00    +0.000 F 
ENDBRANCH  15  17
ENDBRANCH   8  11
ENDBRANCH   5   7
BRANCH   1  22
ATOM     21  C   UNL     1       4.906   6.926  15.644  0.00  0.00    +0.000 C 
ATOM     22  C   UNL     1       5.459   5.723  16.424  0.00  0.00    +0.000 C 
BRANCH  22  23
ATOM     23  C   UNL     1       5.741   4.487  15.545  0.00  0.00    +0.000 C 
BRANCH  23  24
ATOM     24  C   UNL     1       6.709   4.763  14.442  0.00  0.00    +0.000 A 
ATOM     25  N   UNL     1       7.781   5.526  14.508  0.00  0.00    +0.000 NA
ATOM     26  N   UNL     1       8.366   5.552  13.262  0.00  0.00    +0.000 NA
ATOM     27  C   UNL     1       7.648   4.797  12.469  0.00  0.00    +0.000 A 
ATOM     28  N   UNL     1       6.606   4.270  13.166  0.00  0.00    +0.000 N 
ATOM     29  C   UNL     1       5.601   3.380  12.653  0.00  0.00    +0.000 C 
ENDBRANCH  23  24
ENDBRANCH  22  23
ENDBRANCH   1  22
TORSDOF 6
ENDMDL
MODEL 9
REMARK VINA RESULT:      -7.9      1.669      2.130
REMARK  Name = 
REMARK  8 active torsions:
REMARK  status: ('A' for Active; 'I' for Inactive)
REMARK    1  A    between atoms: C_1  and  C_2
REMARK    2  A    between atoms: C_2  and  C_3
REMARK    3  A    between atoms: C_2  and  C_10
REMARK    4  A    between atoms: C_3  and  C_4
REMARK    5  A    between atoms: N_8  and  C_9
REMARK    6  A    between atoms: C_14  and  N_15
REMARK    7  A    between atoms: C_16  and  C_18
REMARK    8  A    between atoms: C_22  and  C_23
REMARK                            x       y       z     vdW  Elec       q    Type
REMARK                         _______ _______ _______ _____ _____    ______ ____
ROOT
ATOM      1  C   UNL     1       4.321   4.537  16.826  0.00  0.00    +0.000 A 
ATOM      2  C   UNL     1       3.717   3.272  16.855  0.00  0.00    +0.000 A 
ATOM      3  C   UNL     1       2.560   3.057  17.596  0.00  0.00    +0.000 A 
ATOM      4  C   UNL     1       1.993   4.098  18.332  0.00  0.00    +0.000 A 
ATOM      5  C   UNL     1       2.566   5.370  18.324  0.00  0.00    +0.000 A 
ATOM      6  C   UNL     1       3.712   5.588  17.543  0.00  0.00    +0.000 A 
ENDROOT
BRANCH   5   7
ATOM      7  N   UNL     1       2.044   6.448  19.075  0.00  0.00    +0.000 N 
ATOM      8  C   UNL     1       2.123   7.793  18.745  0.00  0.00    +0.000 C 
ATOM      9  O   UNL     1       2.630   8.271  17.735  0.00  0.00    +0.000 OA
ATOM     10  H   UNL     1       1.487   6.237  19.898  0.00  0.00    +0.000 HD
BRANCH   8  11
ATOM     11  C   UNL     1       1.478   8.716  19.730  0.00  0.00    +0.000 A 
ATOM     12  C   UNL     1       1.448   8.356  21.073  0.00  0.00    +0.000 A 
ATOM     13  C   UNL     1       0.856   9.224  21.979  0.00  0.00    +0.000 A 
ATOM     14  C   UNL     1       0.316  10.422  21.518  0.00  0.00    +0.000 A 
ATOM     15  C   UNL     1       0.379  10.726  20.154  0.00  0.00    +0.000 A 
ATOM     16  N   UNL     1       0.958   9.879  19.246  0.00  0.00    +0.000 NA
BRANCH  15  17
ATOM     17  C   UNL     1      -0.207  12.043  19.655  0.00  0.00    +0.000 C 
ATOM     18  F   UNL     1       0.644  13.103  19.786  0.00  0.00    +0.000 F 
ATOM     19  F   UNL     1      -0.542  12.003  18.335  0.00  0.00    +0.000 F 
ATOM     20  F   UNL     1      -1.342  12.402  20.321  0.00  0.00    +0.000 F 
ENDBRANCH  15  17
ENDBRANCH   8  11
ENDBRANCH   5   7
BRANCH   1  22
ATOM     21  C   UNL     1       5.670   3.749  14.819  0.00  0.00    +0.000 C 
ATOM     22  C   UNL     1       5.599   4.721  16.007  0.00  0.00    +0.000 C 
BRANCH  22  23
ATOM     23  C   UNL     1       6.828   4.659  16.937  0.00  0.00    +0.000 C 
BRANCH  23  24
ATOM     24  C   UNL     1       7.327   6.007  17.339  0.00  0.00    +0.000 A 
ATOM     25  N   UNL     1       7.453   7.064  16.560  0.00  0.00    +0.000 NA
ATOM     26  N   UNL     1       7.993   8.084  17.309  0.00  0.00    +0.000 NA
ATOM     27  C   UNL     1       8.173   7.635  18.526  0.00  0.00    +0.000 A 
ATOM     28  N   UNL     1       7.759   6.342  18.597  0.00  0.00    +0.000 N 
ATOM     29  C   UNL     1       7.779   5.504  19.764  0.00  0.00    +0.000 C 
ENDBRANCH  23  24
ENDBRANCH  22  23
ENDBRANCH   1  22
TORSDOF 6
ENDMDL
