MODEL 1
REMARK VINA RESULT:      -8.7      0.000      0.000
REMARK  Name = 
REMARK  6 active torsions:
REMARK  status: ('A' for Active; 'I' for Inactive)
REMARK    1  A    between atoms: C_1  and  C_2
REMARK    2  A    between atoms: C_2  and  S_3
REMARK    3  A    between atoms: C_2  and  C_10
REMARK    4  A    between atoms: S_3  and  C_4
REMARK    5  A    between atoms: N_8  and  C_9
REMARK    6  A    between atoms: C_16  and  C_18
REMARK                            x       y       z     vdW  Elec       q    Type
REMARK                         _______ _______ _______ _____ _____    ______ ____
ROOT
ATOM      1  C   UNL     1       6.373   6.292  17.263  0.00  0.00    +0.000 A 
ATOM      2  C   UNL     1       6.991   5.520  18.256  0.00  0.00    +0.000 A 
ATOM      3  C   UNL     1       7.950   6.107  19.051  0.00  0.00    +0.000 A 
ATOM      4  N   UNL     1       8.347   7.383  18.919  0.00  0.00    +0.000 NA
ATOM      5  C   UNL     1       7.774   8.144  17.976  0.00  0.00    +0.000 A 
ATOM      6  N   UNL     1       8.193   9.479  17.821  0.00  0.00    +0.000 N 
ATOM      7  C   UNL     1       9.143  10.069  18.629  0.00  0.00    +0.000 C 
ATOM      8  O   UNL     1       9.699   9.578  19.608  0.00  0.00    +0.000 OA
ATOM      9  C   UNL     1       6.787   7.637  17.133  0.00  0.00    +0.000 A 
ATOM     10  H   UNL     1       7.810  10.042  17.073  0.00  0.00    +0.000 HD
ENDROOT
BRANCH   7  11
ATOM     11  C   UNL     1       9.553  11.456  18.237  0.00  0.00    +0.000 A 
ATOM     12  C   UNL     1      10.873  11.644  17.847  0.00  0.00    +0.000 A 
ATOM     13  C   UNL     1      11.242  12.878  17.347  0.00  0.00    +0.000 A 
ATOM     14  C   UNL     1      10.328  13.921  17.359  0.00  0.00    +0.000 A 
ATOM     15  C   UNL     1      10.733  15.189  16.919  0.00  0.00    +0.000 A 
ATOM     16  C   UNL     1       9.990  16.310  17.249  0.00  0.00    +0.000 A 
ATOM     17  C   UNL     1       8.762  16.142  17.878  0.00  0.00    +0.000 A 
ATOM     18  C   UNL     1       8.274  14.852  18.124  0.00  0.00    +0.000 A 
ATOM     19  F   UNL     1       7.037  14.745  18.640  0.00  0.00    +0.000 F 
ATOM     20  C   UNL     1       9.040  13.700  17.913  0.00  0.00    +0.000 A 
ATOM     21  N   UNL     1       8.623  12.453  18.271  0.00  0.00    +0.000 NA
ENDBRANCH   7  11
BRANCH   1  23
ATOM     22  C   UNL     1       3.955   5.471  17.017  0.00  0.00    +0.000 C 
ATOM     23  C   UNL     1       5.300   5.709  16.326  0.00  0.00    +0.000 C 
BRANCH  23  24
ATOM     24  S   UNL     1       5.958   4.156  15.596  0.00  0.00    +0.000 S 
BRANCH  24  25
ATOM     25  C   UNL     1       6.947   4.698  14.292  0.00  0.00    +0.000 A 
ATOM     26  N   UNL     1       7.954   5.541  14.332  0.00  0.00    +0.000 NA
ATOM     27  N   UNL     1       8.358   5.782  13.035  0.00  0.00    +0.000 NA
ATOM     28  C   UNL     1       7.600   5.054  12.247  0.00  0.00    +0.000 A 
ATOM     29  N   UNL     1       6.732   4.322  12.994  0.00  0.00    +0.000 N 
ATOM     30  C   UNL     1       5.805   3.340  12.499  0.00  0.00    +0.000 C 
ENDBRANCH  24  25
ENDBRANCH  23  24
ENDBRANCH   1  23
TORSDOF 4
ENDMDL
MODEL 2
REMARK VINA RESULT:      -8.5      7.248     10.465
REMARK  Name = 
REMARK  6 active torsions:
REMARK  status: ('A' for Active; 'I' for Inactive)
REMARK    1  A    between atoms: C_1  and  C_2
REMARK    2  A    between atoms: C_2  and  S_3
REMARK    3  A    between atoms: C_2  and  C_10
REMARK    4  A    between atoms: S_3  and  C_4
REMARK    5  A    between atoms: N_8  and  C_9
REMARK    6  A    between atoms: C_16  and  C_18
REMARK                            x       y       z     vdW  Elec       q    Type
REMARK                         _______ _______ _______ _____ _____    ______ ____
ROOT
ATOM      1  C   UNL     1       0.019  10.843  20.682  0.00  0.00    +0.000 A 
ATOM      2  C   UNL     1      -0.566  10.245  21.807  0.00  0.00    +0.000 A 
ATOM      3  C   UNL     1      -0.258   8.934  22.096  0.00  0.00    +0.000 A 
ATOM      4  N   UNL     1       0.563   8.180  21.348  0.00  0.00    +0.000 NA
ATOM      5  C   UNL     1       1.135   8.725  20.265  0.00  0.00    +0.000 A 
ATOM      6  N   UNL     1       1.985   7.938  19.466  0.00  0.00    +0.000 N 
ATOM      7  C   UNL     1       2.304   6.630  19.767  0.00  0.00    +0.000 C 
ATOM      8  O   UNL     1       1.974   5.992  20.764  0.00  0.00    +0.000 OA
ATOM      9  C   UNL     1       0.889  10.048  19.901  0.00  0.00    +0.000 A 
ATOM     10  H   UNL     1       2.373   8.323  18.615  0.00  0.00    +0.000 HD
ENDROOT
BRANCH   7  11
ATOM     11  C   UNL     1       3.123   5.911  18.738  0.00  0.00    +0.000 A 
ATOM     12  C   UNL     1       2.721   4.629  18.386  0.00  0.00    +0.000 A 
ATOM     13  C   UNL     1       3.370   3.999  17.342  0.00  0.00    +0.000 A 
ATOM     14  C   UNL     1       4.472   4.606  16.757  0.00  0.00    +0.000 A 
ATOM     15  C   UNL     1       5.169   3.927  15.748  0.00  0.00    +0.000 A 
ATOM     16  C   UNL     1       6.452   4.320  15.404  0.00  0.00    +0.000 A 
ATOM     17  C   UNL     1       6.968   5.488  15.955  0.00  0.00    +0.000 A 
ATOM     18  C   UNL     1       6.175   6.269  16.805  0.00  0.00    +0.000 A 
ATOM     19  F   UNL     1       6.685   7.439  17.227  0.00  0.00    +0.000 F 
ATOM     20  C   UNL     1       4.922   5.852  17.268  0.00  0.00    +0.000 A 
ATOM     21  N   UNL     1       4.202   6.544  18.195  0.00  0.00    +0.000 NA
ENDBRANCH   7  11
BRANCH   1  23
ATOM     22  C   UNL     1       0.374  13.329  21.207  0.00  0.00    +0.000 C 
ATOM     23  C   UNL     1      -0.281  12.299  20.283  0.00  0.00    +0.000 C 
BRANCH  23  24
ATOM     24  S   UNL     1      -2.105  12.515  20.230  0.00  0.00    +0.000 S 
BRANCH  24  25
ATOM     25  C   UNL     1      -2.556  11.866  18.698  0.00  0.00    +0.000 A 
ATOM     26  N   UNL     1      -1.771  11.476  17.719  0.00  0.00    +0.000 NA
ATOM     27  N   UNL     1      -2.567  11.158  16.639  0.00  0.00    +0.000 NA
ATOM     28  C   UNL     1      -3.815  11.338  17.004  0.00  0.00    +0.000 A 
ATOM     29  N   UNL     1      -3.859  11.737  18.303  0.00  0.00    +0.000 N 
ATOM     30  C   UNL     1      -5.046  11.947  19.087  0.00  0.00    +0.000 C 
ENDBRANCH  24  25
ENDBRANCH  23  24
ENDBRANCH   1  23
TORSDOF 4
ENDMDL
MODEL 3
REMARK VINA RESULT:      -8.3      8.478     12.387
REMARK  Name = 
REMARK  6 active torsions:
REMARK  status: ('A' for Active; 'I' for Inactive)
REMARK    1  A    between atoms: C_1  and  C_2
REMARK    2  A    between atoms: C_2  and  S_3
REMARK    3  A    between atoms: C_2  and  C_10
REMARK    4  A    between atoms: S_3  and  C_4
REMARK    5  A    between atoms: N_8  and  C_9
REMARK    6  A    between atoms: C_16  and  C_18
REMARK                            x       y       z     vdW  Elec       q    Type
REMARK                         _______ _______ _______ _____ _____    ______ ____
ROOT
ATOM      1  C   UNL     1       0.221  11.498  20.841  0.00  0.00    +0.000 A 
ATOM      2  C   UNL     1       0.646  12.453  19.909  0.00  0.00    +0.000 A 
ATOM      3  C   UNL     1       1.358  12.034  18.807  0.00  0.00    +0.000 A 
ATOM      4  N   UNL     1       1.688  10.752  18.578  0.00  0.00    +0.000 NA
ATOM      5  C   UNL     1       1.297   9.817  19.454  0.00  0.00    +0.000 A 
ATOM      6  N   UNL     1       1.651   8.473  19.231  0.00  0.00    +0.000 N 
ATOM      7  C   UNL     1       2.350   8.054  18.118  0.00  0.00    +0.000 C 
ATOM      8  O   UNL     1       2.699   8.734  17.156  0.00  0.00    +0.000 OA
ATOM      9  C   UNL     1       0.564  10.148  20.593  0.00  0.00    +0.000 A 
ATOM     10  H   UNL     1       1.411   7.770  19.917  0.00  0.00    +0.000 HD
ENDROOT
BRANCH   7  11
ATOM     11  C   UNL     1       2.746   6.609  18.110  0.00  0.00    +0.000 A 
ATOM     12  C   UNL     1       3.844   6.253  17.337  0.00  0.00    +0.000 A 
ATOM     13  C   UNL     1       4.317   4.957  17.422  0.00  0.00    +0.000 A 
ATOM     14  C   UNL     1       3.619   4.024  18.175  0.00  0.00    +0.000 A 
ATOM     15  C   UNL     1       4.064   2.695  18.196  0.00  0.00    +0.000 A 
ATOM     16  C   UNL     1       3.217   1.684  18.620  0.00  0.00    +0.000 A 
ATOM     17  C   UNL     1       1.988   2.026  19.173  0.00  0.00    +0.000 A 
ATOM     18  C   UNL     1       1.646   3.374  19.337  0.00  0.00    +0.000 A 
ATOM     19  F   UNL     1       0.492   3.648  19.970  0.00  0.00    +0.000 F 
ATOM     20  C   UNL     1       2.418   4.419  18.819  0.00  0.00    +0.000 A 
ATOM     21  N   UNL     1       2.028   5.725  18.860  0.00  0.00    +0.000 NA
ENDBRANCH   7  11
BRANCH   1  23
ATOM     22  C   UNL     1      -0.904  10.688  23.000  0.00  0.00    +0.000 C 
ATOM     23  C   UNL     1      -0.569  11.884  22.104  0.00  0.00    +0.000 C 
BRANCH  23  24
ATOM     24  S   UNL     1      -2.092  12.769  21.579  0.00  0.00    +0.000 S 
BRANCH  24  25
ATOM     25  C   UNL     1      -3.031  12.871  23.022  0.00  0.00    +0.000 A 
ATOM     26  N   UNL     1      -4.101  12.182  23.344  0.00  0.00    +0.000 NA
ATOM     27  N   UNL     1      -4.595  12.692  24.526  0.00  0.00    +0.000 NA
ATOM     28  C   UNL     1      -3.790  13.660  24.902  0.00  0.00    +0.000 A 
ATOM     29  N   UNL     1      -2.768  13.777  24.013  0.00  0.00    +0.000 N 
ATOM     30  C   UNL     1      -1.641  14.662  24.128  0.00  0.00    +0.000 C 
ENDBRANCH  24  25
ENDBRANCH  23  24
ENDBRANCH   1  23
TORSDOF 4
ENDMDL
MODEL 4
REMARK VINA RESULT:      -8.3      8.473     12.466
REMARK  Name = 
REMARK  6 active torsions:
REMARK  status: ('A' for Active; 'I' for Inactive)
REMARK    1  A    between atoms: C_1  and  C_2
REMARK    2  A    between atoms: C_2  and  S_3
REMARK    3  A    between atoms: C_2  and  C_10
REMARK    4  A    between atoms: S_3  and  C_4
REMARK    5  A    between atoms: N_8  and  C_9
REMARK    6  A    between atoms: C_16  and  C_18
REMARK                            x       y       z     vdW  Elec       q    Type
REMARK                         _______ _______ _______ _____ _____    ______ ____
ROOT
ATOM      1  C   UNL     1       0.001  11.535  21.073  0.00  0.00    +0.000 A 
ATOM      2  C   UNL     1       0.366  12.515  20.140  0.00  0.00    +0.000 A 
ATOM      3  C   UNL     1       1.064  12.134  19.016  0.00  0.00    +0.000 A 
ATOM      4  N   UNL     1       1.439  10.869  18.766  0.00  0.00    +0.000 NA
ATOM      5  C   UNL     1       1.105   9.911  19.642  0.00  0.00    +0.000 A 
ATOM      6  N   UNL     1       1.506   8.584  19.395  0.00  0.00    +0.000 N 
ATOM      7  C   UNL     1       2.192   8.203  18.261  0.00  0.00    +0.000 C 
ATOM      8  O   UNL     1       2.490   8.905  17.298  0.00  0.00    +0.000 OA
ATOM      9  C   UNL     1       0.389  10.202  20.802  0.00  0.00    +0.000 A 
ATOM     10  H   UNL     1       1.311   7.865  20.080  0.00  0.00    +0.000 HD
ENDROOT
BRANCH   7  11
ATOM     11  C   UNL     1       2.643   6.774  18.228  0.00  0.00    +0.000 A 
ATOM     12  C   UNL     1       3.766   6.478  17.467  0.00  0.00    +0.000 A 
ATOM     13  C   UNL     1       4.287   5.199  17.531  0.00  0.00    +0.000 A 
ATOM     14  C   UNL     1       3.613   4.223  18.251  0.00  0.00    +0.000 A 
ATOM     15  C   UNL     1       4.109   2.912  18.250  0.00  0.00    +0.000 A 
ATOM     16  C   UNL     1       3.293   1.861  18.637  0.00  0.00    +0.000 A 
ATOM     17  C   UNL     1       2.043   2.142  19.176  0.00  0.00    +0.000 A 
ATOM     18  C   UNL     1       1.647   3.473  19.364  0.00  0.00    +0.000 A 
ATOM     19  F   UNL     1       0.473   3.688  19.983  0.00  0.00    +0.000 F 
ATOM     20  C   UNL     1       2.387   4.558  18.883  0.00  0.00    +0.000 A 
ATOM     21  N   UNL     1       1.947   5.847  18.946  0.00  0.00    +0.000 NA
ENDBRANCH   7  11
BRANCH   1  23
ATOM     22  C   UNL     1      -1.118  10.649  23.205  0.00  0.00    +0.000 C 
ATOM     23  C   UNL     1      -0.771  11.878  22.360  0.00  0.00    +0.000 C 
BRANCH  23  24
ATOM     24  S   UNL     1      -2.282  12.812  21.889  0.00  0.00    +0.000 S 
BRANCH  24  25
ATOM     25  C   UNL     1      -2.494  13.936  23.179  0.00  0.00    +0.000 A 
ATOM     26  N   UNL     1      -1.932  15.113  23.330  0.00  0.00    +0.000 NA
ATOM     27  N   UNL     1      -2.287  15.597  24.571  0.00  0.00    +0.000 NA
ATOM     28  C   UNL     1      -3.079  14.709  25.126  0.00  0.00    +0.000 A 
ATOM     29  N   UNL     1      -3.274  13.671  24.270  0.00  0.00    +0.000 N 
ATOM     30  C   UNL     1      -4.149  12.549  24.482  0.00  0.00    +0.000 C 
ENDBRANCH  24  25
ENDBRANCH  23  24
ENDBRANCH   1  23
TORSDOF 4
ENDMDL
MODEL 5
REMARK VINA RESULT:      -8.2      8.581     12.469
REMARK  Name = 
REMARK  6 active torsions:
REMARK  status: ('A' for Active; 'I' for Inactive)
REMARK    1  A    between atoms: C_1  and  C_2
REMARK    2  A    between atoms: C_2  and  S_3
REMARK    3  A    between atoms: C_2  and  C_10
REMARK    4  A    between atoms: S_3  and  C_4
REMARK    5  A    between atoms: N_8  and  C_9
REMARK    6  A    between atoms: C_16  and  C_18
REMARK                            x       y       z     vdW  Elec       q    Type
REMARK                         _______ _______ _______ _____ _____    ______ ____
ROOT
ATOM      1  C   UNL     1      -0.155  11.953  21.108  0.00  0.00    +0.000 A 
ATOM      2  C   UNL     1      -0.119  12.785  19.981  0.00  0.00    +0.000 A 
ATOM      3  C   UNL     1       0.432  12.299  18.816  0.00  0.00    +0.000 A 
ATOM      4  N   UNL     1       0.959  11.069  18.698  0.00  0.00    +0.000 NA
ATOM      5  C   UNL     1       0.941  10.253  19.761  0.00  0.00    +0.000 A 
ATOM      6  N   UNL     1       1.504   8.968  19.651  0.00  0.00    +0.000 N 
ATOM      7  C   UNL     1       2.041   8.478  18.479  0.00  0.00    +0.000 C 
ATOM      8  O   UNL     1       2.053   9.024  17.378  0.00  0.00    +0.000 OA
ATOM      9  C   UNL     1       0.394  10.656  20.978  0.00  0.00    +0.000 A 
ATOM     10  H   UNL     1       1.548   8.368  20.465  0.00  0.00    +0.000 HD
ENDROOT
BRANCH   7  11
ATOM     11  C   UNL     1       2.706   7.140  18.582  0.00  0.00    +0.000 A 
ATOM     12  C   UNL     1       3.686   6.841  17.644  0.00  0.00    +0.000 A 
ATOM     13  C   UNL     1       4.414   5.677  17.800  0.00  0.00    +0.000 A 
ATOM     14  C   UNL     1       4.071   4.787  18.807  0.00  0.00    +0.000 A 
ATOM     15  C   UNL     1       4.766   3.574  18.911  0.00  0.00    +0.000 A 
ATOM     16  C   UNL     1       4.232   2.527  19.645  0.00  0.00    +0.000 A 
ATOM     17  C   UNL     1       3.087   2.751  20.401  0.00  0.00    +0.000 A 
ATOM     18  C   UNL     1       2.522   4.032  20.450  0.00  0.00    +0.000 A 
ATOM     19  F   UNL     1       1.478   4.217  21.276  0.00  0.00    +0.000 F 
ATOM     20  C   UNL     1       2.959   5.084  19.638  0.00  0.00    +0.000 A 
ATOM     21  N   UNL     1       2.333   6.294  19.584  0.00  0.00    +0.000 NA
ENDBRANCH   7  11
BRANCH   1  23
ATOM     22  C   UNL     1      -1.718  11.418  23.071  0.00  0.00    +0.000 C 
ATOM     23  C   UNL     1      -0.743  12.422  22.451  0.00  0.00    +0.000 C 
BRANCH  23  24
ATOM     24  S   UNL     1      -1.545  14.054  22.186  0.00  0.00    +0.000 S 
BRANCH  24  25
ATOM     25  C   UNL     1      -1.707  14.700  23.776  0.00  0.00    +0.000 A 
ATOM     26  N   UNL     1      -0.764  15.167  24.562  0.00  0.00    +0.000 NA
ATOM     27  N   UNL     1      -1.333  15.448  25.786  0.00  0.00    +0.000 NA
ATOM     28  C   UNL     1      -2.613  15.169  25.697  0.00  0.00    +0.000 A 
ATOM     29  N   UNL     1      -2.902  14.741  24.440  0.00  0.00    +0.000 N 
ATOM     30  C   UNL     1      -4.210  14.428  23.930  0.00  0.00    +0.000 C 
ENDBRANCH  24  25
ENDBRANCH  23  24
ENDBRANCH   1  23
TORSDOF 4
ENDMDL
MODEL 6
REMARK VINA RESULT:      -8.2      8.836     12.286
REMARK  Name = 
REMARK  6 active torsions:
REMARK  status: ('A' for Active; 'I' for Inactive)
REMARK    1  A    between atoms: C_1  and  C_2
REMARK    2  A    between atoms: C_2  and  S_3
REMARK    3  A    between atoms: C_2  and  C_10
REMARK    4  A    between atoms: S_3  and  C_4
REMARK    5  A    between atoms: N_8  and  C_9
REMARK    6  A    between atoms: C_16  and  C_18
REMARK                            x       y       z     vdW  Elec       q    Type
REMARK                         _______ _______ _______ _____ _____    ______ ____
ROOT
ATOM      1  C   UNL     1      -0.221  12.027  20.991  0.00  0.00    +0.000 A 
ATOM      2  C   UNL     1      -0.208  12.827  19.841  0.00  0.00    +0.000 A 
ATOM      3  C   UNL     1       0.344  12.317  18.686  0.00  0.00    +0.000 A 
ATOM      4  N   UNL     1       0.892  11.095  18.599  0.00  0.00    +0.000 NA
ATOM      5  C   UNL     1       0.895  10.309  19.685  0.00  0.00    +0.000 A 
ATOM      6  N   UNL     1       1.481   9.031  19.607  0.00  0.00    +0.000 N 
ATOM      7  C   UNL     1       2.018   8.518  18.445  0.00  0.00    +0.000 C 
ATOM      8  O   UNL     1       2.013   9.033  17.330  0.00  0.00    +0.000 OA
ATOM      9  C   UNL     1       0.350  10.737  20.894  0.00  0.00    +0.000 A 
ATOM     10  H   UNL     1       1.541   8.456  20.437  0.00  0.00    +0.000 HD
ENDROOT
BRANCH   7  11
ATOM     11  C   UNL     1       2.709   7.195  18.582  0.00  0.00    +0.000 A 
ATOM     12  C   UNL     1       3.722   6.909  17.676  0.00  0.00    +0.000 A 
ATOM     13  C   UNL     1       4.469   5.761  17.864  0.00  0.00    +0.000 A 
ATOM     14  C   UNL     1       4.115   4.874  18.870  0.00  0.00    +0.000 A 
ATOM     15  C   UNL     1       4.832   3.678  19.007  0.00  0.00    +0.000 A 
ATOM     16  C   UNL     1       4.298   2.626  19.735  0.00  0.00    +0.000 A 
ATOM     17  C   UNL     1       3.128   2.833  20.456  0.00  0.00    +0.000 A 
ATOM     18  C   UNL     1       2.534   4.102  20.475  0.00  0.00    +0.000 A 
ATOM     19  F   UNL     1       1.463   4.273  21.269  0.00  0.00    +0.000 F 
ATOM     20  C   UNL     1       2.973   5.156  19.665  0.00  0.00    +0.000 A 
ATOM     21  N   UNL     1       2.324   6.351  19.581  0.00  0.00    +0.000 NA
ENDBRANCH   7  11
BRANCH   1  23
ATOM     22  C   UNL     1      -1.536  11.431  23.112  0.00  0.00    +0.000 C 
ATOM     23  C   UNL     1      -0.808  12.524  22.324  0.00  0.00    +0.000 C 
BRANCH  23  24
ATOM     24  S   UNL     1      -1.922  13.941  21.967  0.00  0.00    +0.000 S 
BRANCH  24  25
ATOM     25  C   UNL     1      -3.498  13.323  22.294  0.00  0.00    +0.000 A 
ATOM     26  N   UNL     1      -4.279  12.630  21.498  0.00  0.00    +0.000 NA
ATOM     27  N   UNL     1      -5.494  12.470  22.130  0.00  0.00    +0.000 NA
ATOM     28  C   UNL     1      -5.404  13.049  23.305  0.00  0.00    +0.000 A 
ATOM     29  N   UNL     1      -4.154  13.557  23.471  0.00  0.00    +0.000 N 
ATOM     30  C   UNL     1      -3.644  14.183  24.661  0.00  0.00    +0.000 C 
ENDBRANCH  24  25
ENDBRANCH  23  24
ENDBRANCH   1  23
TORSDOF 4
ENDMDL
MODEL 7
REMARK VINA RESULT:      -8.2      6.143      7.667
REMARK  Name = 
REMARK  6 active torsions:
REMARK  status: ('A' for Active; 'I' for Inactive)
REMARK    1  A    between atoms: C_1  and  C_2
REMARK    2  A    between atoms: C_2  and  S_3
REMARK    3  A    between atoms: C_2  and  C_10
REMARK    4  A    between atoms: S_3  and  C_4
REMARK    5  A    between atoms: N_8  and  C_9
REMARK    6  A    between atoms: C_16  and  C_18
REMARK                            x       y       z     vdW  Elec       q    Type
REMARK                         _______ _______ _______ _____ _____    ______ ____
ROOT
ATOM      1  C   UNL     1       4.563   5.828  17.601  0.00  0.00    +0.000 A 
ATOM      2  C   UNL     1       4.563   4.628  18.326  0.00  0.00    +0.000 A 
ATOM      3  C   UNL     1       3.732   4.513  19.418  0.00  0.00    +0.000 A 
ATOM      4  N   UNL     1       2.926   5.499  19.847  0.00  0.00    +0.000 NA
ATOM      5  C   UNL     1       2.908   6.658  19.174  0.00  0.00    +0.000 A 
ATOM      6  N   UNL     1       2.077   7.701  19.625  0.00  0.00    +0.000 N 
ATOM      7  C   UNL     1       1.235   7.578  20.710  0.00  0.00    +0.000 C 
ATOM      8  O   UNL     1       1.028   6.572  21.383  0.00  0.00    +0.000 OA
ATOM      9  C   UNL     1       3.707   6.860  18.051  0.00  0.00    +0.000 A 
ATOM     10  H   UNL     1       2.102   8.599  19.159  0.00  0.00    +0.000 HD
ENDROOT
BRANCH   7  11
ATOM     11  C   UNL     1       0.520   8.830  21.118  0.00  0.00    +0.000 A 
ATOM     12  C   UNL     1       0.188   8.966  22.460  0.00  0.00    +0.000 A 
ATOM     13  C   UNL     1      -0.343  10.167  22.889  0.00  0.00    +0.000 A 
ATOM     14  C   UNL     1      -0.639  11.153  21.959  0.00  0.00    +0.000 A 
ATOM     15  C   UNL     1      -1.246  12.340  22.394  0.00  0.00    +0.000 A 
ATOM     16  C   UNL     1      -1.878  13.172  21.484  0.00  0.00    +0.000 A 
ATOM     17  C   UNL     1      -1.760  12.896  20.127  0.00  0.00    +0.000 A 
ATOM     18  C   UNL     1      -0.973  11.820  19.698  0.00  0.00    +0.000 A 
ATOM     19  F   UNL     1      -0.810  11.660  18.373  0.00  0.00    +0.000 F 
ATOM     20  C   UNL     1      -0.415  10.890  20.583  0.00  0.00    +0.000 A 
ATOM     21  N   UNL     1       0.242   9.770  20.169  0.00  0.00    +0.000 NA
ENDBRANCH   7  11
BRANCH   1  23
ATOM     22  C   UNL     1       4.887   7.022  15.354  0.00  0.00    +0.000 C 
ATOM     23  C   UNL     1       5.469   6.041  16.375  0.00  0.00    +0.000 C 
BRANCH  23  24
ATOM     24  S   UNL     1       5.797   4.401  15.612  0.00  0.00    +0.000 S 
BRANCH  24  25
ATOM     25  C   UNL     1       6.872   4.756  14.312  0.00  0.00    +0.000 A 
ATOM     26  N   UNL     1       7.936   5.526  14.327  0.00  0.00    +0.000 NA
ATOM     27  N   UNL     1       8.406   5.624  13.034  0.00  0.00    +0.000 NA
ATOM     28  C   UNL     1       7.627   4.886  12.276  0.00  0.00    +0.000 A 
ATOM     29  N   UNL     1       6.679   4.285  13.043  0.00  0.00    +0.000 N 
ATOM     30  C   UNL     1       5.702   3.332  12.591  0.00  0.00    +0.000 C 
ENDBRANCH  24  25
ENDBRANCH  23  24
ENDBRANCH   1  23
TORSDOF 4
ENDMDL
MODEL 8
REMARK VINA RESULT:      -8.2      6.182     10.145
REMARK  Name = 
REMARK  6 active torsions:
REMARK  status: ('A' for Active; 'I' for Inactive)
REMARK    1  A    between atoms: C_1  and  C_2
REMARK    2  A    between atoms: C_2  and  S_3
REMARK    3  A    between atoms: C_2  and  C_10
REMARK    4  A    between atoms: S_3  and  C_4
REMARK    5  A    between atoms: N_8  and  C_9
REMARK    6  A    between atoms: C_16  and  C_18
REMARK                            x       y       z     vdW  Elec       q    Type
REMARK                         _______ _______ _______ _____ _____    ______ ____
ROOT
ATOM      1  C   UNL     1       0.139  10.896  20.925  0.00  0.00    +0.000 A 
ATOM      2  C   UNL     1      -0.524  10.272  21.990  0.00  0.00    +0.000 A 
ATOM      3  C   UNL     1      -0.303   8.931  22.215  0.00  0.00    +0.000 A 
ATOM      4  N   UNL     1       0.504   8.173  21.456  0.00  0.00    +0.000 NA
ATOM      5  C   UNL     1       1.149   8.743  20.428  0.00  0.00    +0.000 A 
ATOM      6  N   UNL     1       1.986   7.952  19.618  0.00  0.00    +0.000 N 
ATOM      7  C   UNL     1       2.217   6.613  19.855  0.00  0.00    +0.000 C 
ATOM      8  O   UNL     1       1.811   5.941  20.800  0.00  0.00    +0.000 OA
ATOM      9  C   UNL     1       0.994  10.096  20.133  0.00  0.00    +0.000 A 
ATOM     10  H   UNL     1       2.429   8.361  18.805  0.00  0.00    +0.000 HD
ENDROOT
BRANCH   7  11
ATOM     11  C   UNL     1       3.035   5.906  18.817  0.00  0.00    +0.000 A 
ATOM     12  C   UNL     1       2.636   4.625  18.456  0.00  0.00    +0.000 A 
ATOM     13  C   UNL     1       3.284   4.006  17.404  0.00  0.00    +0.000 A 
ATOM     14  C   UNL     1       4.382   4.621  16.821  0.00  0.00    +0.000 A 
ATOM     15  C   UNL     1       5.078   3.953  15.805  0.00  0.00    +0.000 A 
ATOM     16  C   UNL     1       6.359   4.353  15.460  0.00  0.00    +0.000 A 
ATOM     17  C   UNL     1       6.873   5.518  16.019  0.00  0.00    +0.000 A 
ATOM     18  C   UNL     1       6.080   6.289  16.878  0.00  0.00    +0.000 A 
ATOM     19  F   UNL     1       6.588   7.457  17.308  0.00  0.00    +0.000 F 
ATOM     20  C   UNL     1       4.830   5.864  17.341  0.00  0.00    +0.000 A 
ATOM     21  N   UNL     1       4.110   6.546  18.276  0.00  0.00    +0.000 NA
ENDBRANCH   7  11
BRANCH   1  23
ATOM     22  C   UNL     1      -1.360  12.964  21.167  0.00  0.00    +0.000 C 
ATOM     23  C   UNL     1      -0.061  12.387  20.599  0.00  0.00    +0.000 C 
BRANCH  23  24
ATOM     24  S   UNL     1       0.017  12.590  18.774  0.00  0.00    +0.000 S 
BRANCH  24  25
ATOM     25  C   UNL     1       1.450  13.516  18.521  0.00  0.00    +0.000 A 
ATOM     26  N   UNL     1       2.653  13.084  18.221  0.00  0.00    +0.000 NA
ATOM     27  N   UNL     1       3.511  14.163  18.250  0.00  0.00    +0.000 NA
ATOM     28  C   UNL     1       2.796  15.225  18.540  0.00  0.00    +0.000 A 
ATOM     29  N   UNL     1       1.489  14.875  18.673  0.00  0.00    +0.000 N 
ATOM     30  C   UNL     1       0.388  15.773  18.900  0.00  0.00    +0.000 C 
ENDBRANCH  24  25
ENDBRANCH  23  24
ENDBRANCH   1  23
TORSDOF 4
ENDMDL
MODEL 9
REMARK VINA RESULT:      -8.1      5.888     10.170
REMARK  Name = 
REMARK  6 active torsions:
REMARK  status: ('A' for Active; 'I' for Inactive)
REMARK    1  A    between atoms: C_1  and  C_2
REMARK    2  A    between atoms: C_2  and  S_3
REMARK    3  A    between atoms: C_2  and  C_10
REMARK    4  A    between atoms: S_3  and  C_4
REMARK    5  A    between atoms: N_8  and  C_9
REMARK    6  A    between atoms: C_16  and  C_18
REMARK                            x       y       z     vdW  Elec       q    Type
REMARK                         _______ _______ _______ _____ _____    ______ ____
ROOT
ATOM      1  C   UNL     1       0.192  10.691  20.520  0.00  0.00    +0.000 A 
ATOM      2  C   UNL     1      -0.496  10.127  21.603  0.00  0.00    +0.000 A 
ATOM      3  C   UNL     1      -0.246   8.815  21.937  0.00  0.00    +0.000 A 
ATOM      4  N   UNL     1       0.612   8.027  21.268  0.00  0.00    +0.000 NA
ATOM      5  C   UNL     1       1.282   8.539  20.226  0.00  0.00    +0.000 A 
ATOM      6  N   UNL     1       2.172   7.717  19.509  0.00  0.00    +0.000 N 
ATOM      7  C   UNL     1       2.432   6.408  19.855  0.00  0.00    +0.000 C 
ATOM      8  O   UNL     1       2.007   5.795  20.832  0.00  0.00    +0.000 OA
ATOM      9  C   UNL     1       1.100   9.861  19.823  0.00  0.00    +0.000 A 
ATOM     10  H   UNL     1       2.636   8.078  18.685  0.00  0.00    +0.000 HD
ENDROOT
BRANCH   7  11
ATOM     11  C   UNL     1       3.310   5.651  18.905  0.00  0.00    +0.000 A 
ATOM     12  C   UNL     1       3.727   4.385  19.295  0.00  0.00    +0.000 A 
ATOM     13  C   UNL     1       4.418   3.609  18.383  0.00  0.00    +0.000 A 
ATOM     14  C   UNL     1       4.778   4.154  17.159  0.00  0.00    +0.000 A 
ATOM     15  C   UNL     1       5.543   3.385  16.270  0.00  0.00    +0.000 A 
ATOM     16  C   UNL     1       6.218   3.997  15.226  0.00  0.00    +0.000 A 
ATOM     17  C   UNL     1       5.996   5.347  14.980  0.00  0.00    +0.000 A 
ATOM     18  C   UNL     1       5.065   6.053  15.753  0.00  0.00    +0.000 A 
ATOM     19  F   UNL     1       4.813   7.328  15.407  0.00  0.00    +0.000 F 
ATOM     20  C   UNL     1       4.450   5.507  16.884  0.00  0.00    +0.000 A 
ATOM     21  N   UNL     1       3.645   6.227  17.715  0.00  0.00    +0.000 NA
ENDBRANCH   7  11
BRANCH   1  23
ATOM     22  C   UNL     1      -1.390  12.368  19.396  0.00  0.00    +0.000 C 
ATOM     23  C   UNL     1      -0.037  12.147  20.076  0.00  0.00    +0.000 C 
BRANCH  23  24
ATOM     24  S   UNL     1       1.351  12.634  18.973  0.00  0.00    +0.000 S 
BRANCH  24  25
ATOM     25  C   UNL     1       2.489  13.370  20.039  0.00  0.00    +0.000 A 
ATOM     26  N   UNL     1       2.567  13.258  21.345  0.00  0.00    +0.000 NA
ATOM     27  N   UNL     1       3.542  14.127  21.787  0.00  0.00    +0.000 NA
ATOM     28  C   UNL     1       4.047  14.721  20.730  0.00  0.00    +0.000 A 
ATOM     29  N   UNL     1       3.449  14.243  19.607  0.00  0.00    +0.000 N 
ATOM     30  C   UNL     1       3.793  14.582  18.253  0.00  0.00    +0.000 C 
ENDBRANCH  24  25
ENDBRANCH  23  24
ENDBRANCH   1  23
TORSDOF 4
ENDMDL
