MODEL 1
REMARK VINA RESULT:      -8.7      0.000      0.000
REMARK  Name = 
REMARK  8 active torsions:
REMARK  status: ('A' for Active; 'I' for Inactive)
REMARK    1  A    between atoms: C_1  and  C_2
REMARK    2  A    between atoms: C_2  and  C_3
REMARK    3  A    between atoms: C_2  and  C_10
REMARK    4  A    between atoms: C_3  and  C_4
REMARK    5  A    between atoms: N_8  and  C_9
REMARK    6  A    between atoms: C_14  and  N_15
REMARK    7  A    between atoms: C_16  and  C_18
REMARK    8  A    between atoms: C_21  and  C_22
REMARK                            x       y       z     vdW  Elec       q    Type
REMARK                         _______ _______ _______ _____ _____    ______ ____
ROOT
ATOM      1  C   UNL     1       4.141   5.347  17.222  0.00  0.00    +0.000 A 
ATOM      2  C   UNL     1       4.721   4.326  16.453  0.00  0.00    +0.000 A 
ATOM      3  C   UNL     1       6.023   4.446  15.980  0.00  0.00    +0.000 A 
ATOM      4  C   UNL     1       6.758   5.599  16.241  0.00  0.00    +0.000 A 
ATOM      5  C   UNL     1       6.208   6.649  16.975  0.00  0.00    +0.000 A 
ATOM      6  C   UNL     1       4.911   6.503  17.484  0.00  0.00    +0.000 A 
ENDROOT
BRANCH   5   7
ATOM      7  N   UNL     1       6.903   7.852  17.229  0.00  0.00    +0.000 N 
ATOM      8  C   UNL     1       7.915   8.020  18.154  0.00  0.00    +0.000 C 
ATOM      9  O   UNL     1       8.390   7.134  18.863  0.00  0.00    +0.000 OA
ATOM     10  H   UNL     1       6.708   8.661  16.646  0.00  0.00    +0.000 HD
BRANCH   8  11
ATOM     11  C   UNL     1       8.457   9.361  18.238  0.00  0.00    +0.000 A 
ATOM     12  N   UNL     1       8.157  10.400  17.482  0.00  0.00    +0.000 NA
ATOM     13  C   UNL     1       8.933  11.433  17.965  0.00  0.00    +0.000 A 
ATOM     14  C   UNL     1       9.720  11.014  19.014  0.00  0.00    +0.000 A 
ATOM     15  N   UNL     1       9.403   9.695  19.176  0.00  0.00    +0.000 N 
ATOM     16  H   UNL     1       9.776   9.044  19.858  0.00  0.00    +0.000 HD
BRANCH  14  17
ATOM     17  C   UNL     1      10.712  11.680  19.870  0.00  0.00    +0.000 C 
ATOM     18  F   UNL     1      10.444  11.540  21.190  0.00  0.00    +0.000 F 
ATOM     19  F   UNL     1      11.956  11.188  19.654  0.00  0.00    +0.000 F 
ATOM     20  F   UNL     1      10.769  13.009  19.607  0.00  0.00    +0.000 F 
ENDBRANCH  14  17
ENDBRANCH   8  11
ENDBRANCH   5   7
BRANCH   1  22
ATOM     21  C   UNL     1       2.510   6.009  19.095  0.00  0.00    +0.000 C 
ATOM     22  C   UNL     1       2.715   5.250  17.770  0.00  0.00    +0.000 C 
BRANCH  22  23
ATOM     23  C   UNL     1       2.310   3.763  17.901  0.00  0.00    +0.000 C 
BRANCH  23  24
ATOM     24  C   UNL     1       2.084   3.341  19.313  0.00  0.00    +0.000 A 
ATOM     25  N   UNL     1       0.936   3.347  19.960  0.00  0.00    +0.000 NA
ATOM     26  N   UNL     1       1.172   2.946  21.255  0.00  0.00    +0.000 NA
ATOM     27  C   UNL     1       2.454   2.693  21.365  0.00  0.00    +0.000 A 
ATOM     28  N   UNL     1       3.059   2.885  20.162  0.00  0.00    +0.000 N 
ATOM     29  C   UNL     1       4.439   2.634  19.853  0.00  0.00    +0.000 C 
ENDBRANCH  23  24
ENDBRANCH  22  23
ENDBRANCH   1  22
TORSDOF 6
ENDMDL
MODEL 2
REMARK VINA RESULT:      -8.2      0.790      1.176
REMARK  Name = 
REMARK  8 active torsions:
REMARK  status: ('A' for Active; 'I' for Inactive)
REMARK    1  A    between atoms: C_1  and  C_2
REMARK    2  A    between atoms: C_2  and  C_3
REMARK    3  A    between atoms: C_2  and  C_10
REMARK    4  A    between atoms: C_3  and  C_4
REMARK    5  A    between atoms: N_8  and  C_9
REMARK    6  A    between atoms: C_14  and  N_15
REMARK    7  A    between atoms: C_16  and  C_18
REMARK    8  A    between atoms: C_21  and  C_22
REMARK                            x       y       z     vdW  Elec       q    Type
REMARK                         _______ _______ _______ _____ _____    ______ ____
ROOT
ATOM      1  C   UNL     1       4.739   4.878  17.207  0.00  0.00    +0.000 A 
ATOM      2  C   UNL     1       5.235   4.093  16.155  0.00  0.00    +0.000 A 
ATOM      3  C   UNL     1       6.373   4.479  15.456  0.00  0.00    +0.000 A 
ATOM      4  C   UNL     1       7.019   5.670  15.775  0.00  0.00    +0.000 A 
ATOM      5  C   UNL     1       6.541   6.495  16.794  0.00  0.00    +0.000 A 
ATOM      6  C   UNL     1       5.419   6.077  17.521  0.00  0.00    +0.000 A 
ENDROOT
BRANCH   5   7
ATOM      7  N   UNL     1       7.141   7.730  17.124  0.00  0.00    +0.000 N 
ATOM      8  C   UNL     1       8.040   7.942  18.150  0.00  0.00    +0.000 C 
ATOM      9  O   UNL     1       8.484   7.075  18.902  0.00  0.00    +0.000 OA
ATOM     10  H   UNL     1       6.965   8.533  16.526  0.00  0.00    +0.000 HD
BRANCH   8  11
ATOM     11  C   UNL     1       8.499   9.308  18.296  0.00  0.00    +0.000 A 
ATOM     12  N   UNL     1       8.263  10.327  17.492  0.00  0.00    +0.000 NA
ATOM     13  C   UNL     1       8.908  11.400  18.070  0.00  0.00    +0.000 A 
ATOM     14  C   UNL     1       9.552  11.026  19.228  0.00  0.00    +0.000 A 
ATOM     15  N   UNL     1       9.279   9.693  19.358  0.00  0.00    +0.000 N 
ATOM     16  H   UNL     1       9.579   9.065  20.095  0.00  0.00    +0.000 HD
BRANCH  14  17
ATOM     17  C   UNL     1      10.374  11.745  20.212  0.00  0.00    +0.000 C 
ATOM     18  F   UNL     1      10.027  11.465  21.489  0.00  0.00    +0.000 F 
ATOM     19  F   UNL     1      11.687  11.438  20.071  0.00  0.00    +0.000 F 
ATOM     20  F   UNL     1      10.269  13.087  20.048  0.00  0.00    +0.000 F 
ENDBRANCH  14  17
ENDBRANCH   8  11
ENDBRANCH   5   7
BRANCH   1  22
ATOM     21  C   UNL     1       2.974   5.603  18.930  0.00  0.00    +0.000 C 
ATOM     22  C   UNL     1       3.497   4.483  18.009  0.00  0.00    +0.000 C 
BRANCH  22  23
ATOM     23  C   UNL     1       3.782   3.185  18.802  0.00  0.00    +0.000 C 
BRANCH  23  24
ATOM     24  C   UNL     1       2.909   3.029  19.999  0.00  0.00    +0.000 A 
ATOM     25  N   UNL     1       3.262   3.201  21.257  0.00  0.00    +0.000 NA
ATOM     26  N   UNL     1       2.182   2.895  22.052  0.00  0.00    +0.000 NA
ATOM     27  C   UNL     1       1.191   2.555  21.262  0.00  0.00    +0.000 A 
ATOM     28  N   UNL     1       1.587   2.666  19.966  0.00  0.00    +0.000 N 
ATOM     29  C   UNL     1       0.766   2.462  18.805  0.00  0.00    +0.000 C 
ENDBRANCH  23  24
ENDBRANCH  22  23
ENDBRANCH   1  22
TORSDOF 6
ENDMDL
MODEL 3
REMARK VINA RESULT:      -8.1      4.795      7.357
REMARK  Name = 
REMARK  8 active torsions:
REMARK  status: ('A' for Active; 'I' for Inactive)
REMARK    1  A    between atoms: C_1  and  C_2
REMARK    2  A    between atoms: C_2  and  C_3
REMARK    3  A    between atoms: C_2  and  C_10
REMARK    4  A    between atoms: C_3  and  C_4
REMARK    5  A    between atoms: N_8  and  C_9
REMARK    6  A    between atoms: C_14  and  N_15
REMARK    7  A    between atoms: C_16  and  C_18
REMARK    8  A    between atoms: C_21  and  C_22
REMARK                            x       y       z     vdW  Elec       q    Type
REMARK                         _______ _______ _______ _____ _____    ______ ____
ROOT
ATOM      1  C   UNL     1       4.482   5.035  16.712  0.00  0.00    +0.000 A 
ATOM      2  C   UNL     1       3.926   3.749  16.785  0.00  0.00    +0.000 A 
ATOM      3  C   UNL     1       2.761   3.519  17.507  0.00  0.00    +0.000 A 
ATOM      4  C   UNL     1       2.146   4.563  18.194  0.00  0.00    +0.000 A 
ATOM      5  C   UNL     1       2.684   5.850  18.172  0.00  0.00    +0.000 A 
ATOM      6  C   UNL     1       3.835   6.082  17.407  0.00  0.00    +0.000 A 
ENDROOT
BRANCH   5   7
ATOM      7  N   UNL     1       2.116   6.928  18.885  0.00  0.00    +0.000 N 
ATOM      8  C   UNL     1       2.056   8.239  18.455  0.00  0.00    +0.000 C 
ATOM      9  O   UNL     1       2.451   8.652  17.365  0.00  0.00    +0.000 OA
ATOM     10  H   UNL     1       1.643   6.737  19.765  0.00  0.00    +0.000 HD
BRANCH   8  11
ATOM     11  C   UNL     1       1.438   9.165  19.382  0.00  0.00    +0.000 A 
ATOM     12  N   UNL     1       1.165  10.440  19.184  0.00  0.00    +0.000 NA
ATOM     13  C   UNL     1       0.577  10.869  20.356  0.00  0.00    +0.000 A 
ATOM     14  C   UNL     1       0.505   9.849  21.277  0.00  0.00    +0.000 A 
ATOM     15  N   UNL     1       1.054   8.771  20.640  0.00  0.00    +0.000 N 
ATOM     16  H   UNL     1       1.173   7.830  20.998  0.00  0.00    +0.000 HD
BRANCH  14  17
ATOM     17  C   UNL     1      -0.005   9.754  22.653  0.00  0.00    +0.000 C 
ATOM     18  F   UNL     1      -0.570  10.907  23.082  0.00  0.00    +0.000 F 
ATOM     19  F   UNL     1      -0.938   8.778  22.763  0.00  0.00    +0.000 F 
ATOM     20  F   UNL     1       0.989   9.442  23.521  0.00  0.00    +0.000 F 
ENDBRANCH  14  17
ENDBRANCH   8  11
ENDBRANCH   5   7
BRANCH   1  22
ATOM     21  C   UNL     1       5.887   4.506  14.625  0.00  0.00    +0.000 C 
ATOM     22  C   UNL     1       5.757   5.333  15.919  0.00  0.00    +0.000 C 
BRANCH  22  23
ATOM     23  C   UNL     1       6.992   5.149  16.834  0.00  0.00    +0.000 C 
BRANCH  23  24
ATOM     24  C   UNL     1       7.469   6.427  17.436  0.00  0.00    +0.000 A 
ATOM     25  N   UNL     1       7.515   7.603  16.845  0.00  0.00    +0.000 NA
ATOM     26  N   UNL     1       8.078   8.501  17.722  0.00  0.00    +0.000 NA
ATOM     27  C   UNL     1       8.350   7.856  18.832  0.00  0.00    +0.000 A 
ATOM     28  N   UNL     1       7.946   6.563  18.714  0.00  0.00    +0.000 N 
ATOM     29  C   UNL     1       7.995   5.559  19.740  0.00  0.00    +0.000 C 
ENDBRANCH  23  24
ENDBRANCH  22  23
ENDBRANCH   1  22
TORSDOF 6
ENDMDL
MODEL 4
REMARK VINA RESULT:      -8.0      1.534      2.054
REMARK  Name = 
REMARK  8 active torsions:
REMARK  status: ('A' for Active; 'I' for Inactive)
REMARK    1  A    between atoms: C_1  and  C_2
REMARK    2  A    between atoms: C_2  and  C_3
REMARK    3  A    between atoms: C_2  and  C_10
REMARK    4  A    between atoms: C_3  and  C_4
REMARK    5  A    between atoms: N_8  and  C_9
REMARK    6  A    between atoms: C_14  and  N_15
REMARK    7  A    between atoms: C_16  and  C_18
REMARK    8  A    between atoms: C_21  and  C_22
REMARK                            x       y       z     vdW  Elec       q    Type
REMARK                         _______ _______ _______ _____ _____    ______ ____
ROOT
ATOM      1  C   UNL     1       4.967   4.452  17.191  0.00  0.00    +0.000 A 
ATOM      2  C   UNL     1       5.380   3.765  16.040  0.00  0.00    +0.000 A 
ATOM      3  C   UNL     1       6.401   4.265  15.241  0.00  0.00    +0.000 A 
ATOM      4  C   UNL     1       7.010   5.476  15.561  0.00  0.00    +0.000 A 
ATOM      5  C   UNL     1       6.609   6.206  16.681  0.00  0.00    +0.000 A 
ATOM      6  C   UNL     1       5.608   5.672  17.504  0.00  0.00    +0.000 A 
ENDROOT
BRANCH   5   7
ATOM      7  N   UNL     1       7.170   7.456  17.021  0.00  0.00    +0.000 N 
ATOM      8  C   UNL     1       7.990   7.706  18.103  0.00  0.00    +0.000 C 
ATOM      9  O   UNL     1       8.388   6.864  18.908  0.00  0.00    +0.000 OA
ATOM     10  H   UNL     1       7.030   8.242  16.391  0.00  0.00    +0.000 HD
BRANCH   8  11
ATOM     11  C   UNL     1       8.423   9.081  18.245  0.00  0.00    +0.000 A 
ATOM     12  N   UNL     1       8.215  10.081  17.411  0.00  0.00    +0.000 NA
ATOM     13  C   UNL     1       8.816  11.174  18.000  0.00  0.00    +0.000 A 
ATOM     14  C   UNL     1       9.405  10.831  19.196  0.00  0.00    +0.000 A 
ATOM     15  N   UNL     1       9.144   9.497  19.338  0.00  0.00    +0.000 N 
ATOM     16  H   UNL     1       9.414   8.887  20.101  0.00  0.00    +0.000 HD
BRANCH  14  17
ATOM     17  C   UNL     1      10.167  11.580  20.206  0.00  0.00    +0.000 C 
ATOM     18  F   UNL     1       9.850  11.222  21.472  0.00  0.00    +0.000 F 
ATOM     19  F   UNL     1      11.500  11.392  20.052  0.00  0.00    +0.000 F 
ATOM     20  F   UNL     1       9.946  12.913  20.093  0.00  0.00    +0.000 F 
ENDBRANCH  14  17
ENDBRANCH   8  11
ENDBRANCH   5   7
BRANCH   1  22
ATOM     21  C   UNL     1       3.630   2.409  17.996  0.00  0.00    +0.000 C 
ATOM     22  C   UNL     1       3.854   3.930  18.103  0.00  0.00    +0.000 C 
BRANCH  22  23
ATOM     23  C   UNL     1       2.549   4.715  17.829  0.00  0.00    +0.000 C 
BRANCH  23  24
ATOM     24  C   UNL     1       2.258   5.746  18.866  0.00  0.00    +0.000 A 
ATOM     25  N   UNL     1       2.433   7.046  18.750  0.00  0.00    +0.000 NA
ATOM     26  N   UNL     1       2.107   7.631  19.951  0.00  0.00    +0.000 NA
ATOM     27  C   UNL     1       1.729   6.677  20.768  0.00  0.00    +0.000 A 
ATOM     28  N   UNL     1       1.766   5.483  20.118  0.00  0.00    +0.000 N 
ATOM     29  C   UNL     1       1.349   4.213  20.645  0.00  0.00    +0.000 C 
ENDBRANCH  23  24
ENDBRANCH  22  23
ENDBRANCH   1  22
TORSDOF 6
ENDMDL
MODEL 5
REMARK VINA RESULT:      -8.0      0.984      1.644
REMARK  Name = 
REMARK  8 active torsions:
REMARK  status: ('A' for Active; 'I' for Inactive)
REMARK    1  A    between atoms: C_1  and  C_2
REMARK    2  A    between atoms: C_2  and  C_3
REMARK    3  A    between atoms: C_2  and  C_10
REMARK    4  A    between atoms: C_3  and  C_4
REMARK    5  A    between atoms: N_8  and  C_9
REMARK    6  A    between atoms: C_14  and  N_15
REMARK    7  A    between atoms: C_16  and  C_18
REMARK    8  A    between atoms: C_21  and  C_22
REMARK                            x       y       z     vdW  Elec       q    Type
REMARK                         _______ _______ _______ _____ _____    ______ ____
ROOT
ATOM      1  C   UNL     1       5.024   4.431  17.035  0.00  0.00    +0.000 A 
ATOM      2  C   UNL     1       5.463   3.764  15.881  0.00  0.00    +0.000 A 
ATOM      3  C   UNL     1       6.484   4.292  15.099  0.00  0.00    +0.000 A 
ATOM      4  C   UNL     1       7.065   5.511  15.439  0.00  0.00    +0.000 A 
ATOM      5  C   UNL     1       6.637   6.221  16.561  0.00  0.00    +0.000 A 
ATOM      6  C   UNL     1       5.637   5.660  17.367  0.00  0.00    +0.000 A 
ENDROOT
BRANCH   5   7
ATOM      7  N   UNL     1       7.171   7.478  16.921  0.00  0.00    +0.000 N 
ATOM      8  C   UNL     1       7.950   7.738  18.031  0.00  0.00    +0.000 C 
ATOM      9  O   UNL     1       8.330   6.900  18.849  0.00  0.00    +0.000 OA
ATOM     10  H   UNL     1       7.042   8.262  16.287  0.00  0.00    +0.000 HD
BRANCH   8  11
ATOM     11  C   UNL     1       8.360   9.118  18.188  0.00  0.00    +0.000 A 
ATOM     12  N   UNL     1       7.974  10.159  17.476  0.00  0.00    +0.000 NA
ATOM     13  C   UNL     1       8.639  11.237  18.022  0.00  0.00    +0.000 A 
ATOM     14  C   UNL     1       9.445  10.844  19.066  0.00  0.00    +0.000 A 
ATOM     15  N   UNL     1       9.254   9.495  19.160  0.00  0.00    +0.000 N 
ATOM     16  H   UNL     1       9.676   8.850  19.819  0.00  0.00    +0.000 HD
BRANCH  14  17
ATOM     17  C   UNL     1      10.355  11.560  19.973  0.00  0.00    +0.000 C 
ATOM     18  F   UNL     1      11.642  11.160  19.847  0.00  0.00    +0.000 F 
ATOM     19  F   UNL     1      10.320  12.896  19.748  0.00  0.00    +0.000 F 
ATOM     20  F   UNL     1       9.998  11.374  21.268  0.00  0.00    +0.000 F 
ENDBRANCH  14  17
ENDBRANCH   8  11
ENDBRANCH   5   7
BRANCH   1  22
ATOM     21  C   UNL     1       2.495   4.113  17.367  0.00  0.00    +0.000 C 
ATOM     22  C   UNL     1       3.911   3.878  17.927  0.00  0.00    +0.000 C 
BRANCH  22  23
ATOM     23  C   UNL     1       4.057   4.455  19.356  0.00  0.00    +0.000 C 
BRANCH  23  24
ATOM     24  C   UNL     1       3.201   3.760  20.358  0.00  0.00    +0.000 A 
ATOM     25  N   UNL     1       3.405   2.563  20.870  0.00  0.00    +0.000 NA
ATOM     26  N   UNL     1       2.352   2.267  21.703  0.00  0.00    +0.000 NA
ATOM     27  C   UNL     1       1.535   3.294  21.691  0.00  0.00    +0.000 A 
ATOM     28  N   UNL     1       2.048   4.271  20.896  0.00  0.00    +0.000 N 
ATOM     29  C   UNL     1       1.491   5.579  20.688  0.00  0.00    +0.000 C 
ENDBRANCH  23  24
ENDBRANCH  22  23
ENDBRANCH   1  22
TORSDOF 6
ENDMDL
MODEL 6
REMARK VINA RESULT:      -8.0      1.511      2.091
REMARK  Name = 
REMARK  8 active torsions:
REMARK  status: ('A' for Active; 'I' for Inactive)
REMARK    1  A    between atoms: C_1  and  C_2
REMARK    2  A    between atoms: C_2  and  C_3
REMARK    3  A    between atoms: C_2  and  C_10
REMARK    4  A    between atoms: C_3  and  C_4
REMARK    5  A    between atoms: N_8  and  C_9
REMARK    6  A    between atoms: C_14  and  N_15
REMARK    7  A    between atoms: C_16  and  C_18
REMARK    8  A    between atoms: C_21  and  C_22
REMARK                            x       y       z     vdW  Elec       q    Type
REMARK                         _______ _______ _______ _____ _____    ______ ____
ROOT
ATOM      1  C   UNL     1       4.724   4.828  17.053  0.00  0.00    +0.000 A 
ATOM      2  C   UNL     1       5.245   4.083  15.983  0.00  0.00    +0.000 A 
ATOM      3  C   UNL     1       6.412   4.481  15.342  0.00  0.00    +0.000 A 
ATOM      4  C   UNL     1       7.065   5.645  15.738  0.00  0.00    +0.000 A 
ATOM      5  C   UNL     1       6.564   6.430  16.777  0.00  0.00    +0.000 A 
ATOM      6  C   UNL     1       5.411   5.999  17.445  0.00  0.00    +0.000 A 
ENDROOT
BRANCH   5   7
ATOM      7  N   UNL     1       7.172   7.638  17.185  0.00  0.00    +0.000 N 
ATOM      8  C   UNL     1       8.036   7.788  18.252  0.00  0.00    +0.000 C 
ATOM      9  O   UNL     1       8.438   6.880  18.978  0.00  0.00    +0.000 OA
ATOM     10  H   UNL     1       7.031   8.471  16.619  0.00  0.00    +0.000 HD
BRANCH   8  11
ATOM     11  C   UNL     1       8.511   9.138  18.476  0.00  0.00    +0.000 A 
ATOM     12  N   UNL     1       9.369   9.548  19.390  0.00  0.00    +0.000 NA
ATOM     13  C   UNL     1       9.494  10.906  19.184  0.00  0.00    +0.000 A 
ATOM     14  C   UNL     1       8.695  11.325  18.144  0.00  0.00    +0.000 A 
ATOM     15  N   UNL     1       8.080  10.188  17.703  0.00  0.00    +0.000 N 
ATOM     16  H   UNL     1       7.417  10.093  16.942  0.00  0.00    +0.000 HD
BRANCH  14  17
ATOM     17  C   UNL     1       8.441  12.632  17.520  0.00  0.00    +0.000 C 
ATOM     18  F   UNL     1       8.068  13.576  18.415  0.00  0.00    +0.000 F 
ATOM     19  F   UNL     1       9.543  13.092  16.880  0.00  0.00    +0.000 F 
ATOM     20  F   UNL     1       7.459  12.545  16.589  0.00  0.00    +0.000 F 
ENDBRANCH  14  17
ENDBRANCH   8  11
ENDBRANCH   5   7
BRANCH   1  22
ATOM     21  C   UNL     1       2.949   5.476  18.796  0.00  0.00    +0.000 C 
ATOM     22  C   UNL     1       3.448   4.419  17.791  0.00  0.00    +0.000 C 
BRANCH  22  23
ATOM     23  C   UNL     1       3.661   3.046  18.473  0.00  0.00    +0.000 C 
BRANCH  23  24
ATOM     24  C   UNL     1       2.936   2.919  19.770  0.00  0.00    +0.000 A 
ATOM     25  N   UNL     1       3.464   2.992  20.974  0.00  0.00    +0.000 NA
ATOM     26  N   UNL     1       2.468   2.758  21.894  0.00  0.00    +0.000 NA
ATOM     27  C   UNL     1       1.353   2.559  21.231  0.00  0.00    +0.000 A 
ATOM     28  N   UNL     1       1.590   2.694  19.898  0.00  0.00    +0.000 N 
ATOM     29  C   UNL     1       0.610   2.631  18.849  0.00  0.00    +0.000 C 
ENDBRANCH  23  24
ENDBRANCH  22  23
ENDBRANCH   1  22
TORSDOF 6
ENDMDL
MODEL 7
REMARK VINA RESULT:      -8.0      1.496      2.399
REMARK  Name = 
REMARK  8 active torsions:
REMARK  status: ('A' for Active; 'I' for Inactive)
REMARK    1  A    between atoms: C_1  and  C_2
REMARK    2  A    between atoms: C_2  and  C_3
REMARK    3  A    between atoms: C_2  and  C_10
REMARK    4  A    between atoms: C_3  and  C_4
REMARK    5  A    between atoms: N_8  and  C_9
REMARK    6  A    between atoms: C_14  and  N_15
REMARK    7  A    between atoms: C_16  and  C_18
REMARK    8  A    between atoms: C_21  and  C_22
REMARK                            x       y       z     vdW  Elec       q    Type
REMARK                         _______ _______ _______ _____ _____    ______ ____
ROOT
ATOM      1  C   UNL     1       4.826   4.547  17.168  0.00  0.00    +0.000 A 
ATOM      2  C   UNL     1       5.297   3.809  16.072  0.00  0.00    +0.000 A 
ATOM      3  C   UNL     1       6.392   4.248  15.338  0.00  0.00    +0.000 A 
ATOM      4  C   UNL     1       7.019   5.448  15.667  0.00  0.00    +0.000 A 
ATOM      5  C   UNL     1       6.563   6.227  16.730  0.00  0.00    +0.000 A 
ATOM      6  C   UNL     1       5.485   5.755  17.491  0.00  0.00    +0.000 A 
ENDROOT
BRANCH   5   7
ATOM      7  N   UNL     1       7.142   7.468  17.074  0.00  0.00    +0.000 N 
ATOM      8  C   UNL     1       7.989   7.696  18.140  0.00  0.00    +0.000 C 
ATOM      9  O   UNL     1       8.397   6.841  18.925  0.00  0.00    +0.000 OA
ATOM     10  H   UNL     1       6.994   8.263  16.457  0.00  0.00    +0.000 HD
BRANCH   8  11
ATOM     11  C   UNL     1       8.436   9.066  18.290  0.00  0.00    +0.000 A 
ATOM     12  N   UNL     1       8.326  10.049  17.418  0.00  0.00    +0.000 NA
ATOM     13  C   UNL     1       8.894  11.144  18.035  0.00  0.00    +0.000 A 
ATOM     14  C   UNL     1       9.364  10.819  19.287  0.00  0.00    +0.000 A 
ATOM     15  N   UNL     1       9.062   9.495  19.434  0.00  0.00    +0.000 N 
ATOM     16  H   UNL     1       9.249   8.899  20.233  0.00  0.00    +0.000 HD
BRANCH  14  17
ATOM     17  C   UNL     1      10.047  11.578  20.345  0.00  0.00    +0.000 C 
ATOM     18  F   UNL     1      11.395  11.511  20.252  0.00  0.00    +0.000 F 
ATOM     19  F   UNL     1       9.702  12.888  20.309  0.00  0.00    +0.000 F 
ATOM     20  F   UNL     1       9.702  11.119  21.574  0.00  0.00    +0.000 F 
ENDBRANCH  14  17
ENDBRANCH   8  11
ENDBRANCH   5   7
BRANCH   1  22
ATOM     21  C   UNL     1       3.214   2.631  17.752  0.00  0.00    +0.000 C 
ATOM     22  C   UNL     1       3.630   4.093  18.009  0.00  0.00    +0.000 C 
BRANCH  22  23
ATOM     23  C   UNL     1       2.445   5.065  17.793  0.00  0.00    +0.000 C 
BRANCH  23  24
ATOM     24  C   UNL     1       2.188   5.942  18.970  0.00  0.00    +0.000 A 
ATOM     25  N   UNL     1       1.848   5.551  20.182  0.00  0.00    +0.000 NA
ATOM     26  N   UNL     1       1.641   6.672  20.952  0.00  0.00    +0.000 NA
ATOM     27  C   UNL     1       1.872   7.721  20.198  0.00  0.00    +0.000 A 
ATOM     28  N   UNL     1       2.259   7.311  18.960  0.00  0.00    +0.000 N 
ATOM     29  C   UNL     1       2.678   8.156  17.876  0.00  0.00    +0.000 C 
ENDBRANCH  23  24
ENDBRANCH  22  23
ENDBRANCH   1  22
TORSDOF 6
ENDMDL
MODEL 8
REMARK VINA RESULT:      -7.9      0.929      1.465
REMARK  Name = 
REMARK  8 active torsions:
REMARK  status: ('A' for Active; 'I' for Inactive)
REMARK    1  A    between atoms: C_1  and  C_2
REMARK    2  A    between atoms: C_2  and  C_3
REMARK    3  A    between atoms: C_2  and  C_10
REMARK    4  A    between atoms: C_3  and  C_4
REMARK    5  A    between atoms: N_8  and  C_9
REMARK    6  A    between atoms: C_14  and  N_15
REMARK    7  A    between atoms: C_16  and  C_18
REMARK    8  A    between atoms: C_21  and  C_22
REMARK                            x       y       z     vdW  Elec       q    Type
REMARK                         _______ _______ _______ _____ _____    ______ ____
ROOT
ATOM      1  C   UNL     1       4.214   5.976  17.347  0.00  0.00    +0.000 A 
ATOM      2  C   UNL     1       4.701   4.909  16.576  0.00  0.00    +0.000 A 
ATOM      3  C   UNL     1       6.011   4.908  16.112  0.00  0.00    +0.000 A 
ATOM      4  C   UNL     1       6.850   5.986  16.383  0.00  0.00    +0.000 A 
ATOM      5  C   UNL     1       6.396   7.080  17.120  0.00  0.00    +0.000 A 
ATOM      6  C   UNL     1       5.087   7.053  17.621  0.00  0.00    +0.000 A 
ENDROOT
BRANCH   5   7
ATOM      7  N   UNL     1       7.199   8.210  17.385  0.00  0.00    +0.000 N 
ATOM      8  C   UNL     1       8.202   8.285  18.332  0.00  0.00    +0.000 C 
ATOM      9  O   UNL     1       8.572   7.361  19.056  0.00  0.00    +0.000 OA
ATOM     10  H   UNL     1       7.097   9.031  16.794  0.00  0.00    +0.000 HD
BRANCH   8  11
ATOM     11  C   UNL     1       8.870   9.567  18.422  0.00  0.00    +0.000 A 
ATOM     12  N   UNL     1       9.045  10.453  17.462  0.00  0.00    +0.000 NA
ATOM     13  C   UNL     1       9.726  11.497  18.053  0.00  0.00    +0.000 A 
ATOM     14  C   UNL     1       9.978  11.235  19.381  0.00  0.00    +0.000 A 
ATOM     15  N   UNL     1       9.425  10.005  19.600  0.00  0.00    +0.000 N 
ATOM     16  H   UNL     1       9.403   9.477  20.465  0.00  0.00    +0.000 HD
BRANCH  14  17
ATOM     17  C   UNL     1      10.657  11.978  20.452  0.00  0.00    +0.000 C 
ATOM     18  F   UNL     1      11.980  11.700  20.526  0.00  0.00    +0.000 F 
ATOM     19  F   UNL     1      10.533  13.316  20.276  0.00  0.00    +0.000 F 
ATOM     20  F   UNL     1      10.115  11.693  21.662  0.00  0.00    +0.000 F 
ENDBRANCH  14  17
ENDBRANCH   8  11
ENDBRANCH   5   7
BRANCH   1  22
ATOM     21  C   UNL     1       2.213   7.434  18.037  0.00  0.00    +0.000 C 
ATOM     22  C   UNL     1       2.782   6.010  17.887  0.00  0.00    +0.000 C 
BRANCH  22  23
ATOM     23  C   UNL     1       2.712   5.229  19.221  0.00  0.00    +0.000 C 
BRANCH  23  24
ATOM     24  C   UNL     1       1.909   3.977  19.124  0.00  0.00    +0.000 A 
ATOM     25  N   UNL     1       1.314   3.508  18.046  0.00  0.00    +0.000 NA
ATOM     26  N   UNL     1       0.628   2.369  18.397  0.00  0.00    +0.000 NA
ATOM     27  C   UNL     1       0.829   2.162  19.677  0.00  0.00    +0.000 A 
ATOM     28  N   UNL     1       1.662   3.120  20.164  0.00  0.00    +0.000 N 
ATOM     29  C   UNL     1       2.185   3.193  21.500  0.00  0.00    +0.000 C 
ENDBRANCH  23  24
ENDBRANCH  22  23
ENDBRANCH   1  22
TORSDOF 6
ENDMDL
MODEL 9
REMARK VINA RESULT:      -7.9      5.750      7.819
REMARK  Name = 
REMARK  8 active torsions:
REMARK  status: ('A' for Active; 'I' for Inactive)
REMARK    1  A    between atoms: C_1  and  C_2
REMARK    2  A    between atoms: C_2  and  C_3
REMARK    3  A    between atoms: C_2  and  C_10
REMARK    4  A    between atoms: C_3  and  C_4
REMARK    5  A    between atoms: N_8  and  C_9
REMARK    6  A    between atoms: C_14  and  N_15
REMARK    7  A    between atoms: C_16  and  C_18
REMARK    8  A    between atoms: C_21  and  C_22
REMARK                            x       y       z     vdW  Elec       q    Type
REMARK                         _______ _______ _______ _____ _____    ______ ____
ROOT
ATOM      1  C   UNL     1       2.206   6.945  19.744  0.00  0.00    +0.000 A 
ATOM      2  C   UNL     1       1.792   5.864  20.537  0.00  0.00    +0.000 A 
ATOM      3  C   UNL     1       2.203   4.569  20.244  0.00  0.00    +0.000 A 
ATOM      4  C   UNL     1       3.011   4.326  19.136  0.00  0.00    +0.000 A 
ATOM      5  C   UNL     1       3.420   5.369  18.305  0.00  0.00    +0.000 A 
ATOM      6  C   UNL     1       3.036   6.676  18.632  0.00  0.00    +0.000 A 
ENDROOT
BRANCH   5   7
ATOM      7  N   UNL     1       4.207   5.163  17.150  0.00  0.00    +0.000 N 
ATOM      8  C   UNL     1       5.587   5.148  17.104  0.00  0.00    +0.000 C 
ATOM      9  O   UNL     1       6.335   5.268  18.074  0.00  0.00    +0.000 OA
ATOM     10  H   UNL     1       3.740   4.936  16.276  0.00  0.00    +0.000 HD
BRANCH   8  11
ATOM     11  C   UNL     1       6.158   4.934  15.791  0.00  0.00    +0.000 A 
ATOM     12  N   UNL     1       7.333   5.340  15.348  0.00  0.00    +0.000 NA
ATOM     13  C   UNL     1       7.407   4.881  14.049  0.00  0.00    +0.000 A 
ATOM     14  C   UNL     1       6.262   4.202  13.697  0.00  0.00    +0.000 A 
ATOM     15  N   UNL     1       5.480   4.243  14.817  0.00  0.00    +0.000 N 
ATOM     16  H   UNL     1       4.557   3.844  14.947  0.00  0.00    +0.000 HD
BRANCH  14  17
ATOM     17  C   UNL     1       5.816   3.531  12.468  0.00  0.00    +0.000 C 
ATOM     18  F   UNL     1       4.491   3.689  12.236  0.00  0.00    +0.000 F 
ATOM     19  F   UNL     1       6.477   4.003  11.383  0.00  0.00    +0.000 F 
ATOM     20  F   UNL     1       6.062   2.198  12.523  0.00  0.00    +0.000 F 
ENDBRANCH  14  17
ENDBRANCH   8  11
ENDBRANCH   5   7
BRANCH   1  22
ATOM     21  C   UNL     1       0.918   8.530  21.305  0.00  0.00    +0.000 C 
ATOM     22  C   UNL     1       1.784   8.386  20.038  0.00  0.00    +0.000 C 
BRANCH  22  23
ATOM     23  C   UNL     1       1.077   8.984  18.798  0.00  0.00    +0.000 C 
BRANCH  23  24
ATOM     24  C   UNL     1       1.341  10.440  18.620  0.00  0.00    +0.000 A 
ATOM     25  N   UNL     1       2.414  10.983  18.083  0.00  0.00    +0.000 NA
ATOM     26  N   UNL     1       2.292  12.350  18.168  0.00  0.00    +0.000 NA
ATOM     27  C   UNL     1       1.141  12.611  18.743  0.00  0.00    +0.000 A 
ATOM     28  N   UNL     1       0.492  11.445  19.004  0.00  0.00    +0.000 N 
ATOM     29  C   UNL     1      -0.829  11.311  19.554  0.00  0.00    +0.000 C 
ENDBRANCH  23  24
ENDBRANCH  22  23
ENDBRANCH   1  22
TORSDOF 6
ENDMDL
