MODEL 1
REMARK VINA RESULT:      -9.5      0.000      0.000
REMARK  Name = 
REMARK  9 active torsions:
REMARK  status: ('A' for Active; 'I' for Inactive)
REMARK    1  A    between atoms: C_1  and  C_2
REMARK    2  A    between atoms: C_2  and  N_3
REMARK    3  A    between atoms: C_6  and  C_7
REMARK    4  A    between atoms: C_7  and  C_8
REMARK    5  A    between atoms: C_7  and  C_9
REMARK    6  A    between atoms: C_9  and  C_10
REMARK    7  A    between atoms: N_14  and  C_15
REMARK    8  A    between atoms: C_17  and  N_18
REMARK    9  A    between atoms: C_25  and  C_26
REMARK                            x       y       z     vdW  Elec       q    Type
REMARK                         _______ _______ _______ _____ _____    ______ ____
ROOT
ATOM      1  N   UNL     1       2.875   2.828  19.432  0.00  0.00    +0.000 N 
ATOM      2  C   UNL     1       3.327   4.140  19.203  0.00  0.00    +0.000 A 
ATOM      3  C   UNL     1       4.676   4.301  18.866  0.00  0.00    +0.000 A 
ATOM      4  C   UNL     1       5.183   5.570  18.576  0.00  0.00    +0.000 A 
ATOM      5  C   UNL     1       4.278   6.632  18.630  0.00  0.00    +0.000 A 
ATOM      6  C   UNL     1       2.953   6.414  19.016  0.00  0.00    +0.000 A 
ATOM      7  N   UNL     1       2.465   5.177  19.251  0.00  0.00    +0.000 NA
ATOM      8  H   UNL     1       2.743   2.399  18.520  0.00  0.00    +0.000 HD
ENDROOT
BRANCH   6   9
ATOM      9  N   UNL     1       2.105   7.513  19.256  0.00  0.00    +0.000 N 
ATOM     10  C   UNL     1       1.566   7.820  20.574  0.00  0.00    +0.000 C 
ATOM     11  C   UNL     1       0.953   9.182  20.373  0.00  0.00    +0.000 A 
ATOM     12  C   UNL     1       1.251   9.624  19.082  0.00  0.00    +0.000 A 
ATOM     13  C   UNL     1       0.909  10.874  18.601  0.00  0.00    +0.000 A 
ATOM     14  C   UNL     1       0.187  11.709  19.448  0.00  0.00    +0.000 A 
ATOM     15  C   UNL     1      -0.166  11.274  20.737  0.00  0.00    +0.000 A 
ATOM     16  C   UNL     1       0.218  10.003  21.228  0.00  0.00    +0.000 A 
ATOM     17  C   UNL     1       1.979   8.573  18.371  0.00  0.00    +0.000 C 
ATOM     18  O   UNL     1       2.395   8.716  17.235  0.00  0.00    +0.000 OA
BRANCH  16  19
ATOM     19  C   UNL     1      -0.191   9.614  22.624  0.00  0.00    +0.000 C 
ATOM     20  F   UNL     1      -0.925  10.562  23.266  0.00  0.00    +0.000 F 
ATOM     21  F   UNL     1      -0.941   8.478  22.648  0.00  0.00    +0.000 F 
ATOM     22  F   UNL     1       0.883   9.367  23.424  0.00  0.00    +0.000 F 
ENDBRANCH  16  19
ENDBRANCH   6   9
BRANCH   1  24
ATOM     23  C   UNL     1       2.134   2.704  21.742  0.00  0.00    +0.000 C 
ATOM     24  C   UNL     1       1.698   2.710  20.283  0.00  0.00    +0.000 C 
ENDBRANCH   1  24
BRANCH   4  25
ATOM     25  C   UNL     1       6.663   5.835  18.294  0.00  0.00    +0.000 C 
ATOM     26  C   UNL     1       6.864   7.166  17.557  0.00  0.00    +0.000 C 
BRANCH  25  27
ATOM     27  C   UNL     1       7.283   4.639  17.533  0.00  0.00    +0.000 C 
BRANCH  27  28
ATOM     28  C   UNL     1       7.029   4.634  16.058  0.00  0.00    +0.000 A 
ATOM     29  N   UNL     1       7.716   5.332  15.172  0.00  0.00    +0.000 NA
ATOM     30  N   UNL     1       7.139   5.165  13.940  0.00  0.00    +0.000 NA
ATOM     31  C   UNL     1       6.106   4.375  14.086  0.00  0.00    +0.000 A 
ATOM     32  N   UNL     1       6.010   3.994  15.394  0.00  0.00    +0.000 N 
ATOM     33  C   UNL     1       5.006   3.106  15.909  0.00  0.00    +0.000 C 
ENDBRANCH  27  28
ENDBRANCH  25  27
ENDBRANCH   4  25
TORSDOF 6
ENDMDL
MODEL 2
REMARK VINA RESULT:      -9.5      1.393      2.372
REMARK  Name = 
REMARK  9 active torsions:
REMARK  status: ('A' for Active; 'I' for Inactive)
REMARK    1  A    between atoms: C_1  and  C_2
REMARK    2  A    between atoms: C_2  and  N_3
REMARK    3  A    between atoms: C_6  and  C_7
REMARK    4  A    between atoms: C_7  and  C_8
REMARK    5  A    between atoms: C_7  and  C_9
REMARK    6  A    between atoms: C_9  and  C_10
REMARK    7  A    between atoms: N_14  and  C_15
REMARK    8  A    between atoms: C_17  and  N_18
REMARK    9  A    between atoms: C_25  and  C_26
REMARK                            x       y       z     vdW  Elec       q    Type
REMARK                         _______ _______ _______ _____ _____    ______ ____
ROOT
ATOM      1  N   UNL     1       3.138   3.057  20.162  0.00  0.00    +0.000 N 
ATOM      2  C   UNL     1       3.251   4.209  19.364  0.00  0.00    +0.000 A 
ATOM      3  C   UNL     1       4.165   4.167  18.305  0.00  0.00    +0.000 A 
ATOM      4  C   UNL     1       4.294   5.256  17.440  0.00  0.00    +0.000 A 
ATOM      5  C   UNL     1       3.464   6.351  17.688  0.00  0.00    +0.000 A 
ATOM      6  C   UNL     1       2.602   6.352  18.787  0.00  0.00    +0.000 A 
ATOM      7  N   UNL     1       2.455   5.276  19.589  0.00  0.00    +0.000 NA
ATOM      8  H   UNL     1       2.571   2.392  19.642  0.00  0.00    +0.000 HD
ENDROOT
BRANCH   6   9
ATOM      9  N   UNL     1       1.917   7.533  19.138  0.00  0.00    +0.000 N 
ATOM     10  C   UNL     1       1.434   7.793  20.487  0.00  0.00    +0.000 C 
ATOM     11  C   UNL     1       1.017   9.239  20.417  0.00  0.00    +0.000 A 
ATOM     12  C   UNL     1       1.368   9.750  19.165  0.00  0.00    +0.000 A 
ATOM     13  C   UNL     1       1.202  11.073  18.803  0.00  0.00    +0.000 A 
ATOM     14  C   UNL     1       0.608  11.921  19.732  0.00  0.00    +0.000 A 
ATOM     15  C   UNL     1       0.205  11.426  20.984  0.00  0.00    +0.000 A 
ATOM     16  C   UNL     1       0.409  10.075  21.354  0.00  0.00    +0.000 A 
ATOM     17  C   UNL     1       1.936   8.675  18.352  0.00  0.00    +0.000 C 
ATOM     18  O   UNL     1       2.362   8.859  17.225  0.00  0.00    +0.000 OA
BRANCH  16  19
ATOM     19  C   UNL     1      -0.043   9.623  22.718  0.00  0.00    +0.000 C 
ATOM     20  F   UNL     1       0.974   9.241  23.536  0.00  0.00    +0.000 F 
ATOM     21  F   UNL     1      -0.721  10.595  23.389  0.00  0.00    +0.000 F 
ATOM     22  F   UNL     1      -0.890   8.559  22.652  0.00  0.00    +0.000 F 
ENDBRANCH  16  19
ENDBRANCH   6   9
BRANCH   1  24
ATOM     23  C   UNL     1       1.287   2.605  21.668  0.00  0.00    +0.000 C 
ATOM     24  C   UNL     1       2.644   3.277  21.515  0.00  0.00    +0.000 C 
ENDBRANCH   1  24
BRANCH   4  25
ATOM     25  C   UNL     1       5.337   5.318  16.323  0.00  0.00    +0.000 C 
ATOM     26  C   UNL     1       5.058   4.271  15.238  0.00  0.00    +0.000 C 
BRANCH  25  27
ATOM     27  C   UNL     1       6.760   5.190  16.916  0.00  0.00    +0.000 C 
BRANCH  27  28
ATOM     28  C   UNL     1       7.317   6.456  17.490  0.00  0.00    +0.000 A 
ATOM     29  N   UNL     1       7.352   7.618  16.862  0.00  0.00    +0.000 NA
ATOM     30  N   UNL     1       8.024   8.519  17.647  0.00  0.00    +0.000 NA
ATOM     31  C   UNL     1       8.396   7.899  18.738  0.00  0.00    +0.000 A 
ATOM     32  N   UNL     1       7.953   6.608  18.698  0.00  0.00    +0.000 N 
ATOM     33  C   UNL     1       8.160   5.647  19.744  0.00  0.00    +0.000 C 
ENDBRANCH  27  28
ENDBRANCH  25  27
ENDBRANCH   4  25
TORSDOF 6
ENDMDL
MODEL 3
REMARK VINA RESULT:      -9.3      1.075      1.467
REMARK  Name = 
REMARK  9 active torsions:
REMARK  status: ('A' for Active; 'I' for Inactive)
REMARK    1  A    between atoms: C_1  and  C_2
REMARK    2  A    between atoms: C_2  and  N_3
REMARK    3  A    between atoms: C_6  and  C_7
REMARK    4  A    between atoms: C_7  and  C_8
REMARK    5  A    between atoms: C_7  and  C_9
REMARK    6  A    between atoms: C_9  and  C_10
REMARK    7  A    between atoms: N_14  and  C_15
REMARK    8  A    between atoms: C_17  and  N_18
REMARK    9  A    between atoms: C_25  and  C_26
REMARK                            x       y       z     vdW  Elec       q    Type
REMARK                         _______ _______ _______ _____ _____    ______ ____
ROOT
ATOM      1  N   UNL     1       3.161   3.266  19.772  0.00  0.00    +0.000 N 
ATOM      2  C   UNL     1       3.274   4.499  19.103  0.00  0.00    +0.000 A 
ATOM      3  C   UNL     1       4.251   4.598  18.106  0.00  0.00    +0.000 A 
ATOM      4  C   UNL     1       4.385   5.775  17.366  0.00  0.00    +0.000 A 
ATOM      5  C   UNL     1       3.497   6.809  17.670  0.00  0.00    +0.000 A 
ATOM      6  C   UNL     1       2.572   6.666  18.707  0.00  0.00    +0.000 A 
ATOM      7  N   UNL     1       2.423   5.508  19.385  0.00  0.00    +0.000 NA
ATOM      8  H   UNL     1       2.654   2.640  19.152  0.00  0.00    +0.000 HD
ENDROOT
BRANCH   6   9
ATOM      9  N   UNL     1       1.821   7.779  19.132  0.00  0.00    +0.000 N 
ATOM     10  C   UNL     1       1.382   7.955  20.509  0.00  0.00    +0.000 C 
ATOM     11  C   UNL     1       0.858   9.368  20.513  0.00  0.00    +0.000 A 
ATOM     12  C   UNL     1       1.112   9.946  19.268  0.00  0.00    +0.000 A 
ATOM     13  C   UNL     1       0.834  11.265  18.963  0.00  0.00    +0.000 A 
ATOM     14  C   UNL     1       0.223  12.033  19.949  0.00  0.00    +0.000 A 
ATOM     15  C   UNL     1      -0.085  11.467  21.197  0.00  0.00    +0.000 A 
ATOM     16  C   UNL     1       0.233  10.123  21.506  0.00  0.00    +0.000 A 
ATOM     17  C   UNL     1       1.720   8.947  18.390  0.00  0.00    +0.000 C 
ATOM     18  O   UNL     1       2.079   9.201  17.254  0.00  0.00    +0.000 OA
BRANCH  16  19
ATOM     19  C   UNL     1      -0.122   9.591  22.870  0.00  0.00    +0.000 C 
ATOM     20  F   UNL     1      -0.865   8.453  22.840  0.00  0.00    +0.000 F 
ATOM     21  F   UNL     1       0.978   9.302  23.617  0.00  0.00    +0.000 F 
ATOM     22  F   UNL     1      -0.841  10.489  23.600  0.00  0.00    +0.000 F 
ENDBRANCH  16  19
ENDBRANCH   6   9
BRANCH   1  24
ATOM     23  C   UNL     1       1.131   2.863  21.043  0.00  0.00    +0.000 C 
ATOM     24  C   UNL     1       2.580   3.327  21.106  0.00  0.00    +0.000 C 
ENDBRANCH   1  24
BRANCH   4  25
ATOM     25  C   UNL     1       5.490   5.989  16.329  0.00  0.00    +0.000 C 
ATOM     26  C   UNL     1       5.066   7.007  15.262  0.00  0.00    +0.000 C 
BRANCH  25  27
ATOM     27  C   UNL     1       5.916   4.634  15.718  0.00  0.00    +0.000 C 
BRANCH  27  28
ATOM     28  C   UNL     1       6.786   4.739  14.504  0.00  0.00    +0.000 A 
ATOM     29  N   UNL     1       7.909   5.430  14.438  0.00  0.00    +0.000 NA
ATOM     30  N   UNL     1       8.376   5.385  13.150  0.00  0.00    +0.000 NA
ATOM     31  C   UNL     1       7.533   4.674  12.444  0.00  0.00    +0.000 A 
ATOM     32  N   UNL     1       6.531   4.225  13.256  0.00  0.00    +0.000 N 
ATOM     33  C   UNL     1       5.446   3.392  12.819  0.00  0.00    +0.000 C 
ENDBRANCH  27  28
ENDBRANCH  25  27
ENDBRANCH   4  25
TORSDOF 6
ENDMDL
MODEL 4
REMARK VINA RESULT:      -8.9      2.407      3.358
REMARK  Name = 
REMARK  9 active torsions:
REMARK  status: ('A' for Active; 'I' for Inactive)
REMARK    1  A    between atoms: C_1  and  C_2
REMARK    2  A    between atoms: C_2  and  N_3
REMARK    3  A    between atoms: C_6  and  C_7
REMARK    4  A    between atoms: C_7  and  C_8
REMARK    5  A    between atoms: C_7  and  C_9
REMARK    6  A    between atoms: C_9  and  C_10
REMARK    7  A    between atoms: N_14  and  C_15
REMARK    8  A    between atoms: C_17  and  N_18
REMARK    9  A    between atoms: C_25  and  C_26
REMARK                            x       y       z     vdW  Elec       q    Type
REMARK                         _______ _______ _______ _____ _____    ______ ____
ROOT
ATOM      1  N   UNL     1       1.854   2.435  18.013  0.00  0.00    +0.000 N 
ATOM      2  C   UNL     1       2.506   3.674  17.883  0.00  0.00    +0.000 A 
ATOM      3  C   UNL     1       3.626   3.723  17.045  0.00  0.00    +0.000 A 
ATOM      4  C   UNL     1       4.292   4.932  16.830  0.00  0.00    +0.000 A 
ATOM      5  C   UNL     1       3.774   6.055  17.476  0.00  0.00    +0.000 A 
ATOM      6  C   UNL     1       2.679   5.935  18.336  0.00  0.00    +0.000 A 
ATOM      7  N   UNL     1       2.017   4.770  18.501  0.00  0.00    +0.000 NA
ATOM      8  H   UNL     1       1.287   2.311  17.177  0.00  0.00    +0.000 HD
ENDROOT
BRANCH   6   9
ATOM      9  N   UNL     1       2.290   7.032  19.130  0.00  0.00    +0.000 N 
ATOM     10  C   UNL     1       1.934   8.327  18.567  0.00  0.00    +0.000 C 
ATOM     11  C   UNL     1       1.363   9.059  19.753  0.00  0.00    +0.000 A 
ATOM     12  C   UNL     1       1.302   8.182  20.838  0.00  0.00    +0.000 A 
ATOM     13  C   UNL     1       0.750   8.512  22.061  0.00  0.00    +0.000 A 
ATOM     14  C   UNL     1       0.274   9.810  22.219  0.00  0.00    +0.000 A 
ATOM     15  C   UNL     1       0.362  10.728  21.159  0.00  0.00    +0.000 A 
ATOM     16  C   UNL     1       0.902  10.368  19.902  0.00  0.00    +0.000 A 
ATOM     17  C   UNL     1       1.887   6.899  20.451  0.00  0.00    +0.000 C 
ATOM     18  O   UNL     1       1.924   5.940  21.201  0.00  0.00    +0.000 OA
BRANCH  16  19
ATOM     19  C   UNL     1       0.954  11.407  18.813  0.00  0.00    +0.000 C 
ATOM     20  F   UNL     1      -0.032  11.281  17.885  0.00  0.00    +0.000 F 
ATOM     21  F   UNL     1       0.853  12.675  19.299  0.00  0.00    +0.000 F 
ATOM     22  F   UNL     1       2.126  11.368  18.121  0.00  0.00    +0.000 F 
ENDBRANCH  16  19
ENDBRANCH   6   9
BRANCH   1  24
ATOM     23  C   UNL     1       2.033   2.333  20.433  0.00  0.00    +0.000 C 
ATOM     24  C   UNL     1       1.090   2.253  19.240  0.00  0.00    +0.000 C 
ENDBRANCH   1  24
BRANCH   4  25
ATOM     25  C   UNL     1       5.576   5.042  16.005  0.00  0.00    +0.000 C 
ATOM     26  C   UNL     1       5.617   3.990  14.889  0.00  0.00    +0.000 C 
BRANCH  25  27
ATOM     27  C   UNL     1       6.813   4.969  16.932  0.00  0.00    +0.000 C 
BRANCH  27  28
ATOM     28  C   UNL     1       7.302   6.293  17.431  0.00  0.00    +0.000 A 
ATOM     29  N   UNL     1       7.316   7.408  16.724  0.00  0.00    +0.000 NA
ATOM     30  N   UNL     1       7.925   8.388  17.463  0.00  0.00    +0.000 NA
ATOM     31  C   UNL     1       8.281   7.862  18.608  0.00  0.00    +0.000 A 
ATOM     32  N   UNL     1       7.888   6.555  18.646  0.00  0.00    +0.000 N 
ATOM     33  C   UNL     1       8.093   5.679  19.765  0.00  0.00    +0.000 C 
ENDBRANCH  27  28
ENDBRANCH  25  27
ENDBRANCH   4  25
TORSDOF 6
ENDMDL
MODEL 5
REMARK VINA RESULT:      -8.9      0.877      1.248
REMARK  Name = 
REMARK  9 active torsions:
REMARK  status: ('A' for Active; 'I' for Inactive)
REMARK    1  A    between atoms: C_1  and  C_2
REMARK    2  A    between atoms: C_2  and  N_3
REMARK    3  A    between atoms: C_6  and  C_7
REMARK    4  A    between atoms: C_7  and  C_8
REMARK    5  A    between atoms: C_7  and  C_9
REMARK    6  A    between atoms: C_9  and  C_10
REMARK    7  A    between atoms: N_14  and  C_15
REMARK    8  A    between atoms: C_17  and  N_18
REMARK    9  A    between atoms: C_25  and  C_26
REMARK                            x       y       z     vdW  Elec       q    Type
REMARK                         _______ _______ _______ _____ _____    ______ ____
ROOT
ATOM      1  N   UNL     1       2.707   2.460  19.627  0.00  0.00    +0.000 N 
ATOM      2  C   UNL     1       3.263   3.734  19.411  0.00  0.00    +0.000 A 
ATOM      3  C   UNL     1       4.641   3.797  19.170  0.00  0.00    +0.000 A 
ATOM      4  C   UNL     1       5.253   5.023  18.897  0.00  0.00    +0.000 A 
ATOM      5  C   UNL     1       4.420   6.144  18.868  0.00  0.00    +0.000 A 
ATOM      6  C   UNL     1       3.060   6.023  19.160  0.00  0.00    +0.000 A 
ATOM      7  N   UNL     1       2.472   4.827  19.379  0.00  0.00    +0.000 NA
ATOM      8  H   UNL     1       2.611   2.021  18.715  0.00  0.00    +0.000 HD
ENDROOT
BRANCH   6   9
ATOM      9  N   UNL     1       2.274   7.181  19.319  0.00  0.00    +0.000 N 
ATOM     10  C   UNL     1       1.695   7.571  20.597  0.00  0.00    +0.000 C 
ATOM     11  C   UNL     1       1.180   8.960  20.319  0.00  0.00    +0.000 A 
ATOM     12  C   UNL     1       1.566   9.334  19.030  0.00  0.00    +0.000 A 
ATOM     13  C   UNL     1       1.328  10.583  18.489  0.00  0.00    +0.000 A 
ATOM     14  C   UNL     1       0.622  11.493  19.269  0.00  0.00    +0.000 A 
ATOM     15  C   UNL     1       0.182  11.131  20.554  0.00  0.00    +0.000 A 
ATOM     16  C   UNL     1       0.460   9.858  21.107  0.00  0.00    +0.000 A 
ATOM     17  C   UNL     1       2.257   8.213  18.392  0.00  0.00    +0.000 C 
ATOM     18  O   UNL     1       2.734   8.285  17.274  0.00  0.00    +0.000 OA
BRANCH  16  19
ATOM     19  C   UNL     1      -0.038   9.549  22.495  0.00  0.00    +0.000 C 
ATOM     20  F   UNL     1       0.951   9.256  23.381  0.00  0.00    +0.000 F 
ATOM     21  F   UNL     1      -0.736  10.583  23.038  0.00  0.00    +0.000 F 
ATOM     22  F   UNL     1      -0.883   8.481  22.511  0.00  0.00    +0.000 F 
ENDBRANCH  16  19
ENDBRANCH   6   9
BRANCH   1  24
ATOM     23  C   UNL     1       1.789   2.594  21.872  0.00  0.00    +0.000 C 
ATOM     24  C   UNL     1       1.467   2.439  20.392  0.00  0.00    +0.000 C 
ENDBRANCH   1  24
BRANCH   4  25
ATOM     25  C   UNL     1       6.764   5.181  18.720  0.00  0.00    +0.000 C 
ATOM     26  C   UNL     1       7.417   5.763  19.981  0.00  0.00    +0.000 C 
BRANCH  25  27
ATOM     27  C   UNL     1       7.067   6.020  17.456  0.00  0.00    +0.000 C 
BRANCH  27  28
ATOM     28  C   UNL     1       6.756   5.338  16.161  0.00  0.00    +0.000 A 
ATOM     29  N   UNL     1       7.424   4.308  15.671  0.00  0.00    +0.000 NA
ATOM     30  N   UNL     1       6.929   4.018  14.426  0.00  0.00    +0.000 NA
ATOM     31  C   UNL     1       5.972   4.873  14.166  0.00  0.00    +0.000 A 
ATOM     32  N   UNL     1       5.809   5.706  15.236  0.00  0.00    +0.000 N 
ATOM     33  C   UNL     1       4.827   6.752  15.308  0.00  0.00    +0.000 C 
ENDBRANCH  27  28
ENDBRANCH  25  27
ENDBRANCH   4  25
TORSDOF 6
ENDMDL
MODEL 6
REMARK VINA RESULT:      -8.8      1.410      2.365
REMARK  Name = 
REMARK  9 active torsions:
REMARK  status: ('A' for Active; 'I' for Inactive)
REMARK    1  A    between atoms: C_1  and  C_2
REMARK    2  A    between atoms: C_2  and  N_3
REMARK    3  A    between atoms: C_6  and  C_7
REMARK    4  A    between atoms: C_7  and  C_8
REMARK    5  A    between atoms: C_7  and  C_9
REMARK    6  A    between atoms: C_9  and  C_10
REMARK    7  A    between atoms: N_14  and  C_15
REMARK    8  A    between atoms: C_17  and  N_18
REMARK    9  A    between atoms: C_25  and  C_26
REMARK                            x       y       z     vdW  Elec       q    Type
REMARK                         _______ _______ _______ _____ _____    ______ ____
ROOT
ATOM      1  N   UNL     1       3.023   3.010  20.113  0.00  0.00    +0.000 N 
ATOM      2  C   UNL     1       3.125   4.143  19.285  0.00  0.00    +0.000 A 
ATOM      3  C   UNL     1       3.975   4.049  18.176  0.00  0.00    +0.000 A 
ATOM      4  C   UNL     1       4.087   5.116  17.282  0.00  0.00    +0.000 A 
ATOM      5  C   UNL     1       3.308   6.242  17.552  0.00  0.00    +0.000 A 
ATOM      6  C   UNL     1       2.512   6.294  18.699  0.00  0.00    +0.000 A 
ATOM      7  N   UNL     1       2.378   5.239  19.532  0.00  0.00    +0.000 NA
ATOM      8  H   UNL     1       2.405   2.355  19.642  0.00  0.00    +0.000 HD
ENDROOT
BRANCH   6   9
ATOM      9  N   UNL     1       1.887   7.502  19.063  0.00  0.00    +0.000 N 
ATOM     10  C   UNL     1       1.417   7.772  20.415  0.00  0.00    +0.000 C 
ATOM     11  C   UNL     1       1.072   9.238  20.361  0.00  0.00    +0.000 A 
ATOM     12  C   UNL     1       1.447   9.744  19.114  0.00  0.00    +0.000 A 
ATOM     13  C   UNL     1       1.347  11.077  18.765  0.00  0.00    +0.000 A 
ATOM     14  C   UNL     1       0.796  11.943  19.703  0.00  0.00    +0.000 A 
ATOM     15  C   UNL     1       0.369  11.456  20.950  0.00  0.00    +0.000 A 
ATOM     16  C   UNL     1       0.506  10.094  21.306  0.00  0.00    +0.000 A 
ATOM     17  C   UNL     1       1.962   8.651  18.289  0.00  0.00    +0.000 C 
ATOM     18  O   UNL     1       2.397   8.826  17.164  0.00  0.00    +0.000 OA
BRANCH  16  19
ATOM     19  C   UNL     1       0.032   9.650  22.666  0.00  0.00    +0.000 C 
ATOM     20  F   UNL     1      -0.620  10.618  23.363  0.00  0.00    +0.000 F 
ATOM     21  F   UNL     1      -0.823   8.594  22.598  0.00  0.00    +0.000 F 
ATOM     22  F   UNL     1       1.061   9.245  23.461  0.00  0.00    +0.000 F 
ENDBRANCH  16  19
ENDBRANCH   6   9
BRANCH   1  24
ATOM     23  C   UNL     1       1.302   2.559  21.767  0.00  0.00    +0.000 C 
ATOM     24  C   UNL     1       2.616   3.274  21.488  0.00  0.00    +0.000 C 
ENDBRANCH   1  24
BRANCH   4  25
ATOM     25  C   UNL     1       5.065   5.121  16.106  0.00  0.00    +0.000 C 
ATOM     26  C   UNL     1       5.668   3.729  15.873  0.00  0.00    +0.000 C 
BRANCH  25  27
ATOM     27  C   UNL     1       6.147   6.206  16.317  0.00  0.00    +0.000 C 
BRANCH  27  28
ATOM     28  C   UNL     1       7.017   5.999  17.518  0.00  0.00    +0.000 A 
ATOM     29  N   UNL     1       7.147   4.857  18.168  0.00  0.00    +0.000 NA
ATOM     30  N   UNL     1       7.935   5.067  19.269  0.00  0.00    +0.000 NA
ATOM     31  C   UNL     1       8.273   6.332  19.284  0.00  0.00    +0.000 A 
ATOM     32  N   UNL     1       7.741   6.953  18.190  0.00  0.00    +0.000 N 
ATOM     33  C   UNL     1       7.932   8.341  17.874  0.00  0.00    +0.000 C 
ENDBRANCH  27  28
ENDBRANCH  25  27
ENDBRANCH   4  25
TORSDOF 6
ENDMDL
MODEL 7
REMARK VINA RESULT:      -8.7      0.790      1.063
REMARK  Name = 
REMARK  9 active torsions:
REMARK  status: ('A' for Active; 'I' for Inactive)
REMARK    1  A    between atoms: C_1  and  C_2
REMARK    2  A    between atoms: C_2  and  N_3
REMARK    3  A    between atoms: C_6  and  C_7
REMARK    4  A    between atoms: C_7  and  C_8
REMARK    5  A    between atoms: C_7  and  C_9
REMARK    6  A    between atoms: C_9  and  C_10
REMARK    7  A    between atoms: N_14  and  C_15
REMARK    8  A    between atoms: C_17  and  N_18
REMARK    9  A    between atoms: C_25  and  C_26
REMARK                            x       y       z     vdW  Elec       q    Type
REMARK                         _______ _______ _______ _____ _____    ______ ____
ROOT
ATOM      1  N   UNL     1       2.378   3.315  17.942  0.00  0.00    +0.000 N 
ATOM      2  C   UNL     1       2.943   4.590  18.125  0.00  0.00    +0.000 A 
ATOM      3  C   UNL     1       4.332   4.698  17.990  0.00  0.00    +0.000 A 
ATOM      4  C   UNL     1       4.957   5.942  18.107  0.00  0.00    +0.000 A 
ATOM      5  C   UNL     1       4.125   7.038  18.348  0.00  0.00    +0.000 A 
ATOM      6  C   UNL     1       2.750   6.860  18.517  0.00  0.00    +0.000 A 
ATOM      7  N   UNL     1       2.154   5.659  18.357  0.00  0.00    +0.000 NA
ATOM      8  H   UNL     1       2.336   3.151  16.940  0.00  0.00    +0.000 HD
ENDROOT
BRANCH   6   9
ATOM      9  N   UNL     1       1.954   7.938  18.952  0.00  0.00    +0.000 N 
ATOM     10  C   UNL     1       1.494   8.074  20.327  0.00  0.00    +0.000 C 
ATOM     11  C   UNL     1       0.919   9.467  20.349  0.00  0.00    +0.000 A 
ATOM     12  C   UNL     1       1.166  10.075  19.116  0.00  0.00    +0.000 A 
ATOM     13  C   UNL     1       0.843  11.389  18.831  0.00  0.00    +0.000 A 
ATOM     14  C   UNL     1       0.194  12.117  19.822  0.00  0.00    +0.000 A 
ATOM     15  C   UNL     1      -0.107  11.518  21.057  0.00  0.00    +0.000 A 
ATOM     16  C   UNL     1       0.257  10.182  21.347  0.00  0.00    +0.000 A 
ATOM     17  C   UNL     1       1.819   9.113  18.229  0.00  0.00    +0.000 C 
ATOM     18  O   UNL     1       2.181   9.400  17.102  0.00  0.00    +0.000 OA
BRANCH  16  19
ATOM     19  C   UNL     1      -0.093   9.614  22.698  0.00  0.00    +0.000 C 
ATOM     20  F   UNL     1       0.988   9.276  23.449  0.00  0.00    +0.000 F 
ATOM     21  F   UNL     1      -0.819  10.483  23.453  0.00  0.00    +0.000 F 
ATOM     22  F   UNL     1      -0.850   8.486  22.600  0.00  0.00    +0.000 F 
ENDBRANCH  16  19
ENDBRANCH   6   9
BRANCH   1  24
ATOM     23  C   UNL     1       1.200   1.882  19.510  0.00  0.00    +0.000 C 
ATOM     24  C   UNL     1       1.096   3.097  18.600  0.00  0.00    +0.000 C 
ENDBRANCH   1  24
BRANCH   4  25
ATOM     25  C   UNL     1       6.475   6.122  18.067  0.00  0.00    +0.000 C 
ATOM     26  C   UNL     1       6.866   7.422  17.352  0.00  0.00    +0.000 C 
BRANCH  25  27
ATOM     27  C   UNL     1       7.143   4.877  17.437  0.00  0.00    +0.000 C 
BRANCH  27  28
ATOM     28  C   UNL     1       7.155   4.861  15.941  0.00  0.00    +0.000 A 
ATOM     29  N   UNL     1       7.878   5.666  15.183  0.00  0.00    +0.000 NA
ATOM     30  N   UNL     1       7.556   5.438  13.871  0.00  0.00    +0.000 NA
ATOM     31  C   UNL     1       6.639   4.504  13.840  0.00  0.00    +0.000 A 
ATOM     32  N   UNL     1       6.372   4.092  15.114  0.00  0.00    +0.000 N 
ATOM     33  C   UNL     1       5.433   3.059  15.452  0.00  0.00    +0.000 C 
ENDBRANCH  27  28
ENDBRANCH  25  27
ENDBRANCH   4  25
TORSDOF 6
ENDMDL
MODEL 8
REMARK VINA RESULT:      -8.6      1.191      1.718
REMARK  Name = 
REMARK  9 active torsions:
REMARK  status: ('A' for Active; 'I' for Inactive)
REMARK    1  A    between atoms: C_1  and  C_2
REMARK    2  A    between atoms: C_2  and  N_3
REMARK    3  A    between atoms: C_6  and  C_7
REMARK    4  A    between atoms: C_7  and  C_8
REMARK    5  A    between atoms: C_7  and  C_9
REMARK    6  A    between atoms: C_9  and  C_10
REMARK    7  A    between atoms: N_14  and  C_15
REMARK    8  A    between atoms: C_17  and  N_18
REMARK    9  A    between atoms: C_25  and  C_26
REMARK                            x       y       z     vdW  Elec       q    Type
REMARK                         _______ _______ _______ _____ _____    ______ ____
ROOT
ATOM      1  N   UNL     1       2.547   2.282  19.172  0.00  0.00    +0.000 N 
ATOM      2  C   UNL     1       3.089   3.479  18.669  0.00  0.00    +0.000 A 
ATOM      3  C   UNL     1       4.323   3.397  18.013  0.00  0.00    +0.000 A 
ATOM      4  C   UNL     1       4.896   4.537  17.445  0.00  0.00    +0.000 A 
ATOM      5  C   UNL     1       4.171   5.724  17.560  0.00  0.00    +0.000 A 
ATOM      6  C   UNL     1       2.966   5.753  18.265  0.00  0.00    +0.000 A 
ATOM      7  N   UNL     1       2.400   4.636  18.772  0.00  0.00    +0.000 NA
ATOM      8  H   UNL     1       2.142   1.787  18.381  0.00  0.00    +0.000 HD
ENDROOT
BRANCH   6   9
ATOM      9  N   UNL     1       2.346   6.987  18.542  0.00  0.00    +0.000 N 
ATOM     10  C   UNL     1       1.766   7.305  19.839  0.00  0.00    +0.000 C 
ATOM     11  C   UNL     1       1.470   8.778  19.718  0.00  0.00    +0.000 A 
ATOM     12  C   UNL     1       1.969   9.240  18.498  0.00  0.00    +0.000 A 
ATOM     13  C   UNL     1       1.939  10.566  18.109  0.00  0.00    +0.000 A 
ATOM     14  C   UNL     1       1.332  11.471  18.973  0.00  0.00    +0.000 A 
ATOM     15  C   UNL     1       0.781  11.029  20.188  0.00  0.00    +0.000 A 
ATOM     16  C   UNL     1       0.846   9.673  20.588  0.00  0.00    +0.000 A 
ATOM     17  C   UNL     1       2.524   8.112  17.750  0.00  0.00    +0.000 C 
ATOM     18  O   UNL     1       3.062   8.245  16.665  0.00  0.00    +0.000 OA
BRANCH  16  19
ATOM     19  C   UNL     1       0.240   9.280  21.909  0.00  0.00    +0.000 C 
ATOM     20  F   UNL     1      -0.479  10.270  22.502  0.00  0.00    +0.000 F 
ATOM     21  F   UNL     1      -0.604   8.218  21.797  0.00  0.00    +0.000 F 
ATOM     22  F   UNL     1       1.185   8.909  22.818  0.00  0.00    +0.000 F 
ENDBRANCH  16  19
ENDBRANCH   6   9
BRANCH   1  24
ATOM     23  C   UNL     1       2.390   2.666  21.565  0.00  0.00    +0.000 C 
ATOM     24  C   UNL     1       1.611   2.434  20.278  0.00  0.00    +0.000 C 
ENDBRANCH   1  24
BRANCH   4  25
ATOM     25  C   UNL     1       6.283   4.541  16.798  0.00  0.00    +0.000 C 
ATOM     26  C   UNL     1       7.370   4.928  17.809  0.00  0.00    +0.000 C 
BRANCH  25  27
ATOM     27  C   UNL     1       6.285   5.452  15.549  0.00  0.00    +0.000 C 
BRANCH  27  28
ATOM     28  C   UNL     1       6.270   4.724  14.241  0.00  0.00    +0.000 A 
ATOM     29  N   UNL     1       5.391   3.797  13.903  0.00  0.00    +0.000 NA
ATOM     30  N   UNL     1       5.748   3.279  12.686  0.00  0.00    +0.000 NA
ATOM     31  C   UNL     1       6.839   3.888  12.296  0.00  0.00    +0.000 A 
ATOM     32  N   UNL     1       7.192   4.822  13.227  0.00  0.00    +0.000 N 
ATOM     33  C   UNL     1       8.327   5.694  13.111  0.00  0.00    +0.000 C 
ENDBRANCH  27  28
ENDBRANCH  25  27
ENDBRANCH   4  25
TORSDOF 6
ENDMDL
MODEL 9
REMARK VINA RESULT:      -8.4      2.223      2.756
REMARK  Name = 
REMARK  9 active torsions:
REMARK  status: ('A' for Active; 'I' for Inactive)
REMARK    1  A    between atoms: C_1  and  C_2
REMARK    2  A    between atoms: C_2  and  N_3
REMARK    3  A    between atoms: C_6  and  C_7
REMARK    4  A    between atoms: C_7  and  C_8
REMARK    5  A    between atoms: C_7  and  C_9
REMARK    6  A    between atoms: C_9  and  C_10
REMARK    7  A    between atoms: N_14  and  C_15
REMARK    8  A    between atoms: C_17  and  N_18
REMARK    9  A    between atoms: C_25  and  C_26
REMARK                            x       y       z     vdW  Elec       q    Type
REMARK                         _______ _______ _______ _____ _____    ______ ____
ROOT
ATOM      1  N   UNL     1       1.852   3.116  18.476  0.00  0.00    +0.000 N 
ATOM      2  C   UNL     1       2.390   4.405  18.314  0.00  0.00    +0.000 A 
ATOM      3  C   UNL     1       3.489   4.537  17.456  0.00  0.00    +0.000 A 
ATOM      4  C   UNL     1       4.043   5.795  17.208  0.00  0.00    +0.000 A 
ATOM      5  C   UNL     1       3.436   6.880  17.843  0.00  0.00    +0.000 A 
ATOM      6  C   UNL     1       2.370   6.681  18.723  0.00  0.00    +0.000 A 
ATOM      7  N   UNL     1       1.815   5.465  18.920  0.00  0.00    +0.000 NA
ATOM      8  H   UNL     1       1.287   2.926  17.653  0.00  0.00    +0.000 HD
ENDROOT
BRANCH   6   9
ATOM      9  N   UNL     1       1.897   7.754  19.504  0.00  0.00    +0.000 N 
ATOM     10  C   UNL     1       1.519   9.039  18.932  0.00  0.00    +0.000 C 
ATOM     11  C   UNL     1       0.860   9.738  20.093  0.00  0.00    +0.000 A 
ATOM     12  C   UNL     1       0.778   8.849  21.167  0.00  0.00    +0.000 A 
ATOM     13  C   UNL     1       0.151   9.146  22.362  0.00  0.00    +0.000 A 
ATOM     14  C   UNL     1      -0.383  10.422  22.504  0.00  0.00    +0.000 A 
ATOM     15  C   UNL     1      -0.277  11.353  21.457  0.00  0.00    +0.000 A 
ATOM     16  C   UNL     1       0.341  11.026  20.227  0.00  0.00    +0.000 A 
ATOM     17  C   UNL     1       1.433   7.593  20.801  0.00  0.00    +0.000 C 
ATOM     18  O   UNL     1       1.469   6.630  21.545  0.00  0.00    +0.000 OA
BRANCH  16  19
ATOM     19  C   UNL     1       0.407  12.077  19.149  0.00  0.00    +0.000 C 
ATOM     20  F   UNL     1      -0.411  11.832  18.092  0.00  0.00    +0.000 F 
ATOM     21  F   UNL     1       0.069  13.313  19.608  0.00  0.00    +0.000 F 
ATOM     22  F   UNL     1       1.660  12.203  18.631  0.00  0.00    +0.000 F 
ENDBRANCH  16  19
ENDBRANCH   6   9
BRANCH   1  24
ATOM     23  C   UNL     1       2.122   2.615  20.837  0.00  0.00    +0.000 C 
ATOM     24  C   UNL     1       1.126   2.891  19.719  0.00  0.00    +0.000 C 
ENDBRANCH   1  24
BRANCH   4  25
ATOM     25  C   UNL     1       5.299   6.002  16.360  0.00  0.00    +0.000 C 
ATOM     26  C   UNL     1       5.099   7.118  15.327  0.00  0.00    +0.000 C 
BRANCH  25  27
ATOM     27  C   UNL     1       5.730   4.666  15.711  0.00  0.00    +0.000 C 
BRANCH  27  28
ATOM     28  C   UNL     1       6.692   4.803  14.572  0.00  0.00    +0.000 A 
ATOM     29  N   UNL     1       7.798   5.524  14.601  0.00  0.00    +0.000 NA
ATOM     30  N   UNL     1       8.368   5.501  13.355  0.00  0.00    +0.000 NA
ATOM     31  C   UNL     1       7.605   4.775  12.579  0.00  0.00    +0.000 A 
ATOM     32  N   UNL     1       6.553   4.293  13.304  0.00  0.00    +0.000 N 
ATOM     33  C   UNL     1       5.529   3.435  12.776  0.00  0.00    +0.000 C 
ENDBRANCH  27  28
ENDBRANCH  25  27
ENDBRANCH   4  25
TORSDOF 6
ENDMDL
