MODEL 1
REMARK VINA RESULT:      -8.5      0.000      0.000
REMARK  Name = 
REMARK  9 active torsions:
REMARK  status: ('A' for Active; 'I' for Inactive)
REMARK    1  A    between atoms: C_1  and  N_2
REMARK    2  A    between atoms: C_3  and  C_5
REMARK    3  A    between atoms: C_5  and  C_6
REMARK    4  A    between atoms: N_12  and  C_13
REMARK    5  A    between atoms: C_17  and  C_18
REMARK    6  A    between atoms: C_18  and  C_19
REMARK    7  A    between atoms: C_18  and  C_20
REMARK    8  A    between atoms: C_20  and  C_21
REMARK    9  A    between atoms: N_25  and  C_26
REMARK                            x       y       z     vdW  Elec       q    Type
REMARK                         _______ _______ _______ _____ _____    ______ ____
ROOT
ATOM      1  C   UNL     1       9.233  11.890  18.230  0.00  0.00    +0.000 C 
ATOM      2  C   UNL     1      10.457  11.955  17.303  0.00  0.00    +0.000 C 
ATOM      3  C   UNL     1       9.616  11.347  19.615  0.00  0.00    +0.000 C 
ATOM      4  C   UNL     1       9.592   9.837  19.435  0.00  0.00    +0.000 C 
ATOM      5  N   UNL     1       8.608   9.587  18.395  0.00  0.00    +0.000 N 
ATOM      6  C   UNL     1       8.106   8.310  18.234  0.00  0.00    +0.000 C 
ATOM      7  O   UNL     1       8.500   7.407  18.972  0.00  0.00    +0.000 OA
ATOM      8  N   UNL     1       7.191   8.144  17.211  0.00  0.00    +0.000 N 
ATOM      9  C   UNL     1       8.222  10.830  17.732  0.00  0.00    +0.000 C 
ATOM     10  H   UNL     1       7.167   8.861  16.505  0.00  0.00    +0.000 HD
ENDROOT
BRANCH   8  11
ATOM     11  C   UNL     1       6.495   6.936  16.916  0.00  0.00    +0.000 A 
ATOM     12  C   UNL     1       7.057   5.931  16.126  0.00  0.00    +0.000 A 
ATOM     13  C   UNL     1       6.348   4.767  15.829  0.00  0.00    +0.000 A 
ATOM     14  C   UNL     1       5.062   4.585  16.326  0.00  0.00    +0.000 A 
ATOM     15  C   UNL     1       4.465   5.559  17.140  0.00  0.00    +0.000 A 
ATOM     16  C   UNL     1       5.204   6.728  17.442  0.00  0.00    +0.000 A 
BRANCH  15  17
ATOM     17  C   UNL     1       3.055   5.338  17.697  0.00  0.00    +0.000 C 
ATOM     18  C   UNL     1       2.925   6.006  19.077  0.00  0.00    +0.000 C 
BRANCH  17  19
ATOM     19  C   UNL     1       2.679   3.833  17.767  0.00  0.00    +0.000 C 
BRANCH  19  20
ATOM     20  C   UNL     1       2.258   3.420  19.144  0.00  0.00    +0.000 A 
ATOM     21  N   UNL     1       1.062   3.604  19.670  0.00  0.00    +0.000 NA
ATOM     22  N   UNL     1       1.097   3.190  20.981  0.00  0.00    +0.000 NA
ATOM     23  C   UNL     1       2.307   2.748  21.224  0.00  0.00    +0.000 A 
ATOM     24  N   UNL     1       3.060   2.834  20.093  0.00  0.00    +0.000 N 
ATOM     25  C   UNL     1       4.420   2.387  19.964  0.00  0.00    +0.000 C 
ENDBRANCH  19  20
ENDBRANCH  17  19
ENDBRANCH  15  17
ENDBRANCH   8  11
BRANCH   1  28
ATOM     26  C   UNL     1       6.814  14.735  17.450  0.00  0.00    +0.000 C 
ATOM     27  N   UNL     1       7.510  13.472  17.471  0.00  0.00    +0.000 N 
ATOM     28  C   UNL     1       8.574  13.265  18.324  0.00  0.00    +0.000 C 
ATOM     29  O   UNL     1       8.951  14.128  19.118  0.00  0.00    +0.000 OA
ATOM     30  H   UNL     1       7.215  12.744  16.835  0.00  0.00    +0.000 HD
ENDBRANCH   1  28
TORSDOF 5
ENDMDL
MODEL 2
REMARK VINA RESULT:      -8.4      1.056      1.473
REMARK  Name = 
REMARK  9 active torsions:
REMARK  status: ('A' for Active; 'I' for Inactive)
REMARK    1  A    between atoms: C_1  and  N_2
REMARK    2  A    between atoms: C_3  and  C_5
REMARK    3  A    between atoms: C_5  and  C_6
REMARK    4  A    between atoms: N_12  and  C_13
REMARK    5  A    between atoms: C_17  and  C_18
REMARK    6  A    between atoms: C_18  and  C_19
REMARK    7  A    between atoms: C_18  and  C_20
REMARK    8  A    between atoms: C_20  and  C_21
REMARK    9  A    between atoms: N_25  and  C_26
REMARK                            x       y       z     vdW  Elec       q    Type
REMARK                         _______ _______ _______ _____ _____    ______ ____
ROOT
ATOM      1  C   UNL     1       9.230  11.612  18.094  0.00  0.00    +0.000 C 
ATOM      2  C   UNL     1      10.596  11.603  17.392  0.00  0.00    +0.000 C 
ATOM      3  C   UNL     1       9.359  11.189  19.565  0.00  0.00    +0.000 C 
ATOM      4  C   UNL     1       9.351   9.669  19.512  0.00  0.00    +0.000 C 
ATOM      5  N   UNL     1       8.559   9.328  18.340  0.00  0.00    +0.000 N 
ATOM      6  C   UNL     1       8.079   8.041  18.201  0.00  0.00    +0.000 C 
ATOM      7  O   UNL     1       8.329   7.205  19.070  0.00  0.00    +0.000 OA
ATOM      8  N   UNL     1       7.354   7.785  17.052  0.00  0.00    +0.000 N 
ATOM      9  C   UNL     1       8.308  10.509  17.518  0.00  0.00    +0.000 C 
ATOM     10  H   UNL     1       7.462   8.440  16.295  0.00  0.00    +0.000 HD
ENDROOT
BRANCH   8  11
ATOM     11  C   UNL     1       6.707   6.555  16.743  0.00  0.00    +0.000 A 
ATOM     12  C   UNL     1       7.323   5.566  15.971  0.00  0.00    +0.000 A 
ATOM     13  C   UNL     1       6.661   4.379  15.659  0.00  0.00    +0.000 A 
ATOM     14  C   UNL     1       5.369   4.156  16.122  0.00  0.00    +0.000 A 
ATOM     15  C   UNL     1       4.719   5.110  16.918  0.00  0.00    +0.000 A 
ATOM     16  C   UNL     1       5.411   6.304  17.236  0.00  0.00    +0.000 A 
BRANCH  15  17
ATOM     17  C   UNL     1       3.303   4.844  17.439  0.00  0.00    +0.000 C 
ATOM     18  C   UNL     1       3.037   5.691  18.695  0.00  0.00    +0.000 C 
BRANCH  17  19
ATOM     19  C   UNL     1       3.053   3.337  17.718  0.00  0.00    +0.000 C 
BRANCH  19  20
ATOM     20  C   UNL     1       3.433   2.951  19.114  0.00  0.00    +0.000 A 
ATOM     21  N   UNL     1       4.660   2.726  19.543  0.00  0.00    +0.000 NA
ATOM     22  N   UNL     1       4.591   2.293  20.847  0.00  0.00    +0.000 NA
ATOM     23  C   UNL     1       3.326   2.278  21.191  0.00  0.00    +0.000 A 
ATOM     24  N   UNL     1       2.565   2.721  20.154  0.00  0.00    +0.000 N 
ATOM     25  C   UNL     1       1.138   2.895  20.185  0.00  0.00    +0.000 C 
ENDBRANCH  19  20
ENDBRANCH  17  19
ENDBRANCH  15  17
ENDBRANCH   8  11
BRANCH   1  28
ATOM     26  C   UNL     1       8.751  15.375  18.494  0.00  0.00    +0.000 C 
ATOM     27  N   UNL     1       9.268  14.030  18.539  0.00  0.00    +0.000 N 
ATOM     28  C   UNL     1       8.579  12.987  17.956  0.00  0.00    +0.000 C 
ATOM     29  O   UNL     1       7.521  13.162  17.350  0.00  0.00    +0.000 OA
ATOM     30  H   UNL     1      10.139  13.861  19.023  0.00  0.00    +0.000 HD
ENDBRANCH   1  28
TORSDOF 5
ENDMDL
MODEL 3
REMARK VINA RESULT:      -8.1      0.724      1.069
REMARK  Name = 
REMARK  9 active torsions:
REMARK  status: ('A' for Active; 'I' for Inactive)
REMARK    1  A    between atoms: C_1  and  N_2
REMARK    2  A    between atoms: C_3  and  C_5
REMARK    3  A    between atoms: C_5  and  C_6
REMARK    4  A    between atoms: N_12  and  C_13
REMARK    5  A    between atoms: C_17  and  C_18
REMARK    6  A    between atoms: C_18  and  C_19
REMARK    7  A    between atoms: C_18  and  C_20
REMARK    8  A    between atoms: C_20  and  C_21
REMARK    9  A    between atoms: N_25  and  C_26
REMARK                            x       y       z     vdW  Elec       q    Type
REMARK                         _______ _______ _______ _____ _____    ______ ____
ROOT
ATOM      1  C   UNL     1       9.235  11.827  18.331  0.00  0.00    +0.000 C 
ATOM      2  C   UNL     1      10.510  11.914  17.478  0.00  0.00    +0.000 C 
ATOM      3  C   UNL     1       9.541  11.275  19.732  0.00  0.00    +0.000 C 
ATOM      4  C   UNL     1       9.547   9.767  19.538  0.00  0.00    +0.000 C 
ATOM      5  N   UNL     1       8.628   9.515  18.440  0.00  0.00    +0.000 N 
ATOM      6  C   UNL     1       8.151   8.235  18.238  0.00  0.00    +0.000 C 
ATOM      7  O   UNL     1       8.512   7.330  18.990  0.00  0.00    +0.000 OA
ATOM      8  N   UNL     1       7.300   8.067  17.161  0.00  0.00    +0.000 N 
ATOM      9  C   UNL     1       8.267  10.760  17.765  0.00  0.00    +0.000 C 
ATOM     10  H   UNL     1       7.310   8.791  16.461  0.00  0.00    +0.000 HD
ENDROOT
BRANCH   8  11
ATOM     11  C   UNL     1       6.637   6.855  16.816  0.00  0.00    +0.000 A 
ATOM     12  C   UNL     1       7.064   6.053  15.754  0.00  0.00    +0.000 A 
ATOM     13  C   UNL     1       6.385   4.883  15.418  0.00  0.00    +0.000 A 
ATOM     14  C   UNL     1       5.266   4.489  16.144  0.00  0.00    +0.000 A 
ATOM     15  C   UNL     1       4.814   5.252  17.231  0.00  0.00    +0.000 A 
ATOM     16  C   UNL     1       5.523   6.430  17.567  0.00  0.00    +0.000 A 
BRANCH  15  17
ATOM     17  C   UNL     1       3.593   4.797  18.036  0.00  0.00    +0.000 C 
ATOM     18  C   UNL     1       3.106   5.939  18.944  0.00  0.00    +0.000 C 
BRANCH  17  19
ATOM     19  C   UNL     1       3.877   3.511  18.859  0.00  0.00    +0.000 C 
BRANCH  19  20
ATOM     20  C   UNL     1       2.898   3.329  19.978  0.00  0.00    +0.000 A 
ATOM     21  N   UNL     1       3.135   3.567  21.254  0.00  0.00    +0.000 NA
ATOM     22  N   UNL     1       2.032   3.180  21.979  0.00  0.00    +0.000 NA
ATOM     23  C   UNL     1       1.140   2.730  21.131  0.00  0.00    +0.000 A 
ATOM     24  N   UNL     1       1.619   2.841  19.862  0.00  0.00    +0.000 N 
ATOM     25  C   UNL     1       0.895   2.500  18.667  0.00  0.00    +0.000 C 
ENDBRANCH  19  20
ENDBRANCH  17  19
ENDBRANCH  15  17
ENDBRANCH   8  11
BRANCH   1  28
ATOM     26  C   UNL     1       6.863  14.668  17.406  0.00  0.00    +0.000 C 
ATOM     27  N   UNL     1       7.568  13.411  17.460  0.00  0.00    +0.000 N 
ATOM     28  C   UNL     1       8.556  13.193  18.398  0.00  0.00    +0.000 C 
ATOM     29  O   UNL     1       8.853  14.041  19.241  0.00  0.00    +0.000 OA
ATOM     30  H   UNL     1       7.337  12.696  16.784  0.00  0.00    +0.000 HD
ENDBRANCH   1  28
TORSDOF 5
ENDMDL
MODEL 4
REMARK VINA RESULT:      -7.9      1.550      2.300
REMARK  Name = 
REMARK  9 active torsions:
REMARK  status: ('A' for Active; 'I' for Inactive)
REMARK    1  A    between atoms: C_1  and  N_2
REMARK    2  A    between atoms: C_3  and  C_5
REMARK    3  A    between atoms: C_5  and  C_6
REMARK    4  A    between atoms: N_12  and  C_13
REMARK    5  A    between atoms: C_17  and  C_18
REMARK    6  A    between atoms: C_18  and  C_19
REMARK    7  A    between atoms: C_18  and  C_20
REMARK    8  A    between atoms: C_20  and  C_21
REMARK    9  A    between atoms: N_25  and  C_26
REMARK                            x       y       z     vdW  Elec       q    Type
REMARK                         _______ _______ _______ _____ _____    ______ ____
ROOT
ATOM      1  C   UNL     1       9.073  11.515  18.176  0.00  0.00    +0.000 C 
ATOM      2  C   UNL     1      10.415  11.591  17.432  0.00  0.00    +0.000 C 
ATOM      3  C   UNL     1       9.267  11.047  19.626  0.00  0.00    +0.000 C 
ATOM      4  C   UNL     1       9.323   9.531  19.517  0.00  0.00    +0.000 C 
ATOM      5  N   UNL     1       8.510   9.197  18.359  0.00  0.00    +0.000 N 
ATOM      6  C   UNL     1       8.081   7.895  18.187  0.00  0.00    +0.000 C 
ATOM      7  O   UNL     1       8.394   7.041  19.017  0.00  0.00    +0.000 OA
ATOM      8  N   UNL     1       7.331   7.648  17.052  0.00  0.00    +0.000 N 
ATOM      9  C   UNL     1       8.182  10.394  17.588  0.00  0.00    +0.000 C 
ATOM     10  H   UNL     1       7.386   8.334  16.317  0.00  0.00    +0.000 HD
ENDROOT
BRANCH   8  11
ATOM     11  C   UNL     1       6.728   6.402  16.719  0.00  0.00    +0.000 A 
ATOM     12  C   UNL     1       7.158   5.638  15.631  0.00  0.00    +0.000 A 
ATOM     13  C   UNL     1       6.536   4.432  15.307  0.00  0.00    +0.000 A 
ATOM     14  C   UNL     1       5.474   3.965  16.073  0.00  0.00    +0.000 A 
ATOM     15  C   UNL     1       5.021   4.688  17.186  0.00  0.00    +0.000 A 
ATOM     16  C   UNL     1       5.672   5.903  17.508  0.00  0.00    +0.000 A 
BRANCH  15  17
ATOM     17  C   UNL     1       3.863   4.153  18.034  0.00  0.00    +0.000 C 
ATOM     18  C   UNL     1       3.637   2.661  17.732  0.00  0.00    +0.000 C 
BRANCH  17  19
ATOM     19  C   UNL     1       2.558   4.969  17.829  0.00  0.00    +0.000 C 
BRANCH  19  20
ATOM     20  C   UNL     1       2.284   5.891  18.977  0.00  0.00    +0.000 A 
ATOM     21  N   UNL     1       1.896   5.524  20.183  0.00  0.00    +0.000 NA
ATOM     22  N   UNL     1       1.645   6.657  20.921  0.00  0.00    +0.000 NA
ATOM     23  C   UNL     1       1.900   7.691  20.157  0.00  0.00    +0.000 A 
ATOM     24  N   UNL     1       2.342   7.264  18.943  0.00  0.00    +0.000 N 
ATOM     25  C   UNL     1       2.773   8.115  17.868  0.00  0.00    +0.000 C 
ENDBRANCH  19  20
ENDBRANCH  17  19
ENDBRANCH  15  17
ENDBRANCH   8  11
BRANCH   1  28
ATOM     26  C   UNL     1       8.006  15.029  19.208  0.00  0.00    +0.000 C 
ATOM     27  N   UNL     1       8.629  13.731  19.146  0.00  0.00    +0.000 N 
ATOM     28  C   UNL     1       8.360  12.864  18.108  0.00  0.00    +0.000 C 
ATOM     29  O   UNL     1       7.608  13.171  17.181  0.00  0.00    +0.000 OA
ATOM     30  H   UNL     1       9.257  13.458  19.890  0.00  0.00    +0.000 HD
ENDBRANCH   1  28
TORSDOF 5
ENDMDL
MODEL 5
REMARK VINA RESULT:      -7.9      5.951      8.890
REMARK  Name = 
REMARK  9 active torsions:
REMARK  status: ('A' for Active; 'I' for Inactive)
REMARK    1  A    between atoms: C_1  and  N_2
REMARK    2  A    between atoms: C_3  and  C_5
REMARK    3  A    between atoms: C_5  and  C_6
REMARK    4  A    between atoms: N_12  and  C_13
REMARK    5  A    between atoms: C_17  and  C_18
REMARK    6  A    between atoms: C_18  and  C_19
REMARK    7  A    between atoms: C_18  and  C_20
REMARK    8  A    between atoms: C_20  and  C_21
REMARK    9  A    between atoms: N_25  and  C_26
REMARK                            x       y       z     vdW  Elec       q    Type
REMARK                         _______ _______ _______ _____ _____    ______ ____
ROOT
ATOM      1  C   UNL     1       3.970   4.907  17.890  0.00  0.00    +0.000 C 
ATOM      2  C   UNL     1       2.886   3.991  17.301  0.00  0.00    +0.000 C 
ATOM      3  C   UNL     1       4.029   4.783  19.419  0.00  0.00    +0.000 C 
ATOM      4  C   UNL     1       2.935   5.722  19.906  0.00  0.00    +0.000 C 
ATOM      5  N   UNL     1       2.841   6.762  18.894  0.00  0.00    +0.000 N 
ATOM      6  C   UNL     1       2.186   7.940  19.197  0.00  0.00    +0.000 C 
ATOM      7  O   UNL     1       1.694   8.088  20.315  0.00  0.00    +0.000 OA
ATOM      8  N   UNL     1       2.118   8.874  18.180  0.00  0.00    +0.000 N 
ATOM      9  C   UNL     1       3.595   6.397  17.698  0.00  0.00    +0.000 C 
ATOM     10  H   UNL     1       2.289   8.537  17.246  0.00  0.00    +0.000 HD
ENDROOT
BRANCH   8  11
ATOM     11  C   UNL     1       1.558  10.178  18.295  0.00  0.00    +0.000 A 
ATOM     12  C   UNL     1       2.347  11.330  18.251  0.00  0.00    +0.000 A 
ATOM     13  C   UNL     1       1.780  12.597  18.392  0.00  0.00    +0.000 A 
ATOM     14  C   UNL     1       0.408  12.734  18.572  0.00  0.00    +0.000 A 
ATOM     15  C   UNL     1      -0.426  11.606  18.601  0.00  0.00    +0.000 A 
ATOM     16  C   UNL     1       0.164  10.329  18.444  0.00  0.00    +0.000 A 
BRANCH  15  17
ATOM     17  C   UNL     1      -1.938  11.771  18.780  0.00  0.00    +0.000 C 
ATOM     18  C   UNL     1      -2.252  12.230  20.214  0.00  0.00    +0.000 C 
BRANCH  17  19
ATOM     19  C   UNL     1      -2.717  10.475  18.424  0.00  0.00    +0.000 C 
BRANCH  19  20
ATOM     20  C   UNL     1      -3.054  10.401  16.967  0.00  0.00    +0.000 A 
ATOM     21  N   UNL     1      -2.387   9.717  16.057  0.00  0.00    +0.000 NA
ATOM     22  N   UNL     1      -2.936   9.985  14.825  0.00  0.00    +0.000 NA
ATOM     23  C   UNL     1      -3.935  10.813  15.009  0.00  0.00    +0.000 A 
ATOM     24  N   UNL     1      -4.075  11.072  16.337  0.00  0.00    +0.000 N 
ATOM     25  C   UNL     1      -5.102  11.892  16.922  0.00  0.00    +0.000 C 
ENDBRANCH  19  20
ENDBRANCH  17  19
ENDBRANCH  15  17
ENDBRANCH   8  11
BRANCH   1  28
ATOM     26  C   UNL     1       6.535   4.280  15.137  0.00  0.00    +0.000 C 
ATOM     27  N   UNL     1       5.327   4.574  15.866  0.00  0.00    +0.000 N 
ATOM     28  C   UNL     1       5.320   4.602  17.245  0.00  0.00    +0.000 C 
ATOM     29  O   UNL     1       6.342   4.410  17.906  0.00  0.00    +0.000 OA
ATOM     30  H   UNL     1       4.476   4.744  15.346  0.00  0.00    +0.000 HD
ENDBRANCH   1  28
TORSDOF 5
ENDMDL
MODEL 6
REMARK VINA RESULT:      -7.9      1.231      1.665
REMARK  Name = 
REMARK  9 active torsions:
REMARK  status: ('A' for Active; 'I' for Inactive)
REMARK    1  A    between atoms: C_1  and  N_2
REMARK    2  A    between atoms: C_3  and  C_5
REMARK    3  A    between atoms: C_5  and  C_6
REMARK    4  A    between atoms: N_12  and  C_13
REMARK    5  A    between atoms: C_17  and  C_18
REMARK    6  A    between atoms: C_18  and  C_19
REMARK    7  A    between atoms: C_18  and  C_20
REMARK    8  A    between atoms: C_20  and  C_21
REMARK    9  A    between atoms: N_25  and  C_26
REMARK                            x       y       z     vdW  Elec       q    Type
REMARK                         _______ _______ _______ _____ _____    ______ ____
ROOT
ATOM      1  C   UNL     1       9.082  11.548  18.087  0.00  0.00    +0.000 C 
ATOM      2  C   UNL     1      10.493  11.602  17.482  0.00  0.00    +0.000 C 
ATOM      3  C   UNL     1       9.129  11.141  19.568  0.00  0.00    +0.000 C 
ATOM      4  C   UNL     1       9.198   9.622  19.527  0.00  0.00    +0.000 C 
ATOM      5  N   UNL     1       8.508   9.237  18.308  0.00  0.00    +0.000 N 
ATOM      6  C   UNL     1       8.101   7.926  18.147  0.00  0.00    +0.000 C 
ATOM      7  O   UNL     1       8.330   7.109  19.039  0.00  0.00    +0.000 OA
ATOM      8  N   UNL     1       7.471   7.628  16.953  0.00  0.00    +0.000 N 
ATOM      9  C   UNL     1       8.258  10.399  17.459  0.00  0.00    +0.000 C 
ATOM     10  H   UNL     1       7.600   8.284  16.200  0.00  0.00    +0.000 HD
ENDROOT
BRANCH   8  11
ATOM     11  C   UNL     1       6.908   6.366  16.612  0.00  0.00    +0.000 A 
ATOM     12  C   UNL     1       7.300   5.664  15.469  0.00  0.00    +0.000 A 
ATOM     13  C   UNL     1       6.717   4.440  15.140  0.00  0.00    +0.000 A 
ATOM     14  C   UNL     1       5.732   3.892  15.955  0.00  0.00    +0.000 A 
ATOM     15  C   UNL     1       5.322   4.552  17.123  0.00  0.00    +0.000 A 
ATOM     16  C   UNL     1       5.934   5.786  17.449  0.00  0.00    +0.000 A 
BRANCH  15  17
ATOM     17  C   UNL     1       4.250   3.929  18.024  0.00  0.00    +0.000 C 
ATOM     18  C   UNL     1       2.894   3.921  17.299  0.00  0.00    +0.000 C 
BRANCH  17  19
ATOM     19  C   UNL     1       4.147   4.646  19.397  0.00  0.00    +0.000 C 
BRANCH  19  20
ATOM     20  C   UNL     1       3.246   3.917  20.347  0.00  0.00    +0.000 A 
ATOM     21  N   UNL     1       3.401   2.671  20.751  0.00  0.00    +0.000 NA
ATOM     22  N   UNL     1       2.319   2.330  21.529  0.00  0.00    +0.000 NA
ATOM     23  C   UNL     1       1.536   3.379  21.597  0.00  0.00    +0.000 A 
ATOM     24  N   UNL     1       2.093   4.411  20.907  0.00  0.00    +0.000 N 
ATOM     25  C   UNL     1       1.546   5.737  20.809  0.00  0.00    +0.000 C 
ENDBRANCH  19  20
ENDBRANCH  17  19
ENDBRANCH  15  17
ENDBRANCH   8  11
BRANCH   1  28
ATOM     26  C   UNL     1       8.274  15.245  18.572  0.00  0.00    +0.000 C 
ATOM     27  N   UNL     1       8.865  13.932  18.651  0.00  0.00    +0.000 N 
ATOM     28  C   UNL     1       8.377  12.889  17.892  0.00  0.00    +0.000 C 
ATOM     29  O   UNL     1       7.447  13.040  17.098  0.00  0.00    +0.000 OA
ATOM     30  H   UNL     1       9.635  13.785  19.289  0.00  0.00    +0.000 HD
ENDBRANCH   1  28
TORSDOF 5
ENDMDL
MODEL 7
REMARK VINA RESULT:      -7.8      6.370      8.994
REMARK  Name = 
REMARK  9 active torsions:
REMARK  status: ('A' for Active; 'I' for Inactive)
REMARK    1  A    between atoms: C_1  and  N_2
REMARK    2  A    between atoms: C_3  and  C_5
REMARK    3  A    between atoms: C_5  and  C_6
REMARK    4  A    between atoms: N_12  and  C_13
REMARK    5  A    between atoms: C_17  and  C_18
REMARK    6  A    between atoms: C_18  and  C_19
REMARK    7  A    between atoms: C_18  and  C_20
REMARK    8  A    between atoms: C_20  and  C_21
REMARK    9  A    between atoms: N_25  and  C_26
REMARK                            x       y       z     vdW  Elec       q    Type
REMARK                         _______ _______ _______ _____ _____    ______ ____
ROOT
ATOM      1  C   UNL     1       4.622   4.865  17.532  0.00  0.00    +0.000 C 
ATOM      2  C   UNL     1       3.665   3.765  17.049  0.00  0.00    +0.000 C 
ATOM      3  C   UNL     1       4.855   4.771  19.048  0.00  0.00    +0.000 C 
ATOM      4  C   UNL     1       3.665   5.505  19.647  0.00  0.00    +0.000 C 
ATOM      5  N   UNL     1       3.288   6.501  18.657  0.00  0.00    +0.000 N 
ATOM      6  C   UNL     1       2.468   7.548  19.032  0.00  0.00    +0.000 C 
ATOM      7  O   UNL     1       2.071   7.619  20.195  0.00  0.00    +0.000 OA
ATOM      8  N   UNL     1       2.133   8.443  18.033  0.00  0.00    +0.000 N 
ATOM      9  C   UNL     1       3.971   6.262  17.389  0.00  0.00    +0.000 C 
ATOM     10  H   UNL     1       2.267   8.132  17.084  0.00  0.00    +0.000 HD
ENDROOT
BRANCH   8  11
ATOM     11  C   UNL     1       1.364   9.628  18.212  0.00  0.00    +0.000 A 
ATOM     12  C   UNL     1       1.961  10.874  18.423  0.00  0.00    +0.000 A 
ATOM     13  C   UNL     1       1.188  12.018  18.622  0.00  0.00    +0.000 A 
ATOM     14  C   UNL     1      -0.200  11.936  18.606  0.00  0.00    +0.000 A 
ATOM     15  C   UNL     1      -0.843  10.710  18.378  0.00  0.00    +0.000 A 
ATOM     16  C   UNL     1      -0.043   9.562  18.165  0.00  0.00    +0.000 A 
BRANCH  15  17
ATOM     17  C   UNL     1      -2.372  10.637  18.342  0.00  0.00    +0.000 C 
ATOM     18  C   UNL     1      -2.832   9.828  17.118  0.00  0.00    +0.000 C 
BRANCH  17  19
ATOM     19  C   UNL     1      -3.029  12.044  18.362  0.00  0.00    +0.000 C 
BRANCH  19  20
ATOM     20  C   UNL     1      -4.109  12.148  19.394  0.00  0.00    +0.000 A 
ATOM     21  N   UNL     1      -3.936  12.487  20.657  0.00  0.00    +0.000 NA
ATOM     22  N   UNL     1      -5.142  12.365  21.308  0.00  0.00    +0.000 NA
ATOM     23  C   UNL     1      -6.028  11.969  20.427  0.00  0.00    +0.000 A 
ATOM     24  N   UNL     1      -5.439  11.859  19.205  0.00  0.00    +0.000 N 
ATOM     25  C   UNL     1      -6.114  11.505  17.985  0.00  0.00    +0.000 C 
ENDBRANCH  19  20
ENDBRANCH  17  19
ENDBRANCH  15  17
ENDBRANCH   8  11
BRANCH   1  28
ATOM     26  C   UNL     1       6.996   4.978  14.548  0.00  0.00    +0.000 C 
ATOM     27  N   UNL     1       5.832   5.031  15.398  0.00  0.00    +0.000 N 
ATOM     28  C   UNL     1       5.934   4.797  16.753  0.00  0.00    +0.000 C 
ATOM     29  O   UNL     1       7.016   4.567  17.296  0.00  0.00    +0.000 OA
ATOM     30  H   UNL     1       4.934   5.226  14.978  0.00  0.00    +0.000 HD
ENDBRANCH   1  28
TORSDOF 5
ENDMDL
MODEL 8
REMARK VINA RESULT:      -7.8      5.786      9.040
REMARK  Name = 
REMARK  9 active torsions:
REMARK  status: ('A' for Active; 'I' for Inactive)
REMARK    1  A    between atoms: C_1  and  N_2
REMARK    2  A    between atoms: C_3  and  C_5
REMARK    3  A    between atoms: C_5  and  C_6
REMARK    4  A    between atoms: N_12  and  C_13
REMARK    5  A    between atoms: C_17  and  C_18
REMARK    6  A    between atoms: C_18  and  C_19
REMARK    7  A    between atoms: C_18  and  C_20
REMARK    8  A    between atoms: C_20  and  C_21
REMARK    9  A    between atoms: N_25  and  C_26
REMARK                            x       y       z     vdW  Elec       q    Type
REMARK                         _______ _______ _______ _____ _____    ______ ____
ROOT
ATOM      1  C   UNL     1       4.500   4.324  17.951  0.00  0.00    +0.000 C 
ATOM      2  C   UNL     1       3.615   3.649  16.891  0.00  0.00    +0.000 C 
ATOM      3  C   UNL     1       4.461   3.553  19.279  0.00  0.00    +0.000 C 
ATOM      4  C   UNL     1       3.204   4.067  19.964  0.00  0.00    +0.000 C 
ATOM      5  N   UNL     1       3.032   5.428  19.482  0.00  0.00    +0.000 N 
ATOM      6  C   UNL     1       2.185   6.283  20.162  0.00  0.00    +0.000 C 
ATOM      7  O   UNL     1       1.593   5.877  21.162  0.00  0.00    +0.000 OA
ATOM      8  N   UNL     1       2.054   7.554  19.634  0.00  0.00    +0.000 N 
ATOM      9  C   UNL     1       3.920   5.700  18.356  0.00  0.00    +0.000 C 
ATOM     10  H   UNL     1       2.345   7.677  18.678  0.00  0.00    +0.000 HD
ENDROOT
BRANCH   8  11
ATOM     11  C   UNL     1       1.297   8.612  20.212  0.00  0.00    +0.000 A 
ATOM     12  C   UNL     1       1.025   8.667  21.582  0.00  0.00    +0.000 A 
ATOM     13  C   UNL     1       0.259   9.700  22.122  0.00  0.00    +0.000 A 
ATOM     14  C   UNL     1      -0.243  10.703  21.301  0.00  0.00    +0.000 A 
ATOM     15  C   UNL     1       0.022  10.700  19.923  0.00  0.00    +0.000 A 
ATOM     16  C   UNL     1       0.812   9.651  19.393  0.00  0.00    +0.000 A 
BRANCH  15  17
ATOM     17  C   UNL     1      -0.520  11.822  19.032  0.00  0.00    +0.000 C 
ATOM     18  C   UNL     1       0.286  13.111  19.261  0.00  0.00    +0.000 C 
BRANCH  17  19
ATOM     19  C   UNL     1      -2.038  12.065  19.251  0.00  0.00    +0.000 C 
BRANCH  19  20
ATOM     20  C   UNL     1      -2.853  11.646  18.066  0.00  0.00    +0.000 A 
ATOM     21  N   UNL     1      -2.373  11.259  16.900  0.00  0.00    +0.000 NA
ATOM     22  N   UNL     1      -3.428  11.060  16.041  0.00  0.00    +0.000 NA
ATOM     23  C   UNL     1      -4.530  11.315  16.703  0.00  0.00    +0.000 A 
ATOM     24  N   UNL     1      -4.225  11.646  17.987  0.00  0.00    +0.000 N 
ATOM     25  C   UNL     1      -5.181  11.932  19.022  0.00  0.00    +0.000 C 
ENDBRANCH  19  20
ENDBRANCH  17  19
ENDBRANCH  15  17
ENDBRANCH   8  11
BRANCH   1  28
ATOM     26  C   UNL     1       7.330   4.834  15.444  0.00  0.00    +0.000 C 
ATOM     27  N   UNL     1       6.038   4.695  16.067  0.00  0.00    +0.000 N 
ATOM     28  C   UNL     1       5.926   4.471  17.424  0.00  0.00    +0.000 C 
ATOM     29  O   UNL     1       6.913   4.412  18.158  0.00  0.00    +0.000 OA
ATOM     30  H   UNL     1       5.211   4.748  15.488  0.00  0.00    +0.000 HD
ENDBRANCH   1  28
TORSDOF 5
ENDMDL
MODEL 9
REMARK VINA RESULT:      -7.8      6.481      9.692
REMARK  Name = 
REMARK  9 active torsions:
REMARK  status: ('A' for Active; 'I' for Inactive)
REMARK    1  A    between atoms: C_1  and  N_2
REMARK    2  A    between atoms: C_3  and  C_5
REMARK    3  A    between atoms: C_5  and  C_6
REMARK    4  A    between atoms: N_12  and  C_13
REMARK    5  A    between atoms: C_17  and  C_18
REMARK    6  A    between atoms: C_18  and  C_19
REMARK    7  A    between atoms: C_18  and  C_20
REMARK    8  A    between atoms: C_20  and  C_21
REMARK    9  A    between atoms: N_25  and  C_26
REMARK                            x       y       z     vdW  Elec       q    Type
REMARK                         _______ _______ _______ _____ _____    ______ ____
ROOT
ATOM      1  C   UNL     1       4.742   5.009  18.579  0.00  0.00    +0.000 C 
ATOM      2  C   UNL     1       6.051   5.481  19.229  0.00  0.00    +0.000 C 
ATOM      3  C   UNL     1       4.751   5.263  17.064  0.00  0.00    +0.000 C 
ATOM      4  C   UNL     1       4.321   6.717  16.935  0.00  0.00    +0.000 C 
ATOM      5  N   UNL     1       3.465   6.970  18.082  0.00  0.00    +0.000 N 
ATOM      6  C   UNL     1       2.646   8.082  18.081  0.00  0.00    +0.000 C 
ATOM      7  O   UNL     1       2.656   8.839  17.110  0.00  0.00    +0.000 OA
ATOM      8  N   UNL     1       1.877   8.270  19.215  0.00  0.00    +0.000 N 
ATOM      9  C   UNL     1       3.550   5.878  19.048  0.00  0.00    +0.000 C 
ATOM     10  H   UNL     1       2.162   7.770  20.041  0.00  0.00    +0.000 HD
ENDROOT
BRANCH   8  11
ATOM     11  C   UNL     1       0.914   9.304  19.395  0.00  0.00    +0.000 A 
ATOM     12  C   UNL     1       0.256   9.900  18.317  0.00  0.00    +0.000 A 
ATOM     13  C   UNL     1      -0.666  10.928  18.515  0.00  0.00    +0.000 A 
ATOM     14  C   UNL     1      -0.950  11.375  19.801  0.00  0.00    +0.000 A 
ATOM     15  C   UNL     1      -0.329  10.792  20.915  0.00  0.00    +0.000 A 
ATOM     16  C   UNL     1       0.594   9.740  20.697  0.00  0.00    +0.000 A 
BRANCH  15  17
ATOM     17  C   UNL     1      -0.666  11.278  22.328  0.00  0.00    +0.000 C 
ATOM     18  C   UNL     1      -0.786  10.079  23.283  0.00  0.00    +0.000 C 
BRANCH  17  19
ATOM     19  C   UNL     1      -1.952  12.148  22.359  0.00  0.00    +0.000 C 
BRANCH  19  20
ATOM     20  C   UNL     1      -1.698  13.510  22.929  0.00  0.00    +0.000 A 
ATOM     21  N   UNL     1      -0.662  13.852  23.670  0.00  0.00    +0.000 NA
ATOM     22  N   UNL     1      -0.839  15.151  24.089  0.00  0.00    +0.000 NA
ATOM     23  C   UNL     1      -1.970  15.579  23.582  0.00  0.00    +0.000 A 
ATOM     24  N   UNL     1      -2.525  14.601  22.815  0.00  0.00    +0.000 N 
ATOM     25  C   UNL     1      -3.739  14.729  22.054  0.00  0.00    +0.000 C 
ENDBRANCH  19  20
ENDBRANCH  17  19
ENDBRANCH  15  17
ENDBRANCH   8  11
BRANCH   1  28
ATOM     26  C   UNL     1       3.164   1.540  18.394  0.00  0.00    +0.000 C 
ATOM     27  N   UNL     1       3.503   2.924  18.171  0.00  0.00    +0.000 N 
ATOM     28  C   UNL     1       4.498   3.536  18.903  0.00  0.00    +0.000 C 
ATOM     29  O   UNL     1       5.155   2.926  19.748  0.00  0.00    +0.000 OA
ATOM     30  H   UNL     1       2.985   3.444  17.476  0.00  0.00    +0.000 HD
ENDBRANCH   1  28
TORSDOF 5
ENDMDL
