MODEL 1
REMARK VINA RESULT:      -8.8      0.000      0.000
REMARK  Name = 
REMARK  10 active torsions:
REMARK  status: ('A' for Active; 'I' for Inactive)
REMARK    1  A    between atoms: C_1  and  C_2
REMARK    2  A    between atoms: C_2  and  S_3
REMARK    3  A    between atoms: C_2  and  C_10
REMARK    4  A    between atoms: S_3  and  C_4
REMARK    5  A    between atoms: N_8  and  C_9
REMARK    6  A    between atoms: C_14  and  N_15
REMARK    7  A    between atoms: C_16  and  C_18
REMARK    8  A    between atoms: C_22  and  O_23
REMARK    9  A    between atoms: O_23  and  C_24
REMARK   10  A    between atoms: C_24  and  C_25
REMARK                            x       y       z     vdW  Elec       q    Type
REMARK                         _______ _______ _______ _____ _____    ______ ____
ROOT
ATOM      1  N   UNL     1       1.540   8.221  20.868  0.00  0.00    +0.000 N 
ATOM      2  C   UNL     1       1.811   8.162  19.510  0.00  0.00    +0.000 C 
ATOM      3  O   UNL     1       1.456   8.976  18.657  0.00  0.00    +0.000 OA
ATOM      4  H   UNL     1       1.965   7.502  21.445  0.00  0.00    +0.000 HD
ENDROOT
BRANCH   2   5
ATOM      5  C   UNL     1       2.571   6.981  19.016  0.00  0.00    +0.000 A 
ATOM      6  C   UNL     1       3.508   7.242  18.026  0.00  0.00    +0.000 A 
ATOM      7  C   UNL     1       4.154   6.178  17.420  0.00  0.00    +0.000 A 
ATOM      8  C   UNL     1       4.877   6.399  16.245  0.00  0.00    +0.000 A 
ATOM      9  C   UNL     1       5.513   5.342  15.604  0.00  0.00    +0.000 A 
ATOM     10  C   UNL     1       5.534   4.091  16.221  0.00  0.00    +0.000 A 
ATOM     11  C   UNL     1       4.803   3.860  17.394  0.00  0.00    +0.000 A 
ATOM     12  C   UNL     1       4.023   4.892  17.957  0.00  0.00    +0.000 A 
ATOM     13  C   UNL     1       3.086   4.741  18.999  0.00  0.00    +0.000 A 
ATOM     14  N   UNL     1       2.304   5.740  19.499  0.00  0.00    +0.000 NA
BRANCH   9  15
ATOM     15  O   UNL     1       6.118   5.417  14.380  0.00  0.00    +0.000 OA
BRANCH  15  16
ATOM     16  C   UNL     1       6.859   4.263  13.965  0.00  0.00    +0.000 C 
BRANCH  16  17
ATOM     17  C   UNL     1       6.055   3.595  12.925  0.00  0.00    +0.000 A 
ATOM     18  C   UNL     1       4.782   3.831  12.454  0.00  0.00    +0.000 A 
ATOM     19  C   UNL     1       4.593   2.885  11.437  0.00  0.00    +0.000 A 
ATOM     20  N   UNL     1       5.648   2.084  11.290  0.00  0.00    +0.000 NA
ATOM     21  N   UNL     1       6.527   2.544  12.195  0.00  0.00    +0.000 N 
ATOM     22  H   UNL     1       7.446   2.101  12.247  0.00  0.00    +0.000 HD
ENDBRANCH  16  17
ENDBRANCH  15  16
ENDBRANCH   9  15
ENDBRANCH   2   5
BRANCH   1  27
ATOM     23  C   UNL     1       0.159  11.638  21.520  0.00  0.00    +0.000 A 
ATOM     24  C   UNL     1      -0.737  11.346  22.562  0.00  0.00    +0.000 A 
ATOM     25  C   UNL     1      -0.806  10.076  23.105  0.00  0.00    +0.000 A 
ATOM     26  C   UNL     1      -0.018   9.051  22.591  0.00  0.00    +0.000 A 
ATOM     27  C   UNL     1       0.833   9.275  21.506  0.00  0.00    +0.000 A 
ATOM     28  C   UNL     1       0.954  10.581  21.009  0.00  0.00    +0.000 A 
BRANCH  23  30
ATOM     29  C   UNL     1      -1.074  13.579  20.387  0.00  0.00    +0.000 C 
ATOM     30  C   UNL     1       0.266  13.047  20.921  0.00  0.00    +0.000 C 
BRANCH  30  31
ATOM     31  S   UNL     1       1.551  13.031  19.600  0.00  0.00    +0.000 S 
BRANCH  31  32
ATOM     32  C   UNL     1       2.899  13.837  20.315  0.00  0.00    +0.000 A 
ATOM     33  N   UNL     1       3.348  13.728  21.544  0.00  0.00    +0.000 NA
ATOM     34  N   UNL     1       4.355  14.652  21.711  0.00  0.00    +0.000 NA
ATOM     35  C   UNL     1       4.514  15.274  20.567  0.00  0.00    +0.000 A 
ATOM     36  N   UNL     1       3.651  14.760  19.644  0.00  0.00    +0.000 N 
ATOM     37  C   UNL     1       3.603  15.112  18.252  0.00  0.00    +0.000 C 
ENDBRANCH  31  32
ENDBRANCH  30  31
ENDBRANCH  23  30
ENDBRANCH   1  27
TORSDOF 8
ENDMDL
MODEL 2
REMARK VINA RESULT:      -8.8      2.854      4.155
REMARK  Name = 
REMARK  10 active torsions:
REMARK  status: ('A' for Active; 'I' for Inactive)
REMARK    1  A    between atoms: C_1  and  C_2
REMARK    2  A    between atoms: C_2  and  S_3
REMARK    3  A    between atoms: C_2  and  C_10
REMARK    4  A    between atoms: S_3  and  C_4
REMARK    5  A    between atoms: N_8  and  C_9
REMARK    6  A    between atoms: C_14  and  N_15
REMARK    7  A    between atoms: C_16  and  C_18
REMARK    8  A    between atoms: C_22  and  O_23
REMARK    9  A    between atoms: O_23  and  C_24
REMARK   10  A    between atoms: C_24  and  C_25
REMARK                            x       y       z     vdW  Elec       q    Type
REMARK                         _______ _______ _______ _____ _____    ______ ____
ROOT
ATOM      1  N   UNL     1       1.384   8.180  20.333  0.00  0.00    +0.000 N 
ATOM      2  C   UNL     1       2.029   8.266  19.108  0.00  0.00    +0.000 C 
ATOM      3  O   UNL     1       2.031   9.235  18.349  0.00  0.00    +0.000 OA
ATOM      4  H   UNL     1       1.539   7.330  20.866  0.00  0.00    +0.000 HD
ENDROOT
BRANCH   2   5
ATOM      5  C   UNL     1       2.762   7.059  18.637  0.00  0.00    +0.000 A 
ATOM      6  C   UNL     1       3.731   7.287  17.669  0.00  0.00    +0.000 A 
ATOM      7  C   UNL     1       4.356   6.200  17.081  0.00  0.00    +0.000 A 
ATOM      8  C   UNL     1       5.114   6.393  15.924  0.00  0.00    +0.000 A 
ATOM      9  C   UNL     1       5.731   5.315  15.301  0.00  0.00    +0.000 A 
ATOM     10  C   UNL     1       5.697   4.066  15.922  0.00  0.00    +0.000 A 
ATOM     11  C   UNL     1       4.930   3.862  17.078  0.00  0.00    +0.000 A 
ATOM     12  C   UNL     1       4.172   4.921  17.619  0.00  0.00    +0.000 A 
ATOM     13  C   UNL     1       3.205   4.804  18.638  0.00  0.00    +0.000 A 
ATOM     14  N   UNL     1       2.444   5.830  19.116  0.00  0.00    +0.000 NA
BRANCH   9  15
ATOM     15  O   UNL     1       6.367   5.365  14.091  0.00  0.00    +0.000 OA
BRANCH  15  16
ATOM     16  C   UNL     1       7.012   4.161  13.661  0.00  0.00    +0.000 C 
BRANCH  16  17
ATOM     17  C   UNL     1       6.093   3.502  12.716  0.00  0.00    +0.000 A 
ATOM     18  C   UNL     1       4.828   3.834  12.281  0.00  0.00    +0.000 A 
ATOM     19  C   UNL     1       4.493   2.836  11.356  0.00  0.00    +0.000 A 
ATOM     20  N   UNL     1       5.451   1.917  11.233  0.00  0.00    +0.000 NA
ATOM     21  N   UNL     1       6.417   2.352  12.059  0.00  0.00    +0.000 N 
ATOM     22  H   UNL     1       7.286   1.819  12.109  0.00  0.00    +0.000 HD
ENDBRANCH  16  17
ENDBRANCH  15  16
ENDBRANCH   9  15
ENDBRANCH   2   5
BRANCH   1  27
ATOM     23  C   UNL     1      -0.745  11.241  20.652  0.00  0.00    +0.000 A 
ATOM     24  C   UNL     1      -1.037  11.195  22.026  0.00  0.00    +0.000 A 
ATOM     25  C   UNL     1      -0.459  10.240  22.843  0.00  0.00    +0.000 A 
ATOM     26  C   UNL     1       0.385   9.276  22.304  0.00  0.00    +0.000 A 
ATOM     27  C   UNL     1       0.644   9.233  20.932  0.00  0.00    +0.000 A 
ATOM     28  C   UNL     1       0.118  10.249  20.120  0.00  0.00    +0.000 A 
BRANCH  23  30
ATOM     29  C   UNL     1      -0.537  13.607  19.687  0.00  0.00    +0.000 C 
ATOM     30  C   UNL     1      -1.358  12.307  19.734  0.00  0.00    +0.000 C 
BRANCH  30  31
ATOM     31  S   UNL     1      -3.089  12.631  20.278  0.00  0.00    +0.000 S 
BRANCH  31  32
ATOM     32  C   UNL     1      -4.058  11.977  19.009  0.00  0.00    +0.000 A 
ATOM     33  N   UNL     1      -3.676  11.605  17.810  0.00  0.00    +0.000 NA
ATOM     34  N   UNL     1      -4.802  11.273  17.090  0.00  0.00    +0.000 NA
ATOM     35  C   UNL     1      -5.836  11.420  17.884  0.00  0.00    +0.000 A 
ATOM     36  N   UNL     1      -5.411  11.815  19.118  0.00  0.00    +0.000 N 
ATOM     37  C   UNL     1      -6.240  11.976  20.281  0.00  0.00    +0.000 C 
ENDBRANCH  31  32
ENDBRANCH  30  31
ENDBRANCH  23  30
ENDBRANCH   1  27
TORSDOF 8
ENDMDL
MODEL 3
REMARK VINA RESULT:      -8.7      1.384      1.752
REMARK  Name = 
REMARK  10 active torsions:
REMARK  status: ('A' for Active; 'I' for Inactive)
REMARK    1  A    between atoms: C_1  and  C_2
REMARK    2  A    between atoms: C_2  and  S_3
REMARK    3  A    between atoms: C_2  and  C_10
REMARK    4  A    between atoms: S_3  and  C_4
REMARK    5  A    between atoms: N_8  and  C_9
REMARK    6  A    between atoms: C_14  and  N_15
REMARK    7  A    between atoms: C_16  and  C_18
REMARK    8  A    between atoms: C_22  and  O_23
REMARK    9  A    between atoms: O_23  and  C_24
REMARK   10  A    between atoms: C_24  and  C_25
REMARK                            x       y       z     vdW  Elec       q    Type
REMARK                         _______ _______ _______ _____ _____    ______ ____
ROOT
ATOM      1  N   UNL     1       1.622   8.822  18.786  0.00  0.00    +0.000 N 
ATOM      2  C   UNL     1       1.906   7.744  19.610  0.00  0.00    +0.000 C 
ATOM      3  O   UNL     1       1.374   7.488  20.691  0.00  0.00    +0.000 OA
ATOM      4  H   UNL     1       2.107   8.848  17.895  0.00  0.00    +0.000 HD
ENDROOT
BRANCH   2   5
ATOM      5  C   UNL     1       2.988   6.818  19.175  0.00  0.00    +0.000 A 
ATOM      6  C   UNL     1       3.611   7.145  17.978  0.00  0.00    +0.000 A 
ATOM      7  C   UNL     1       4.529   6.259  17.439  0.00  0.00    +0.000 A 
ATOM      8  C   UNL     1       4.947   6.432  16.117  0.00  0.00    +0.000 A 
ATOM      9  C   UNL     1       5.847   5.542  15.545  0.00  0.00    +0.000 A 
ATOM     10  C   UNL     1       6.430   4.560  16.346  0.00  0.00    +0.000 A 
ATOM     11  C   UNL     1       6.008   4.375  17.671  0.00  0.00    +0.000 A 
ATOM     12  C   UNL     1       4.975   5.175  18.203  0.00  0.00    +0.000 A 
ATOM     13  C   UNL     1       4.316   4.960  19.430  0.00  0.00    +0.000 A 
ATOM     14  N   UNL     1       3.285   5.714  19.907  0.00  0.00    +0.000 NA
BRANCH   9  15
ATOM     15  O   UNL     1       6.207   5.529  14.225  0.00  0.00    +0.000 OA
BRANCH  15  16
ATOM     16  C   UNL     1       6.972   4.401  13.786  0.00  0.00    +0.000 C 
BRANCH  16  17
ATOM     17  C   UNL     1       6.122   3.655  12.840  0.00  0.00    +0.000 A 
ATOM     18  C   UNL     1       4.831   3.862  12.404  0.00  0.00    +0.000 A 
ATOM     19  C   UNL     1       4.595   2.836  11.479  0.00  0.00    +0.000 A 
ATOM     20  N   UNL     1       5.639   2.015  11.356  0.00  0.00    +0.000 NA
ATOM     21  N   UNL     1       6.557   2.542  12.182  0.00  0.00    +0.000 N 
ATOM     22  H   UNL     1       7.474   2.096  12.233  0.00  0.00    +0.000 HD
ENDBRANCH  16  17
ENDBRANCH  15  16
ENDBRANCH   9  15
ENDBRANCH   2   5
BRANCH   1  27
ATOM     23  C   UNL     1      -0.223  11.595  20.490  0.00  0.00    +0.000 A 
ATOM     24  C   UNL     1      -1.170  11.906  19.499  0.00  0.00    +0.000 A 
ATOM     25  C   UNL     1      -1.264  11.150  18.345  0.00  0.00    +0.000 A 
ATOM     26  C   UNL     1      -0.385  10.095  18.125  0.00  0.00    +0.000 A 
ATOM     27  C   UNL     1       0.623   9.796  19.046  0.00  0.00    +0.000 A 
ATOM     28  C   UNL     1       0.665  10.517  20.249  0.00  0.00    +0.000 A 
BRANCH  23  30
ATOM     29  C   UNL     1      -1.344  12.242  22.703  0.00  0.00    +0.000 C 
ATOM     30  C   UNL     1      -0.120  12.409  21.788  0.00  0.00    +0.000 C 
BRANCH  30  31
ATOM     31  S   UNL     1       0.153  14.179  21.355  0.00  0.00    +0.000 S 
BRANCH  31  32
ATOM     32  C   UNL     1       1.867  14.316  21.208  0.00  0.00    +0.000 A 
ATOM     33  N   UNL     1       2.747  14.512  22.161  0.00  0.00    +0.000 NA
ATOM     34  N   UNL     1       3.979  14.690  21.572  0.00  0.00    +0.000 NA
ATOM     35  C   UNL     1       3.818  14.564  20.275  0.00  0.00    +0.000 A 
ATOM     36  N   UNL     1       2.513  14.279  20.003  0.00  0.00    +0.000 N 
ATOM     37  C   UNL     1       1.972  13.967  18.709  0.00  0.00    +0.000 C 
ENDBRANCH  31  32
ENDBRANCH  30  31
ENDBRANCH  23  30
ENDBRANCH   1  27
TORSDOF 8
ENDMDL
MODEL 4
REMARK VINA RESULT:      -8.5      2.068      2.772
REMARK  Name = 
REMARK  10 active torsions:
REMARK  status: ('A' for Active; 'I' for Inactive)
REMARK    1  A    between atoms: C_1  and  C_2
REMARK    2  A    between atoms: C_2  and  S_3
REMARK    3  A    between atoms: C_2  and  C_10
REMARK    4  A    between atoms: S_3  and  C_4
REMARK    5  A    between atoms: N_8  and  C_9
REMARK    6  A    between atoms: C_14  and  N_15
REMARK    7  A    between atoms: C_16  and  C_18
REMARK    8  A    between atoms: C_22  and  O_23
REMARK    9  A    between atoms: O_23  and  C_24
REMARK   10  A    between atoms: C_24  and  C_25
REMARK                            x       y       z     vdW  Elec       q    Type
REMARK                         _______ _______ _______ _____ _____    ______ ____
ROOT
ATOM      1  N   UNL     1       0.862   9.264  19.069  0.00  0.00    +0.000 N 
ATOM      2  C   UNL     1       1.256   8.635  20.240  0.00  0.00    +0.000 C 
ATOM      3  O   UNL     1       1.183   9.096  21.379  0.00  0.00    +0.000 OA
ATOM      4  H   UNL     1       0.929   8.716  18.217  0.00  0.00    +0.000 HD
ENDROOT
BRANCH   2   5
ATOM      5  C   UNL     1       1.867   7.283  20.116  0.00  0.00    +0.000 A 
ATOM      6  C   UNL     1       2.831   7.149  19.126  0.00  0.00    +0.000 A 
ATOM      7  C   UNL     1       3.342   5.891  18.857  0.00  0.00    +0.000 A 
ATOM      8  C   UNL     1       4.089   5.693  17.694  0.00  0.00    +0.000 A 
ATOM      9  C   UNL     1       4.592   4.434  17.389  0.00  0.00    +0.000 A 
ATOM     10  C   UNL     1       4.459   3.408  18.324  0.00  0.00    +0.000 A 
ATOM     11  C   UNL     1       3.702   3.596  19.489  0.00  0.00    +0.000 A 
ATOM     12  C   UNL     1       3.054   4.828  19.721  0.00  0.00    +0.000 A 
ATOM     13  C   UNL     1       2.103   5.081  20.729  0.00  0.00    +0.000 A 
ATOM     14  N   UNL     1       1.448   6.264  20.909  0.00  0.00    +0.000 NA
BRANCH   9  15
ATOM     15  O   UNL     1       5.204   4.097  16.213  0.00  0.00    +0.000 OA
BRANCH  15  16
ATOM     16  C   UNL     1       6.592   4.434  16.099  0.00  0.00    +0.000 C 
BRANCH  16  17
ATOM     17  C   UNL     1       6.880   4.559  14.659  0.00  0.00    +0.000 A 
ATOM     18  C   UNL     1       6.370   3.905  13.558  0.00  0.00    +0.000 A 
ATOM     19  C   UNL     1       7.014   4.491  12.460  0.00  0.00    +0.000 A 
ATOM     20  N   UNL     1       7.892   5.424  12.828  0.00  0.00    +0.000 NA
ATOM     21  N   UNL     1       7.782   5.456  14.166  0.00  0.00    +0.000 N 
ATOM     22  H   UNL     1       8.345   6.134  14.682  0.00  0.00    +0.000 HD
ENDBRANCH  16  17
ENDBRANCH  15  16
ENDBRANCH   9  15
ENDBRANCH   2   5
BRANCH   1  27
ATOM     23  C   UNL     1       0.520  12.991  19.111  0.00  0.00    +0.000 A 
ATOM     24  C   UNL     1      -0.800  13.122  18.648  0.00  0.00    +0.000 A 
ATOM     25  C   UNL     1      -1.590  12.008  18.429  0.00  0.00    +0.000 A 
ATOM     26  C   UNL     1      -1.069  10.733  18.619  0.00  0.00    +0.000 A 
ATOM     27  C   UNL     1       0.261  10.549  19.005  0.00  0.00    +0.000 A 
ATOM     28  C   UNL     1       1.034  11.683  19.299  0.00  0.00    +0.000 A 
BRANCH  23  30
ATOM     29  C   UNL     1       0.735  15.543  18.984  0.00  0.00    +0.000 C 
ATOM     30  C   UNL     1       1.404  14.216  19.381  0.00  0.00    +0.000 C 
BRANCH  30  31
ATOM     31  S   UNL     1       3.010  13.991  18.506  0.00  0.00    +0.000 S 
BRANCH  31  32
ATOM     32  C   UNL     1       3.921  15.394  18.932  0.00  0.00    +0.000 A 
ATOM     33  N   UNL     1       4.133  16.470  18.211  0.00  0.00    +0.000 NA
ATOM     34  N   UNL     1       5.023  17.269  18.893  0.00  0.00    +0.000 NA
ATOM     35  C   UNL     1       5.302  16.670  20.027  0.00  0.00    +0.000 A 
ATOM     36  N   UNL     1       4.593  15.509  20.116  0.00  0.00    +0.000 N 
ATOM     37  C   UNL     1       4.553  14.634  21.256  0.00  0.00    +0.000 C 
ENDBRANCH  31  32
ENDBRANCH  30  31
ENDBRANCH  23  30
ENDBRANCH   1  27
TORSDOF 8
ENDMDL
MODEL 5
REMARK VINA RESULT:      -8.5      2.805     10.479
REMARK  Name = 
REMARK  10 active torsions:
REMARK  status: ('A' for Active; 'I' for Inactive)
REMARK    1  A    between atoms: C_1  and  C_2
REMARK    2  A    between atoms: C_2  and  S_3
REMARK    3  A    between atoms: C_2  and  C_10
REMARK    4  A    between atoms: S_3  and  C_4
REMARK    5  A    between atoms: N_8  and  C_9
REMARK    6  A    between atoms: C_14  and  N_15
REMARK    7  A    between atoms: C_16  and  C_18
REMARK    8  A    between atoms: C_22  and  O_23
REMARK    9  A    between atoms: O_23  and  C_24
REMARK   10  A    between atoms: C_24  and  C_25
REMARK                            x       y       z     vdW  Elec       q    Type
REMARK                         _______ _______ _______ _____ _____    ______ ____
ROOT
ATOM      1  N   UNL     1       2.355   6.614  20.404  0.00  0.00    +0.000 N 
ATOM      2  C   UNL     1       1.896   7.747  19.750  0.00  0.00    +0.000 C 
ATOM      3  O   UNL     1       2.067   8.026  18.563  0.00  0.00    +0.000 OA
ATOM      4  H   UNL     1       2.069   6.505  21.372  0.00  0.00    +0.000 HD
ENDROOT
BRANCH   2   5
ATOM      5  C   UNL     1       1.157   8.752  20.562  0.00  0.00    +0.000 A 
ATOM      6  C   UNL     1       0.958   9.984  19.955  0.00  0.00    +0.000 A 
ATOM      7  C   UNL     1       0.403  11.013  20.698  0.00  0.00    +0.000 A 
ATOM      8  C   UNL     1       0.457  12.318  20.201  0.00  0.00    +0.000 A 
ATOM      9  C   UNL     1      -0.069  13.371  20.939  0.00  0.00    +0.000 A 
ATOM     10  C   UNL     1      -0.772  13.091  22.112  0.00  0.00    +0.000 A 
ATOM     11  C   UNL     1      -0.821  11.785  22.621  0.00  0.00    +0.000 A 
ATOM     12  C   UNL     1      -0.147  10.741  21.956  0.00  0.00    +0.000 A 
ATOM     13  C   UNL     1       0.062   9.442  22.461  0.00  0.00    +0.000 A 
ATOM     14  N   UNL     1       0.759   8.457  21.826  0.00  0.00    +0.000 NA
BRANCH   9  15
ATOM     15  O   UNL     1       0.061  14.695  20.620  0.00  0.00    +0.000 OA
BRANCH  15  16
ATOM     16  C   UNL     1      -0.134  15.040  19.244  0.00  0.00    +0.000 C 
BRANCH  16  17
ATOM     17  C   UNL     1       1.090  15.732  18.804  0.00  0.00    +0.000 A 
ATOM     18  C   UNL     1       2.410  15.337  18.774  0.00  0.00    +0.000 A 
ATOM     19  C   UNL     1       3.098  16.422  18.213  0.00  0.00    +0.000 A 
ATOM     20  N   UNL     1       2.290  17.446  17.937  0.00  0.00    +0.000 NA
ATOM     21  N   UNL     1       1.075  16.997  18.292  0.00  0.00    +0.000 N 
ATOM     22  H   UNL     1       0.270  17.606  18.137  0.00  0.00    +0.000 HD
ENDBRANCH  16  17
ENDBRANCH  15  16
ENDBRANCH   9  15
ENDBRANCH   2   5
BRANCH   1  27
ATOM     23  C   UNL     1       4.823   4.855  18.209  0.00  0.00    +0.000 A 
ATOM     24  C   UNL     1       4.698   3.544  18.700  0.00  0.00    +0.000 A 
ATOM     25  C   UNL     1       3.750   3.232  19.656  0.00  0.00    +0.000 A 
ATOM     26  C   UNL     1       2.933   4.225  20.184  0.00  0.00    +0.000 A 
ATOM     27  C   UNL     1       3.071   5.557  19.783  0.00  0.00    +0.000 A 
ATOM     28  C   UNL     1       3.982   5.856  18.759  0.00  0.00    +0.000 A 
BRANCH  23  30
ATOM     29  C   UNL     1       5.879   6.717  16.797  0.00  0.00    +0.000 C 
ATOM     30  C   UNL     1       5.854   5.216  17.131  0.00  0.00    +0.000 C 
BRANCH  30  31
ATOM     31  S   UNL     1       5.515   4.205  15.628  0.00  0.00    +0.000 S 
BRANCH  31  32
ATOM     32  C   UNL     1       6.733   4.694  14.508  0.00  0.00    +0.000 A 
ATOM     33  N   UNL     1       7.750   5.496  14.719  0.00  0.00    +0.000 NA
ATOM     34  N   UNL     1       8.380   5.709  13.513  0.00  0.00    +0.000 NA
ATOM     35  C   UNL     1       7.748   5.001  12.607  0.00  0.00    +0.000 A 
ATOM     36  N   UNL     1       6.733   4.308  13.197  0.00  0.00    +0.000 N 
ATOM     37  C   UNL     1       5.885   3.344  12.549  0.00  0.00    +0.000 C 
ENDBRANCH  31  32
ENDBRANCH  30  31
ENDBRANCH  23  30
ENDBRANCH   1  27
TORSDOF 8
ENDMDL
MODEL 6
REMARK VINA RESULT:      -8.4      4.001      5.440
REMARK  Name = 
REMARK  10 active torsions:
REMARK  status: ('A' for Active; 'I' for Inactive)
REMARK    1  A    between atoms: C_1  and  C_2
REMARK    2  A    between atoms: C_2  and  S_3
REMARK    3  A    between atoms: C_2  and  C_10
REMARK    4  A    between atoms: S_3  and  C_4
REMARK    5  A    between atoms: N_8  and  C_9
REMARK    6  A    between atoms: C_14  and  N_15
REMARK    7  A    between atoms: C_16  and  C_18
REMARK    8  A    between atoms: C_22  and  O_23
REMARK    9  A    between atoms: O_23  and  C_24
REMARK   10  A    between atoms: C_24  and  C_25
REMARK                            x       y       z     vdW  Elec       q    Type
REMARK                         _______ _______ _______ _____ _____    ______ ____
ROOT
ATOM      1  N   UNL     1       0.110  10.208  20.204  0.00  0.00    +0.000 N 
ATOM      2  C   UNL     1       1.102   9.842  19.307  0.00  0.00    +0.000 C 
ATOM      3  O   UNL     1       1.527  10.518  18.370  0.00  0.00    +0.000 OA
ATOM      4  H   UNL     1      -0.076   9.558  20.961  0.00  0.00    +0.000 HD
ENDROOT
BRANCH   2   5
ATOM      5  C   UNL     1       1.689   8.482  19.456  0.00  0.00    +0.000 A 
ATOM      6  C   UNL     1       2.544   8.083  18.438  0.00  0.00    +0.000 A 
ATOM      7  C   UNL     1       3.018   6.782  18.435  0.00  0.00    +0.000 A 
ATOM      8  C   UNL     1       3.639   6.285  17.287  0.00  0.00    +0.000 A 
ATOM      9  C   UNL     1       4.101   4.975  17.250  0.00  0.00    +0.000 A 
ATOM     10  C   UNL     1       4.061   4.211  18.417  0.00  0.00    +0.000 A 
ATOM     11  C   UNL     1       3.431   4.700  19.570  0.00  0.00    +0.000 A 
ATOM     12  C   UNL     1       2.817   5.969  19.557  0.00  0.00    +0.000 A 
ATOM     13  C   UNL     1       1.978   6.488  20.563  0.00  0.00    +0.000 A 
ATOM     14  N   UNL     1       1.352   7.699  20.513  0.00  0.00    +0.000 NA
BRANCH   9  15
ATOM     15  O   UNL     1       4.585   4.344  16.137  0.00  0.00    +0.000 OA
BRANCH  15  16
ATOM     16  C   UNL     1       5.949   3.911  16.195  0.00  0.00    +0.000 C 
BRANCH  16  17
ATOM     17  C   UNL     1       6.584   4.344  14.937  0.00  0.00    +0.000 A 
ATOM     18  C   UNL     1       6.391   3.958  13.628  0.00  0.00    +0.000 A 
ATOM     19  C   UNL     1       7.267   4.759  12.884  0.00  0.00    +0.000 A 
ATOM     20  N   UNL     1       7.990   5.571  13.655  0.00  0.00    +0.000 NA
ATOM     21  N   UNL     1       7.547   5.309  14.896  0.00  0.00    +0.000 N 
ATOM     22  H   UNL     1       7.937   5.847  15.672  0.00  0.00    +0.000 HD
ENDBRANCH  16  17
ENDBRANCH  15  16
ENDBRANCH   9  15
ENDBRANCH   2   5
BRANCH   1  27
ATOM     23  C   UNL     1      -2.214  12.952  21.237  0.00  0.00    +0.000 A 
ATOM     24  C   UNL     1      -1.728  14.001  20.437  0.00  0.00    +0.000 A 
ATOM     25  C   UNL     1      -0.729  13.779  19.506  0.00  0.00    +0.000 A 
ATOM     26  C   UNL     1      -0.155  12.519  19.382  0.00  0.00    +0.000 A 
ATOM     27  C   UNL     1      -0.553  11.464  20.207  0.00  0.00    +0.000 A 
ATOM     28  C   UNL     1      -1.617  11.674  21.096  0.00  0.00    +0.000 A 
BRANCH  23  30
ATOM     29  C   UNL     1      -3.222  12.264  23.492  0.00  0.00    +0.000 C 
ATOM     30  C   UNL     1      -3.338  13.175  22.258  0.00  0.00    +0.000 C 
BRANCH  30  31
ATOM     31  S   UNL     1      -4.959  12.946  21.411  0.00  0.00    +0.000 S 
BRANCH  31  32
ATOM     32  C   UNL     1      -6.117  13.034  22.688  0.00  0.00    +0.000 A 
ATOM     33  N   UNL     1      -6.803  12.053  23.227  0.00  0.00    +0.000 NA
ATOM     34  N   UNL     1      -7.701  12.601  24.114  0.00  0.00    +0.000 NA
ATOM     35  C   UNL     1      -7.512  13.900  24.116  0.00  0.00    +0.000 A 
ATOM     36  N   UNL     1      -6.491  14.213  23.269  0.00  0.00    +0.000 N 
ATOM     37  C   UNL     1      -5.923  15.521  23.083  0.00  0.00    +0.000 C 
ENDBRANCH  31  32
ENDBRANCH  30  31
ENDBRANCH  23  30
ENDBRANCH   1  27
TORSDOF 8
ENDMDL
MODEL 7
REMARK VINA RESULT:      -8.4      4.276     11.133
REMARK  Name = 
REMARK  10 active torsions:
REMARK  status: ('A' for Active; 'I' for Inactive)
REMARK    1  A    between atoms: C_1  and  C_2
REMARK    2  A    between atoms: C_2  and  S_3
REMARK    3  A    between atoms: C_2  and  C_10
REMARK    4  A    between atoms: S_3  and  C_4
REMARK    5  A    between atoms: N_8  and  C_9
REMARK    6  A    between atoms: C_14  and  N_15
REMARK    7  A    between atoms: C_16  and  C_18
REMARK    8  A    between atoms: C_22  and  O_23
REMARK    9  A    between atoms: O_23  and  C_24
REMARK   10  A    between atoms: C_24  and  C_25
REMARK                            x       y       z     vdW  Elec       q    Type
REMARK                         _______ _______ _______ _____ _____    ______ ____
ROOT
ATOM      1  N   UNL     1       1.670   7.947  20.592  0.00  0.00    +0.000 N 
ATOM      2  C   UNL     1       1.205   8.932  19.733  0.00  0.00    +0.000 C 
ATOM      3  O   UNL     1       1.052   8.829  18.516  0.00  0.00    +0.000 OA
ATOM      4  H   UNL     1       1.673   8.175  21.581  0.00  0.00    +0.000 HD
ENDROOT
BRANCH   2   5
ATOM      5  C   UNL     1       0.895  10.262  20.325  0.00  0.00    +0.000 A 
ATOM      6  C   UNL     1       0.024  10.249  21.406  0.00  0.00    +0.000 A 
ATOM      7  C   UNL     1      -0.420  11.456  21.920  0.00  0.00    +0.000 A 
ATOM      8  C   UNL     1      -1.500  11.462  22.806  0.00  0.00    +0.000 A 
ATOM      9  C   UNL     1      -1.981  12.662  23.317  0.00  0.00    +0.000 A 
ATOM     10  C   UNL     1      -1.287  13.841  23.041  0.00  0.00    +0.000 A 
ATOM     11  C   UNL     1      -0.209  13.843  22.145  0.00  0.00    +0.000 A 
ATOM     12  C   UNL     1       0.177  12.650  21.500  0.00  0.00    +0.000 A 
ATOM     13  C   UNL     1       1.092  12.550  20.432  0.00  0.00    +0.000 A 
ATOM     14  N   UNL     1       1.417  11.394  19.786  0.00  0.00    +0.000 NA
BRANCH   9  15
ATOM     15  O   UNL     1      -3.116  12.797  24.068  0.00  0.00    +0.000 OA
BRANCH  15  16
ATOM     16  C   UNL     1      -4.025  13.828  23.667  0.00  0.00    +0.000 C 
BRANCH  16  17
ATOM     17  C   UNL     1      -5.339  13.187  23.483  0.00  0.00    +0.000 A 
ATOM     18  C   UNL     1      -6.240  13.219  22.441  0.00  0.00    +0.000 A 
ATOM     19  C   UNL     1      -7.286  12.377  22.843  0.00  0.00    +0.000 A 
ATOM     20  N   UNL     1      -7.089  11.871  24.061  0.00  0.00    +0.000 NA
ATOM     21  N   UNL     1      -5.894  12.367  24.422  0.00  0.00    +0.000 N 
ATOM     22  H   UNL     1      -5.506  12.086  25.324  0.00  0.00    +0.000 HD
ENDBRANCH  16  17
ENDBRANCH  15  16
ENDBRANCH   9  15
ENDBRANCH   2   5
BRANCH   1  27
ATOM     23  C   UNL     1       3.243   5.146  18.672  0.00  0.00    +0.000 A 
ATOM     24  C   UNL     1       2.923   4.064  19.510  0.00  0.00    +0.000 A 
ATOM     25  C   UNL     1       2.120   4.240  20.622  0.00  0.00    +0.000 A 
ATOM     26  C   UNL     1       1.655   5.507  20.956  0.00  0.00    +0.000 A 
ATOM     27  C   UNL     1       2.008   6.626  20.197  0.00  0.00    +0.000 A 
ATOM     28  C   UNL     1       2.760   6.431  19.029  0.00  0.00    +0.000 A 
BRANCH  23  30
ATOM     29  C   UNL     1       3.578   3.887  16.464  0.00  0.00    +0.000 C 
ATOM     30  C   UNL     1       4.113   4.966  17.421  0.00  0.00    +0.000 C 
BRANCH  30  31
ATOM     31  S   UNL     1       5.838   4.592  17.950  0.00  0.00    +0.000 S 
BRANCH  31  32
ATOM     32  C   UNL     1       6.650   6.111  17.842  0.00  0.00    +0.000 A 
ATOM     33  N   UNL     1       6.428   7.087  16.993  0.00  0.00    +0.000 NA
ATOM     34  N   UNL     1       7.397   8.046  17.187  0.00  0.00    +0.000 NA
ATOM     35  C   UNL     1       8.163   7.640  18.173  0.00  0.00    +0.000 A 
ATOM     36  N   UNL     1       7.700   6.449  18.648  0.00  0.00    +0.000 N 
ATOM     37  C   UNL     1       8.211   5.745  19.793  0.00  0.00    +0.000 C 
ENDBRANCH  31  32
ENDBRANCH  30  31
ENDBRANCH  23  30
ENDBRANCH   1  27
TORSDOF 8
ENDMDL
MODEL 8
REMARK VINA RESULT:      -8.4      3.079      4.766
REMARK  Name = 
REMARK  10 active torsions:
REMARK  status: ('A' for Active; 'I' for Inactive)
REMARK    1  A    between atoms: C_1  and  C_2
REMARK    2  A    between atoms: C_2  and  S_3
REMARK    3  A    between atoms: C_2  and  C_10
REMARK    4  A    between atoms: S_3  and  C_4
REMARK    5  A    between atoms: N_8  and  C_9
REMARK    6  A    between atoms: C_14  and  N_15
REMARK    7  A    between atoms: C_16  and  C_18
REMARK    8  A    between atoms: C_22  and  O_23
REMARK    9  A    between atoms: O_23  and  C_24
REMARK   10  A    between atoms: C_24  and  C_25
REMARK                            x       y       z     vdW  Elec       q    Type
REMARK                         _______ _______ _______ _____ _____    ______ ____
ROOT
ATOM      1  N   UNL     1       1.373  12.114  20.137  0.00  0.00    +0.000 N 
ATOM      2  C   UNL     1       0.767  11.089  19.427  0.00  0.00    +0.000 C 
ATOM      3  O   UNL     1      -0.032  11.214  18.499  0.00  0.00    +0.000 OA
ATOM      4  H   UNL     1       2.061  11.838  20.830  0.00  0.00    +0.000 HD
ENDROOT
BRANCH   2   5
ATOM      5  C   UNL     1       1.075   9.694  19.846  0.00  0.00    +0.000 A 
ATOM      6  C   UNL     1       1.815   8.946  18.941  0.00  0.00    +0.000 A 
ATOM      7  C   UNL     1       2.022   7.601  19.197  0.00  0.00    +0.000 A 
ATOM      8  C   UNL     1       2.511   6.780  18.178  0.00  0.00    +0.000 A 
ATOM      9  C   UNL     1       2.702   5.422  18.402  0.00  0.00    +0.000 A 
ATOM     10  C   UNL     1       2.532   4.919  19.692  0.00  0.00    +0.000 A 
ATOM     11  C   UNL     1       2.031   5.735  20.717  0.00  0.00    +0.000 A 
ATOM     12  C   UNL     1       1.682   7.074  20.449  0.00  0.00    +0.000 A 
ATOM     13  C   UNL     1       0.980   7.933  21.319  0.00  0.00    +0.000 A 
ATOM     14  N   UNL     1       0.607   9.210  21.025  0.00  0.00    +0.000 NA
BRANCH   9  15
ATOM     15  O   UNL     1       3.032   4.507  17.441  0.00  0.00    +0.000 OA
BRANCH  15  16
ATOM     16  C   UNL     1       3.933   3.466  17.837  0.00  0.00    +0.000 C 
BRANCH  16  17
ATOM     17  C   UNL     1       5.297   3.976  17.607  0.00  0.00    +0.000 A 
ATOM     18  C   UNL     1       5.890   4.550  16.504  0.00  0.00    +0.000 A 
ATOM     19  C   UNL     1       7.193   4.860  16.916  0.00  0.00    +0.000 A 
ATOM     20  N   UNL     1       7.430   4.483  18.173  0.00  0.00    +0.000 NA
ATOM     21  N   UNL     1       6.258   3.962  18.574  0.00  0.00    +0.000 N 
ATOM     22  H   UNL     1       6.182   3.630  19.537  0.00  0.00    +0.000 HD
ENDBRANCH  16  17
ENDBRANCH  15  16
ENDBRANCH   9  15
ENDBRANCH   2   5
BRANCH   1  27
ATOM     23  C   UNL     1       2.115  15.596  18.982  0.00  0.00    +0.000 A 
ATOM     24  C   UNL     1       0.835  16.167  19.083  0.00  0.00    +0.000 A 
ATOM     25  C   UNL     1      -0.221  15.451  19.617  0.00  0.00    +0.000 A 
ATOM     26  C   UNL     1      -0.041  14.133  20.020  0.00  0.00    +0.000 A 
ATOM     27  C   UNL     1       1.194  13.497  19.869  0.00  0.00    +0.000 A 
ATOM     28  C   UNL     1       2.280  14.250  19.397  0.00  0.00    +0.000 A 
BRANCH  23  30
ATOM     29  C   UNL     1       3.103  16.806  16.949  0.00  0.00    +0.000 C 
ATOM     30  C   UNL     1       3.304  16.382  18.413  0.00  0.00    +0.000 C 
BRANCH  30  31
ATOM     31  S   UNL     1       4.831  15.369  18.610  0.00  0.00    +0.000 S 
BRANCH  31  32
ATOM     32  C   UNL     1       6.064  16.527  18.951  0.00  0.00    +0.000 A 
ATOM     33  N   UNL     1       5.936  17.697  19.532  0.00  0.00    +0.000 NA
ATOM     34  N   UNL     1       7.154  18.335  19.474  0.00  0.00    +0.000 NA
ATOM     35  C   UNL     1       7.999  17.520  18.888  0.00  0.00    +0.000 A 
ATOM     36  N   UNL     1       7.368  16.350  18.585  0.00  0.00    +0.000 N 
ATOM     37  C   UNL     1       7.991  15.177  18.034  0.00  0.00    +0.000 C 
ENDBRANCH  31  32
ENDBRANCH  30  31
ENDBRANCH  23  30
ENDBRANCH   1  27
TORSDOF 8
ENDMDL
MODEL 9
REMARK VINA RESULT:      -8.4      4.000     11.675
REMARK  Name = 
REMARK  10 active torsions:
REMARK  status: ('A' for Active; 'I' for Inactive)
REMARK    1  A    between atoms: C_1  and  C_2
REMARK    2  A    between atoms: C_2  and  S_3
REMARK    3  A    between atoms: C_2  and  C_10
REMARK    4  A    between atoms: S_3  and  C_4
REMARK    5  A    between atoms: N_8  and  C_9
REMARK    6  A    between atoms: C_14  and  N_15
REMARK    7  A    between atoms: C_16  and  C_18
REMARK    8  A    between atoms: C_22  and  O_23
REMARK    9  A    between atoms: O_23  and  C_24
REMARK   10  A    between atoms: C_24  and  C_25
REMARK                            x       y       z     vdW  Elec       q    Type
REMARK                         _______ _______ _______ _____ _____    ______ ____
ROOT
ATOM      1  N   UNL     1       2.168   7.795  19.514  0.00  0.00    +0.000 N 
ATOM      2  C   UNL     1       1.381   8.059  20.624  0.00  0.00    +0.000 C 
ATOM      3  O   UNL     1       1.053   7.255  21.497  0.00  0.00    +0.000 OA
ATOM      4  H   UNL     1       2.399   8.589  18.926  0.00  0.00    +0.000 HD
ENDROOT
BRANCH   2   5
ATOM      5  C   UNL     1       0.838   9.438  20.764  0.00  0.00    +0.000 A 
ATOM      6  C   UNL     1       0.106   9.681  21.918  0.00  0.00    +0.000 A 
ATOM      7  C   UNL     1      -0.546  10.895  22.053  0.00  0.00    +0.000 A 
ATOM      8  C   UNL     1      -1.504  11.045  23.058  0.00  0.00    +0.000 A 
ATOM      9  C   UNL     1      -2.191  12.246  23.198  0.00  0.00    +0.000 A 
ATOM     10  C   UNL     1      -1.813  13.336  22.414  0.00  0.00    +0.000 A 
ATOM     11  C   UNL     1      -0.859  13.189  21.397  0.00  0.00    +0.000 A 
ATOM     12  C   UNL     1      -0.280  11.928  21.147  0.00  0.00    +0.000 A 
ATOM     13  C   UNL     1       0.522  11.595  20.036  0.00  0.00    +0.000 A 
ATOM     14  N   UNL     1       1.034  10.357  19.784  0.00  0.00    +0.000 NA
BRANCH   9  15
ATOM     15  O   UNL     1      -3.245  12.453  24.043  0.00  0.00    +0.000 OA
BRANCH  15  16
ATOM     16  C   UNL     1      -4.086  13.574  23.748  0.00  0.00    +0.000 C 
BRANCH  16  17
ATOM     17  C   UNL     1      -5.418  13.031  23.424  0.00  0.00    +0.000 A 
ATOM     18  C   UNL     1      -6.195  13.118  22.289  0.00  0.00    +0.000 A 
ATOM     19  C   UNL     1      -7.339  12.363  22.578  0.00  0.00    +0.000 A 
ATOM     20  N   UNL     1      -7.316  11.859  23.813  0.00  0.00    +0.000 NA
ATOM     21  N   UNL     1      -6.133  12.269  24.300  0.00  0.00    +0.000 N 
ATOM     22  H   UNL     1      -5.868  11.970  25.240  0.00  0.00    +0.000 HD
ENDBRANCH  16  17
ENDBRANCH  15  16
ENDBRANCH   9  15
ENDBRANCH   2   5
BRANCH   1  27
ATOM     23  C   UNL     1       4.578   5.279  18.146  0.00  0.00    +0.000 A 
ATOM     24  C   UNL     1       4.146   4.129  18.829  0.00  0.00    +0.000 A 
ATOM     25  C   UNL     1       3.025   4.162  19.637  0.00  0.00    +0.000 A 
ATOM     26  C   UNL     1       2.332   5.353  19.826  0.00  0.00    +0.000 A 
ATOM     27  C   UNL     1       2.767   6.539  19.229  0.00  0.00    +0.000 A 
ATOM     28  C   UNL     1       3.859   6.485  18.350  0.00  0.00    +0.000 A 
BRANCH  23  30
ATOM     29  C   UNL     1       6.355   6.658  16.916  0.00  0.00    +0.000 C 
ATOM     30  C   UNL     1       5.806   5.256  17.226  0.00  0.00    +0.000 C 
BRANCH  30  31
ATOM     31  S   UNL     1       5.369   4.354  15.680  0.00  0.00    +0.000 S 
BRANCH  31  32
ATOM     32  C   UNL     1       6.638   4.758  14.583  0.00  0.00    +0.000 A 
ATOM     33  N   UNL     1       7.678   5.529  14.799  0.00  0.00    +0.000 NA
ATOM     34  N   UNL     1       8.352   5.676  13.608  0.00  0.00    +0.000 NA
ATOM     35  C   UNL     1       7.721   4.960  12.706  0.00  0.00    +0.000 A 
ATOM     36  N   UNL     1       6.663   4.326  13.287  0.00  0.00    +0.000 N 
ATOM     37  C   UNL     1       5.800   3.372  12.646  0.00  0.00    +0.000 C 
ENDBRANCH  31  32
ENDBRANCH  30  31
ENDBRANCH  23  30
ENDBRANCH   1  27
TORSDOF 8
ENDMDL
