MODEL 1
REMARK VINA RESULT:     -10.3      0.000      0.000
REMARK  Name = 
REMARK  10 active torsions:
REMARK  status: ('A' for Active; 'I' for Inactive)
REMARK    1  A    between atoms: C_1  and  N_2
REMARK    2  A    between atoms: C_6  and  C_7
REMARK    3  A    between atoms: C_7  and  C_8
REMARK    4  A    between atoms: C_8  and  C_9
REMARK    5  A    between atoms: C_13  and  N_14
REMARK    6  A    between atoms: C_19  and  C_20
REMARK    7  A    between atoms: C_20  and  N_21
REMARK    8  A    between atoms: C_25  and  C_26
REMARK    9  A    between atoms: C_26  and  C_27
REMARK   10  A    between atoms: C_33  and  C_34
REMARK                            x       y       z     vdW  Elec       q    Type
REMARK                         _______ _______ _______ _____ _____    ______ ____
ROOT
ATOM      1  N   UNL     1       1.184   8.535  20.426  0.00  0.00    +0.000 N 
ATOM      2  C   UNL     1       1.426   7.203  20.945  0.00  0.00    +0.000 C 
ATOM      3  C   UNL     1       2.029   6.486  19.799  0.00  0.00    +0.000 A 
ATOM      4  C   UNL     1       2.332   7.378  18.771  0.00  0.00    +0.000 A 
ATOM      5  C   UNL     1       3.101   6.970  17.678  0.00  0.00    +0.000 A 
ATOM      6  C   UNL     1       3.507   5.616  17.622  0.00  0.00    +0.000 A 
ATOM      7  C   UNL     1       3.049   4.713  18.620  0.00  0.00    +0.000 A 
ATOM      8  C   UNL     1       2.334   5.137  19.739  0.00  0.00    +0.000 A 
ATOM      9  C   UNL     1       1.710   8.703  19.139  0.00  0.00    +0.000 C 
ATOM     10  O   UNL     1       1.685   9.659  18.397  0.00  0.00    +0.000 OA
ENDROOT
BRANCH   1  15
ATOM     11  C   UNL     1      -1.128  11.408  21.096  0.00  0.00    +0.000 A 
ATOM     12  C   UNL     1      -1.187  11.323  22.496  0.00  0.00    +0.000 A 
ATOM     13  C   UNL     1      -0.584  10.267  23.201  0.00  0.00    +0.000 A 
ATOM     14  C   UNL     1       0.139   9.271  22.533  0.00  0.00    +0.000 A 
ATOM     15  C   UNL     1       0.282   9.349  21.155  0.00  0.00    +0.000 A 
ATOM     16  C   UNL     1      -0.394  10.384  20.471  0.00  0.00    +0.000 A 
BRANCH  11  17
ATOM     17  C   UNL     1      -1.851  12.569  20.225  0.00  0.00    +0.000 C 
ATOM     18  C   UNL     1      -0.928  13.269  19.188  0.00  0.00    +0.000 C 
ATOM     19  O   UNL     1      -1.097  14.560  19.802  0.00  0.00    +0.000 OA
ATOM     20  C   UNL     1      -1.929  14.001  20.841  0.00  0.00    +0.000 C 
BRANCH  17  21
ATOM     21  C   UNL     1      -3.198  12.095  19.616  0.00  0.00    +0.000 C 
BRANCH  21  27
ATOM     22  C   UNL     1      -5.453  12.159  17.374  0.00  0.00    +0.000 C 
ATOM     23  N   UNL     1      -4.117  11.634  17.264  0.00  0.00    +0.000 N 
ATOM     24  C   UNL     1      -3.619  11.026  16.148  0.00  0.00    +0.000 A 
ATOM     25  N   UNL     1      -2.395  10.627  16.381  0.00  0.00    +0.000 NA
ATOM     26  N   UNL     1      -2.080  10.976  17.668  0.00  0.00    +0.000 NA
ATOM     27  C   UNL     1      -3.114  11.597  18.204  0.00  0.00    +0.000 A 
ENDBRANCH  21  27
ENDBRANCH  17  21
ENDBRANCH  11  17
ENDBRANCH   1  15
BRANCH   8  28
ATOM     28  C   UNL     1       1.948   4.163  20.820  0.00  0.00    +0.000 C 
ATOM     29  F   UNL     1       0.609   4.022  20.970  0.00  0.00    +0.000 F 
ATOM     30  F   UNL     1       2.442   2.916  20.591  0.00  0.00    +0.000 F 
ATOM     31  F   UNL     1       2.418   4.537  22.041  0.00  0.00    +0.000 F 
ENDBRANCH   8  28
BRANCH   6  32
ATOM     32  C   UNL     1       4.617   5.067  16.741  0.00  0.00    +0.000 C 
BRANCH  32  33
ATOM     33  N   UNL     1       5.259   5.918  15.743  0.00  0.00    +0.000 NA
ATOM     34  C   UNL     1       5.630   5.192  14.523  0.00  0.00    +0.000 C 
ATOM     35  C   UNL     1       6.857   4.256  14.604  0.00  0.00    +0.000 C 
ATOM     36  O   UNL     1       7.837   4.450  15.625  0.00  0.00    +0.000 OA
ATOM     37  C   UNL     1       7.644   5.469  16.616  0.00  0.00    +0.000 C 
ATOM     38  C   UNL     1       6.522   6.482  16.270  0.00  0.00    +0.000 C 
BRANCH  37  39
ATOM     39  C   UNL     1       7.601   4.777  17.988  0.00  0.00    +0.000 C 
BRANCH  39  40
ATOM     40  C   UNL     1       7.752   5.705  19.172  0.00  0.00    +0.000 C 
ATOM     41  F   UNL     1       8.177   6.938  18.831  0.00  0.00    +0.000 F 
ATOM     42  F   UNL     1       6.574   5.840  19.822  0.00  0.00    +0.000 F 
ATOM     43  F   UNL     1       8.644   5.207  20.058  0.00  0.00    +0.000 F 
ENDBRANCH  39  40
ENDBRANCH  37  39
ENDBRANCH  32  33
ENDBRANCH   6  32
TORSDOF 9
ENDMDL
MODEL 2
REMARK VINA RESULT:     -10.2      1.564      2.624
REMARK  Name = 
REMARK  10 active torsions:
REMARK  status: ('A' for Active; 'I' for Inactive)
REMARK    1  A    between atoms: C_1  and  N_2
REMARK    2  A    between atoms: C_6  and  C_7
REMARK    3  A    between atoms: C_7  and  C_8
REMARK    4  A    between atoms: C_8  and  C_9
REMARK    5  A    between atoms: C_13  and  N_14
REMARK    6  A    between atoms: C_19  and  C_20
REMARK    7  A    between atoms: C_20  and  N_21
REMARK    8  A    between atoms: C_25  and  C_26
REMARK    9  A    between atoms: C_26  and  C_27
REMARK   10  A    between atoms: C_33  and  C_34
REMARK                            x       y       z     vdW  Elec       q    Type
REMARK                         _______ _______ _______ _____ _____    ______ ____
ROOT
ATOM      1  N   UNL     1       1.197   8.511  20.474  0.00  0.00    +0.000 N 
ATOM      2  C   UNL     1       1.402   7.163  20.964  0.00  0.00    +0.000 C 
ATOM      3  C   UNL     1       2.005   6.460  19.810  0.00  0.00    +0.000 A 
ATOM      4  C   UNL     1       2.343   7.369  18.808  0.00  0.00    +0.000 A 
ATOM      5  C   UNL     1       3.119   6.970  17.716  0.00  0.00    +0.000 A 
ATOM      6  C   UNL     1       3.496   5.609  17.634  0.00  0.00    +0.000 A 
ATOM      7  C   UNL     1       3.003   4.693  18.603  0.00  0.00    +0.000 A 
ATOM      8  C   UNL     1       2.282   5.106  19.721  0.00  0.00    +0.000 A 
ATOM      9  C   UNL     1       1.745   8.699  19.198  0.00  0.00    +0.000 C 
ATOM     10  O   UNL     1       1.752   9.673  18.480  0.00  0.00    +0.000 OA
ENDROOT
BRANCH   1  15
ATOM     11  C   UNL     1      -1.188  11.329  21.125  0.00  0.00    +0.000 A 
ATOM     12  C   UNL     1      -1.171  11.313  22.529  0.00  0.00    +0.000 A 
ATOM     13  C   UNL     1      -0.493  10.316  23.251  0.00  0.00    +0.000 A 
ATOM     14  C   UNL     1       0.233   9.314  22.595  0.00  0.00    +0.000 A 
ATOM     15  C   UNL     1       0.302   9.329  21.210  0.00  0.00    +0.000 A 
ATOM     16  C   UNL     1      -0.447  10.302  20.513  0.00  0.00    +0.000 A 
BRANCH  11  17
ATOM     17  C   UNL     1      -1.999  12.417  20.239  0.00  0.00    +0.000 C 
ATOM     18  C   UNL     1      -3.468  12.655  20.690  0.00  0.00    +0.000 C 
ATOM     19  O   UNL     1      -4.001  12.225  19.424  0.00  0.00    +0.000 OA
ATOM     20  C   UNL     1      -2.680  11.926  18.924  0.00  0.00    +0.000 C 
BRANCH  17  21
ATOM     21  C   UNL     1      -1.201  13.737  20.054  0.00  0.00    +0.000 C 
BRANCH  21  27
ATOM     22  C   UNL     1       1.433  14.453  21.685  0.00  0.00    +0.000 C 
ATOM     23  N   UNL     1       1.343  13.890  20.363  0.00  0.00    +0.000 N 
ATOM     24  C   UNL     1       2.419  13.609  19.571  0.00  0.00    +0.000 A 
ATOM     25  N   UNL     1       2.001  13.146  18.421  0.00  0.00    +0.000 NA
ATOM     26  N   UNL     1       0.631  13.121  18.453  0.00  0.00    +0.000 NA
ATOM     27  C   UNL     1       0.227  13.558  19.631  0.00  0.00    +0.000 A 
ENDBRANCH  21  27
ENDBRANCH  17  21
ENDBRANCH  11  17
ENDBRANCH   1  15
BRANCH   8  28
ATOM     28  C   UNL     1       1.859   4.115  20.773  0.00  0.00    +0.000 C 
ATOM     29  F   UNL     1       2.228   2.841  20.499  0.00  0.00    +0.000 F 
ATOM     30  F   UNL     1       2.376   4.410  21.997  0.00  0.00    +0.000 F 
ATOM     31  F   UNL     1       0.508   4.080  20.932  0.00  0.00    +0.000 F 
ENDBRANCH   8  28
BRANCH   6  32
ATOM     32  C   UNL     1       4.607   5.056  16.755  0.00  0.00    +0.000 C 
BRANCH  32  33
ATOM     33  N   UNL     1       5.252   5.905  15.757  0.00  0.00    +0.000 NA
ATOM     34  C   UNL     1       5.621   5.176  14.537  0.00  0.00    +0.000 C 
ATOM     35  C   UNL     1       6.845   4.237  14.620  0.00  0.00    +0.000 C 
ATOM     36  O   UNL     1       7.825   4.427  15.641  0.00  0.00    +0.000 OA
ATOM     37  C   UNL     1       7.635   5.447  16.632  0.00  0.00    +0.000 C 
ATOM     38  C   UNL     1       6.517   6.464  16.285  0.00  0.00    +0.000 C 
BRANCH  37  39
ATOM     39  C   UNL     1       7.589   4.756  18.004  0.00  0.00    +0.000 C 
BRANCH  39  40
ATOM     40  C   UNL     1       7.530   5.697  19.187  0.00  0.00    +0.000 C 
ATOM     41  F   UNL     1       6.285   5.858  19.676  0.00  0.00    +0.000 F 
ATOM     42  F   UNL     1       8.314   5.246  20.191  0.00  0.00    +0.000 F 
ATOM     43  F   UNL     1       7.985   6.923  18.843  0.00  0.00    +0.000 F 
ENDBRANCH  39  40
ENDBRANCH  37  39
ENDBRANCH  32  33
ENDBRANCH   6  32
TORSDOF 9
ENDMDL
MODEL 3
REMARK VINA RESULT:     -10.2      1.681      2.198
REMARK  Name = 
REMARK  10 active torsions:
REMARK  status: ('A' for Active; 'I' for Inactive)
REMARK    1  A    between atoms: C_1  and  N_2
REMARK    2  A    between atoms: C_6  and  C_7
REMARK    3  A    between atoms: C_7  and  C_8
REMARK    4  A    between atoms: C_8  and  C_9
REMARK    5  A    between atoms: C_13  and  N_14
REMARK    6  A    between atoms: C_19  and  C_20
REMARK    7  A    between atoms: C_20  and  N_21
REMARK    8  A    between atoms: C_25  and  C_26
REMARK    9  A    between atoms: C_26  and  C_27
REMARK   10  A    between atoms: C_33  and  C_34
REMARK                            x       y       z     vdW  Elec       q    Type
REMARK                         _______ _______ _______ _____ _____    ______ ____
ROOT
ATOM      1  N   UNL     1       1.248   8.364  20.562  0.00  0.00    +0.000 N 
ATOM      2  C   UNL     1       1.468   7.010  21.032  0.00  0.00    +0.000 C 
ATOM      3  C   UNL     1       2.045   6.322  19.855  0.00  0.00    +0.000 A 
ATOM      4  C   UNL     1       2.355   7.243  18.855  0.00  0.00    +0.000 A 
ATOM      5  C   UNL     1       3.104   6.858  17.740  0.00  0.00    +0.000 A 
ATOM      6  C   UNL     1       3.482   5.500  17.633  0.00  0.00    +0.000 A 
ATOM      7  C   UNL     1       3.016   4.572  18.604  0.00  0.00    +0.000 A 
ATOM      8  C   UNL     1       2.322   4.970  19.744  0.00  0.00    +0.000 A 
ATOM      9  C   UNL     1       1.764   8.567  19.276  0.00  0.00    +0.000 C 
ATOM     10  O   UNL     1       1.750   9.549  18.568  0.00  0.00    +0.000 OA
ENDROOT
BRANCH   1  15
ATOM     11  C   UNL     1      -0.975  11.272  21.368  0.00  0.00    +0.000 A 
ATOM     12  C   UNL     1      -1.039  11.122  22.763  0.00  0.00    +0.000 A 
ATOM     13  C   UNL     1      -0.472  10.014  23.416  0.00  0.00    +0.000 A 
ATOM     14  C   UNL     1       0.221   9.029  22.702  0.00  0.00    +0.000 A 
ATOM     15  C   UNL     1       0.370   9.170  21.329  0.00  0.00    +0.000 A 
ATOM     16  C   UNL     1      -0.271  10.257  20.696  0.00  0.00    +0.000 A 
BRANCH  11  17
ATOM     17  C   UNL     1      -1.659  12.496  20.555  0.00  0.00    +0.000 C 
ATOM     18  C   UNL     1      -2.583  12.059  19.383  0.00  0.00    +0.000 C 
ATOM     19  O   UNL     1      -1.781  12.741  18.402  0.00  0.00    +0.000 OA
ATOM     20  C   UNL     1      -0.835  13.160  19.408  0.00  0.00    +0.000 C 
BRANCH  17  21
ATOM     21  C   UNL     1      -2.327  13.531  21.500  0.00  0.00    +0.000 C 
BRANCH  21  27
ATOM     22  C   UNL     1      -4.705  15.466  20.656  0.00  0.00    +0.000 C 
ATOM     23  N   UNL     1      -4.800  14.203  21.340  0.00  0.00    +0.000 N 
ATOM     24  C   UNL     1      -5.969  13.651  21.778  0.00  0.00    +0.000 A 
ATOM     25  N   UNL     1      -5.712  12.524  22.392  0.00  0.00    +0.000 NA
ATOM     26  N   UNL     1      -4.356  12.329  22.359  0.00  0.00    +0.000 NA
ATOM     27  C   UNL     1      -3.799  13.336  21.712  0.00  0.00    +0.000 A 
ENDBRANCH  21  27
ENDBRANCH  17  21
ENDBRANCH  11  17
ENDBRANCH   1  15
BRANCH   8  28
ATOM     28  C   UNL     1       1.928   3.967  20.795  0.00  0.00    +0.000 C 
ATOM     29  F   UNL     1       0.588   3.810  20.920  0.00  0.00    +0.000 F 
ATOM     30  F   UNL     1       2.437   2.730  20.544  0.00  0.00    +0.000 F 
ATOM     31  F   UNL     1       2.375   4.315  22.032  0.00  0.00    +0.000 F 
ENDBRANCH   8  28
BRANCH   6  32
ATOM     32  C   UNL     1       4.572   4.960  16.721  0.00  0.00    +0.000 C 
BRANCH  32  33
ATOM     33  N   UNL     1       5.200   5.826  15.726  0.00  0.00    +0.000 NA
ATOM     34  C   UNL     1       5.613   5.103  14.517  0.00  0.00    +0.000 C 
ATOM     35  C   UNL     1       6.869   4.210  14.623  0.00  0.00    +0.000 C 
ATOM     36  O   UNL     1       7.827   4.444  15.657  0.00  0.00    +0.000 OA
ATOM     37  C   UNL     1       7.586   5.462  16.638  0.00  0.00    +0.000 C 
ATOM     38  C   UNL     1       6.436   6.435  16.268  0.00  0.00    +0.000 C 
BRANCH  37  39
ATOM     39  C   UNL     1       7.545   4.779  18.014  0.00  0.00    +0.000 C 
BRANCH  39  40
ATOM     40  C   UNL     1       7.468   5.725  19.191  0.00  0.00    +0.000 C 
ATOM     41  F   UNL     1       7.961   6.950  18.921  0.00  0.00    +0.000 F 
ATOM     42  F   UNL     1       6.188   5.875  19.596  0.00  0.00    +0.000 F 
ATOM     43  F   UNL     1       8.167   5.237  20.241  0.00  0.00    +0.000 F 
ENDBRANCH  39  40
ENDBRANCH  37  39
ENDBRANCH  32  33
ENDBRANCH   6  32
TORSDOF 9
ENDMDL
MODEL 4
REMARK VINA RESULT:     -10.1      2.457      2.957
REMARK  Name = 
REMARK  10 active torsions:
REMARK  status: ('A' for Active; 'I' for Inactive)
REMARK    1  A    between atoms: C_1  and  N_2
REMARK    2  A    between atoms: C_6  and  C_7
REMARK    3  A    between atoms: C_7  and  C_8
REMARK    4  A    between atoms: C_8  and  C_9
REMARK    5  A    between atoms: C_13  and  N_14
REMARK    6  A    between atoms: C_19  and  C_20
REMARK    7  A    between atoms: C_20  and  N_21
REMARK    8  A    between atoms: C_25  and  C_26
REMARK    9  A    between atoms: C_26  and  C_27
REMARK   10  A    between atoms: C_33  and  C_34
REMARK                            x       y       z     vdW  Elec       q    Type
REMARK                         _______ _______ _______ _____ _____    ______ ____
ROOT
ATOM      1  N   UNL     1       1.593   7.867  20.209  0.00  0.00    +0.000 N 
ATOM      2  C   UNL     1       1.668   6.545  20.798  0.00  0.00    +0.000 C 
ATOM      3  C   UNL     1       2.223   5.709  19.710  0.00  0.00    +0.000 A 
ATOM      4  C   UNL     1       2.657   6.510  18.653  0.00  0.00    +0.000 A 
ATOM      5  C   UNL     1       3.409   5.965  17.609  0.00  0.00    +0.000 A 
ATOM      6  C   UNL     1       3.663   4.574  17.632  0.00  0.00    +0.000 A 
ATOM      7  C   UNL     1       3.076   3.778  18.653  0.00  0.00    +0.000 A 
ATOM      8  C   UNL     1       2.378   4.333  19.723  0.00  0.00    +0.000 A 
ATOM      9  C   UNL     1       2.175   7.912  18.935  0.00  0.00    +0.000 C 
ATOM     10  O   UNL     1       2.280   8.827  18.149  0.00  0.00    +0.000 OA
ENDROOT
BRANCH   1  15
ATOM     11  C   UNL     1      -0.663  10.838  20.575  0.00  0.00    +0.000 A 
ATOM     12  C   UNL     1      -0.574  11.014  21.965  0.00  0.00    +0.000 A 
ATOM     13  C   UNL     1       0.109  10.100  22.786  0.00  0.00    +0.000 A 
ATOM     14  C   UNL     1       0.768   8.991  22.241  0.00  0.00    +0.000 A 
ATOM     15  C   UNL     1       0.764   8.812  20.865  0.00  0.00    +0.000 A 
ATOM     16  C   UNL     1       0.011   9.709  20.077  0.00  0.00    +0.000 A 
BRANCH  11  17
ATOM     17  C   UNL     1      -1.484  11.825  19.586  0.00  0.00    +0.000 C 
ATOM     18  C   UNL     1      -0.638  12.436  18.433  0.00  0.00    +0.000 C 
ATOM     19  O   UNL     1      -0.875  13.785  18.877  0.00  0.00    +0.000 OA
ATOM     20  C   UNL     1      -1.639  13.319  20.010  0.00  0.00    +0.000 C 
BRANCH  17  21
ATOM     21  C   UNL     1      -2.814  11.193  19.092  0.00  0.00    +0.000 C 
BRANCH  21  27
ATOM     22  C   UNL     1      -5.029  12.052  16.979  0.00  0.00    +0.000 C 
ATOM     23  N   UNL     1      -3.845  11.268  16.743  0.00  0.00    +0.000 N 
ATOM     24  C   UNL     1      -3.510  10.724  15.537  0.00  0.00    +0.000 A 
ATOM     25  N   UNL     1      -2.402  10.039  15.662  0.00  0.00    +0.000 NA
ATOM     26  N   UNL     1      -1.999  10.132  16.969  0.00  0.00    +0.000 NA
ATOM     27  C   UNL     1      -2.862  10.885  17.625  0.00  0.00    +0.000 A 
ENDBRANCH  21  27
ENDBRANCH  17  21
ENDBRANCH  11  17
ENDBRANCH   1  15
BRANCH   8  28
ATOM     28  C   UNL     1       1.852   3.463  20.833  0.00  0.00    +0.000 C 
ATOM     29  F   UNL     1       0.507   3.528  20.983  0.00  0.00    +0.000 F 
ATOM     30  F   UNL     1       2.154   2.150  20.647  0.00  0.00    +0.000 F 
ATOM     31  F   UNL     1       2.373   3.803  22.044  0.00  0.00    +0.000 F 
ENDBRANCH   8  28
BRANCH   6  32
ATOM     32  C   UNL     1       4.733   3.862  16.819  0.00  0.00    +0.000 C 
BRANCH  32  33
ATOM     33  N   UNL     1       6.138   4.231  16.963  0.00  0.00    +0.000 NA
ATOM     34  C   UNL     1       6.344   5.682  17.060  0.00  0.00    +0.000 C 
ATOM     35  C   UNL     1       6.197   6.504  15.760  0.00  0.00    +0.000 C 
ATOM     36  O   UNL     1       6.335   5.864  14.490  0.00  0.00    +0.000 OA
ATOM     37  C   UNL     1       6.539   4.446  14.423  0.00  0.00    +0.000 C 
ATOM     38  C   UNL     1       6.917   3.798  15.780  0.00  0.00    +0.000 C 
BRANCH  37  39
ATOM     39  C   UNL     1       5.365   3.846  13.634  0.00  0.00    +0.000 C 
BRANCH  39  40
ATOM     40  C   UNL     1       5.699   3.428  12.219  0.00  0.00    +0.000 C 
ATOM     41  F   UNL     1       6.773   4.067  11.716  0.00  0.00    +0.000 F 
ATOM     42  F   UNL     1       5.943   2.100  12.162  0.00  0.00    +0.000 F 
ATOM     43  F   UNL     1       4.660   3.681  11.391  0.00  0.00    +0.000 F 
ENDBRANCH  39  40
ENDBRANCH  37  39
ENDBRANCH  32  33
ENDBRANCH   6  32
TORSDOF 9
ENDMDL
MODEL 5
REMARK VINA RESULT:     -10.0      2.026      2.558
REMARK  Name = 
REMARK  10 active torsions:
REMARK  status: ('A' for Active; 'I' for Inactive)
REMARK    1  A    between atoms: C_1  and  N_2
REMARK    2  A    between atoms: C_6  and  C_7
REMARK    3  A    between atoms: C_7  and  C_8
REMARK    4  A    between atoms: C_8  and  C_9
REMARK    5  A    between atoms: C_13  and  N_14
REMARK    6  A    between atoms: C_19  and  C_20
REMARK    7  A    between atoms: C_20  and  N_21
REMARK    8  A    between atoms: C_25  and  C_26
REMARK    9  A    between atoms: C_26  and  C_27
REMARK   10  A    between atoms: C_33  and  C_34
REMARK                            x       y       z     vdW  Elec       q    Type
REMARK                         _______ _______ _______ _____ _____    ______ ____
ROOT
ATOM      1  N   UNL     1       1.261   8.499  20.506  0.00  0.00    +0.000 N 
ATOM      2  C   UNL     1       1.498   7.158  21.001  0.00  0.00    +0.000 C 
ATOM      3  C   UNL     1       2.068   6.450  19.832  0.00  0.00    +0.000 A 
ATOM      4  C   UNL     1       2.359   7.353  18.810  0.00  0.00    +0.000 A 
ATOM      5  C   UNL     1       3.099   6.952  17.695  0.00  0.00    +0.000 A 
ATOM      6  C   UNL     1       3.487   5.595  17.611  0.00  0.00    +0.000 A 
ATOM      7  C   UNL     1       3.041   4.683  18.606  0.00  0.00    +0.000 A 
ATOM      8  C   UNL     1       2.356   5.099  19.746  0.00  0.00    +0.000 A 
ATOM      9  C   UNL     1       1.760   8.680  19.210  0.00  0.00    +0.000 C 
ATOM     10  O   UNL     1       1.730   9.647  18.482  0.00  0.00    +0.000 OA
ENDROOT
BRANCH   1  15
ATOM     11  C   UNL     1      -0.603  11.593  21.509  0.00  0.00    +0.000 A 
ATOM     12  C   UNL     1      -0.961  11.222  22.815  0.00  0.00    +0.000 A 
ATOM     13  C   UNL     1      -0.711   9.933  23.314  0.00  0.00    +0.000 A 
ATOM     14  C   UNL     1      -0.050   8.972  22.539  0.00  0.00    +0.000 A 
ATOM     15  C   UNL     1       0.384   9.314  21.266  0.00  0.00    +0.000 A 
ATOM     16  C   UNL     1       0.054  10.594  20.769  0.00  0.00    +0.000 A 
BRANCH  11  17
ATOM     17  C   UNL     1      -0.917  13.044  20.859  0.00  0.00    +0.000 C 
ATOM     18  C   UNL     1      -0.456  14.254  21.720  0.00  0.00    +0.000 C 
ATOM     19  O   UNL     1      -1.795  14.768  21.844  0.00  0.00    +0.000 OA
ATOM     20  C   UNL     1      -2.333  13.658  21.094  0.00  0.00    +0.000 C 
BRANCH  17  21
ATOM     21  C   UNL     1      -0.451  13.140  19.380  0.00  0.00    +0.000 C 
BRANCH  21  27
ATOM     22  C   UNL     1      -0.168  16.206  18.582  0.00  0.00    +0.000 C 
ATOM     23  N   UNL     1       0.888  15.254  18.809  0.00  0.00    +0.000 N 
ATOM     24  C   UNL     1       2.217  15.532  18.669  0.00  0.00    +0.000 A 
ATOM     25  N   UNL     1       2.914  14.451  18.907  0.00  0.00    +0.000 NA
ATOM     26  N   UNL     1       2.034  13.445  19.209  0.00  0.00    +0.000 NA
ATOM     27  C   UNL     1       0.807  13.928  19.164  0.00  0.00    +0.000 A 
ENDBRANCH  21  27
ENDBRANCH  17  21
ENDBRANCH  11  17
ENDBRANCH   1  15
BRANCH   8  28
ATOM     28  C   UNL     1       1.982   4.114  20.822  0.00  0.00    +0.000 C 
ATOM     29  F   UNL     1       0.645   3.967  20.982  0.00  0.00    +0.000 F 
ATOM     30  F   UNL     1       2.478   2.870  20.577  0.00  0.00    +0.000 F 
ATOM     31  F   UNL     1       2.461   4.479  22.042  0.00  0.00    +0.000 F 
ENDBRANCH   8  28
BRANCH   6  32
ATOM     32  C   UNL     1       4.572   5.046  16.698  0.00  0.00    +0.000 C 
BRANCH  32  33
ATOM     33  N   UNL     1       5.228   5.914  15.725  0.00  0.00    +0.000 NA
ATOM     34  C   UNL     1       5.648   5.201  14.512  0.00  0.00    +0.000 C 
ATOM     35  C   UNL     1       6.888   4.286  14.625  0.00  0.00    +0.000 C 
ATOM     36  O   UNL     1       7.834   4.490  15.676  0.00  0.00    +0.000 OA
ATOM     37  C   UNL     1       7.594   5.499  16.667  0.00  0.00    +0.000 C 
ATOM     38  C   UNL     1       6.466   6.495  16.293  0.00  0.00    +0.000 C 
BRANCH  37  39
ATOM     39  C   UNL     1       7.522   4.798  18.033  0.00  0.00    +0.000 C 
BRANCH  39  40
ATOM     40  C   UNL     1       7.440   5.730  19.221  0.00  0.00    +0.000 C 
ATOM     41  F   UNL     1       6.183   5.904  19.675  0.00  0.00    +0.000 F 
ATOM     42  F   UNL     1       8.188   5.261  20.244  0.00  0.00    +0.000 F 
ATOM     43  F   UNL     1       7.920   6.953  18.901  0.00  0.00    +0.000 F 
ENDBRANCH  39  40
ENDBRANCH  37  39
ENDBRANCH  32  33
ENDBRANCH   6  32
TORSDOF 9
ENDMDL
MODEL 6
REMARK VINA RESULT:      -9.9      2.934      3.962
REMARK  Name = 
REMARK  10 active torsions:
REMARK  status: ('A' for Active; 'I' for Inactive)
REMARK    1  A    between atoms: C_1  and  N_2
REMARK    2  A    between atoms: C_6  and  C_7
REMARK    3  A    between atoms: C_7  and  C_8
REMARK    4  A    between atoms: C_8  and  C_9
REMARK    5  A    between atoms: C_13  and  N_14
REMARK    6  A    between atoms: C_19  and  C_20
REMARK    7  A    between atoms: C_20  and  N_21
REMARK    8  A    between atoms: C_25  and  C_26
REMARK    9  A    between atoms: C_26  and  C_27
REMARK   10  A    between atoms: C_33  and  C_34
REMARK                            x       y       z     vdW  Elec       q    Type
REMARK                         _______ _______ _______ _____ _____    ______ ____
ROOT
ATOM      1  N   UNL     1       1.545   7.996  20.160  0.00  0.00    +0.000 N 
ATOM      2  C   UNL     1       1.638   6.686  20.775  0.00  0.00    +0.000 C 
ATOM      3  C   UNL     1       2.216   5.840  19.708  0.00  0.00    +0.000 A 
ATOM      4  C   UNL     1       2.645   6.627  18.639  0.00  0.00    +0.000 A 
ATOM      5  C   UNL     1       3.416   6.076  17.613  0.00  0.00    +0.000 A 
ATOM      6  C   UNL     1       3.693   4.690  17.664  0.00  0.00    +0.000 A 
ATOM      7  C   UNL     1       3.111   3.904  18.695  0.00  0.00    +0.000 A 
ATOM      8  C   UNL     1       2.394   4.467  19.749  0.00  0.00    +0.000 A 
ATOM      9  C   UNL     1       2.137   8.026  18.891  0.00  0.00    +0.000 C 
ATOM     10  O   UNL     1       2.234   8.927  18.088  0.00  0.00    +0.000 OA
ENDROOT
BRANCH   1  15
ATOM     11  C   UNL     1      -0.647  11.019  20.480  0.00  0.00    +0.000 A 
ATOM     12  C   UNL     1      -0.662  11.135  21.879  0.00  0.00    +0.000 A 
ATOM     13  C   UNL     1      -0.072  10.167  22.709  0.00  0.00    +0.000 A 
ATOM     14  C   UNL     1       0.595   9.060  22.170  0.00  0.00    +0.000 A 
ATOM     15  C   UNL     1       0.695   8.938  20.791  0.00  0.00    +0.000 A 
ATOM     16  C   UNL     1       0.032   9.891  19.987  0.00  0.00    +0.000 A 
BRANCH  11  17
ATOM     17  C   UNL     1      -1.359  12.073  19.474  0.00  0.00    +0.000 C 
ATOM     18  C   UNL     1      -2.911  12.109  19.567  0.00  0.00    +0.000 C 
ATOM     19  O   UNL     1      -3.073  11.717  18.191  0.00  0.00    +0.000 OA
ATOM     20  C   UNL     1      -1.645  11.607  18.012  0.00  0.00    +0.000 C 
BRANCH  17  21
ATOM     21  C   UNL     1      -0.714  13.484  19.547  0.00  0.00    +0.000 C 
BRANCH  21  27
ATOM     22  C   UNL     1       1.392  14.518  21.692  0.00  0.00    +0.000 C 
ATOM     23  N   UNL     1       1.662  13.967  20.390  0.00  0.00    +0.000 N 
ATOM     24  C   UNL     1       2.909  13.842  19.850  0.00  0.00    +0.000 A 
ATOM     25  N   UNL     1       2.812  13.345  18.644  0.00  0.00    +0.000 NA
ATOM     26  N   UNL     1       1.482  13.138  18.383  0.00  0.00    +0.000 NA
ATOM     27  C   UNL     1       0.782  13.501  19.441  0.00  0.00    +0.000 A 
ENDBRANCH  21  27
ENDBRANCH  17  21
ENDBRANCH  11  17
ENDBRANCH   1  15
BRANCH   8  28
ATOM     28  C   UNL     1       1.873   3.610  20.871  0.00  0.00    +0.000 C 
ATOM     29  F   UNL     1       2.178   2.296  20.737  0.00  0.00    +0.000 F 
ATOM     30  F   UNL     1       2.358   3.995  22.083  0.00  0.00    +0.000 F 
ATOM     31  F   UNL     1       0.517   3.664  20.972  0.00  0.00    +0.000 F 
ENDBRANCH   8  28
BRANCH   6  32
ATOM     32  C   UNL     1       4.782   3.981  16.874  0.00  0.00    +0.000 C 
BRANCH  32  33
ATOM     33  N   UNL     1       6.178   4.389  17.009  0.00  0.00    +0.000 NA
ATOM     34  C   UNL     1       6.353   5.847  16.995  0.00  0.00    +0.000 C 
ATOM     35  C   UNL     1       6.210   6.562  15.633  0.00  0.00    +0.000 C 
ATOM     36  O   UNL     1       6.380   5.829  14.419  0.00  0.00    +0.000 OA
ATOM     37  C   UNL     1       6.614   4.414  14.466  0.00  0.00    +0.000 C 
ATOM     38  C   UNL     1       6.984   3.882  15.875  0.00  0.00    +0.000 C 
BRANCH  37  39
ATOM     39  C   UNL     1       5.464   3.730  13.709  0.00  0.00    +0.000 C 
BRANCH  39  40
ATOM     40  C   UNL     1       5.754   3.423  12.257  0.00  0.00    +0.000 C 
ATOM     41  F   UNL     1       6.847   4.057  11.788  0.00  0.00    +0.000 F 
ATOM     42  F   UNL     1       5.937   2.096  12.080  0.00  0.00    +0.000 F 
ATOM     43  F   UNL     1       4.713   3.792  11.476  0.00  0.00    +0.000 F 
ENDBRANCH  39  40
ENDBRANCH  37  39
ENDBRANCH  32  33
ENDBRANCH   6  32
TORSDOF 9
ENDMDL
MODEL 7
REMARK VINA RESULT:      -9.9      2.685      3.323
REMARK  Name = 
REMARK  10 active torsions:
REMARK  status: ('A' for Active; 'I' for Inactive)
REMARK    1  A    between atoms: C_1  and  N_2
REMARK    2  A    between atoms: C_6  and  C_7
REMARK    3  A    between atoms: C_7  and  C_8
REMARK    4  A    between atoms: C_8  and  C_9
REMARK    5  A    between atoms: C_13  and  N_14
REMARK    6  A    between atoms: C_19  and  C_20
REMARK    7  A    between atoms: C_20  and  N_21
REMARK    8  A    between atoms: C_25  and  C_26
REMARK    9  A    between atoms: C_26  and  C_27
REMARK   10  A    between atoms: C_33  and  C_34
REMARK                            x       y       z     vdW  Elec       q    Type
REMARK                         _______ _______ _______ _____ _____    ______ ____
ROOT
ATOM      1  N   UNL     1       1.527   7.978  20.295  0.00  0.00    +0.000 N 
ATOM      2  C   UNL     1       1.676   6.666  20.895  0.00  0.00    +0.000 C 
ATOM      3  C   UNL     1       2.174   5.828  19.781  0.00  0.00    +0.000 A 
ATOM      4  C   UNL     1       2.511   6.623  18.686  0.00  0.00    +0.000 A 
ATOM      5  C   UNL     1       3.202   6.081  17.599  0.00  0.00    +0.000 A 
ATOM      6  C   UNL     1       3.491   4.696  17.621  0.00  0.00    +0.000 A 
ATOM      7  C   UNL     1       2.997   3.902  18.691  0.00  0.00    +0.000 A 
ATOM      8  C   UNL     1       2.363   4.457  19.801  0.00  0.00    +0.000 A 
ATOM      9  C   UNL     1       2.017   8.018  18.983  0.00  0.00    +0.000 C 
ATOM     10  O   UNL     1       2.044   8.923  18.180  0.00  0.00    +0.000 OA
ENDROOT
BRANCH   1  15
ATOM     11  C   UNL     1       0.289  11.333  21.416  0.00  0.00    +0.000 A 
ATOM     12  C   UNL     1      -0.436  10.934  22.550  0.00  0.00    +0.000 A 
ATOM     13  C   UNL     1      -0.625   9.579  22.870  0.00  0.00    +0.000 A 
ATOM     14  C   UNL     1      -0.058   8.565  22.088  0.00  0.00    +0.000 A 
ATOM     15  C   UNL     1       0.724   8.912  20.996  0.00  0.00    +0.000 A 
ATOM     16  C   UNL     1       0.836  10.280  20.663  0.00  0.00    +0.000 A 
BRANCH  11  17
ATOM     17  C   UNL     1       0.491  12.877  20.965  0.00  0.00    +0.000 C 
ATOM     18  C   UNL     1       1.971  13.352  20.927  0.00  0.00    +0.000 C 
ATOM     19  O   UNL     1       1.743  14.374  21.915  0.00  0.00    +0.000 OA
ATOM     20  C   UNL     1       0.362  13.981  22.061  0.00  0.00    +0.000 C 
BRANCH  17  21
ATOM     21  C   UNL     1      -0.288  13.217  19.665  0.00  0.00    +0.000 C 
BRANCH  21  27
ATOM     22  C   UNL     1      -1.768  11.161  17.744  0.00  0.00    +0.000 C 
ATOM     23  N   UNL     1      -2.341  11.931  18.816  0.00  0.00    +0.000 N 
ATOM     24  C   UNL     1      -3.664  11.921  19.150  0.00  0.00    +0.000 A 
ATOM     25  N   UNL     1      -3.870  12.754  20.137  0.00  0.00    +0.000 NA
ATOM     26  N   UNL     1      -2.665  13.324  20.460  0.00  0.00    +0.000 NA
ATOM     27  C   UNL     1      -1.734  12.820  19.672  0.00  0.00    +0.000 A 
ENDBRANCH  21  27
ENDBRANCH  17  21
ENDBRANCH  11  17
ENDBRANCH   1  15
BRANCH   8  28
ATOM     28  C   UNL     1       1.938   3.591  20.957  0.00  0.00    +0.000 C 
ATOM     29  F   UNL     1       0.595   3.546  21.137  0.00  0.00    +0.000 F 
ATOM     30  F   UNL     1       2.349   2.302  20.815  0.00  0.00    +0.000 F 
ATOM     31  F   UNL     1       2.452   4.024  22.141  0.00  0.00    +0.000 F 
ENDBRANCH   8  28
BRANCH   6  32
ATOM     32  C   UNL     1       4.518   3.998  16.744  0.00  0.00    +0.000 C 
BRANCH  32  33
ATOM     33  N   UNL     1       5.945   4.151  17.012  0.00  0.00    +0.000 NA
ATOM     34  C   UNL     1       6.352   5.553  17.171  0.00  0.00    +0.000 C 
ATOM     35  C   UNL     1       6.436   6.413  15.890  0.00  0.00    +0.000 C 
ATOM     36  O   UNL     1       6.585   5.785  14.616  0.00  0.00    +0.000 OA
ATOM     37  C   UNL     1       6.584   4.353  14.521  0.00  0.00    +0.000 C 
ATOM     38  C   UNL     1       6.749   3.630  15.882  0.00  0.00    +0.000 C 
BRANCH  37  39
ATOM     39  C   UNL     1       5.405   3.950  13.621  0.00  0.00    +0.000 C 
BRANCH  39  40
ATOM     40  C   UNL     1       5.796   3.456  12.246  0.00  0.00    +0.000 C 
ATOM     41  F   UNL     1       6.144   2.154  12.228  0.00  0.00    +0.000 F 
ATOM     42  F   UNL     1       4.776   3.623  11.374  0.00  0.00    +0.000 F 
ATOM     43  F   UNL     1       6.849   4.157  11.770  0.00  0.00    +0.000 F 
ENDBRANCH  39  40
ENDBRANCH  37  39
ENDBRANCH  32  33
ENDBRANCH   6  32
TORSDOF 9
ENDMDL
MODEL 8
REMARK VINA RESULT:      -9.9      1.912      2.759
REMARK  Name = 
REMARK  10 active torsions:
REMARK  status: ('A' for Active; 'I' for Inactive)
REMARK    1  A    between atoms: C_1  and  N_2
REMARK    2  A    between atoms: C_6  and  C_7
REMARK    3  A    between atoms: C_7  and  C_8
REMARK    4  A    between atoms: C_8  and  C_9
REMARK    5  A    between atoms: C_13  and  N_14
REMARK    6  A    between atoms: C_19  and  C_20
REMARK    7  A    between atoms: C_20  and  N_21
REMARK    8  A    between atoms: C_25  and  C_26
REMARK    9  A    between atoms: C_26  and  C_27
REMARK   10  A    between atoms: C_33  and  C_34
REMARK                            x       y       z     vdW  Elec       q    Type
REMARK                         _______ _______ _______ _____ _____    ______ ____
ROOT
ATOM      1  N   UNL     1       1.264   8.535  20.490  0.00  0.00    +0.000 N 
ATOM      2  C   UNL     1       1.518   7.206  21.010  0.00  0.00    +0.000 C 
ATOM      3  C   UNL     1       2.077   6.479  19.848  0.00  0.00    +0.000 A 
ATOM      4  C   UNL     1       2.348   7.362  18.804  0.00  0.00    +0.000 A 
ATOM      5  C   UNL     1       3.076   6.943  17.687  0.00  0.00    +0.000 A 
ATOM      6  C   UNL     1       3.473   5.587  17.626  0.00  0.00    +0.000 A 
ATOM      7  C   UNL     1       3.047   4.694  18.645  0.00  0.00    +0.000 A 
ATOM      8  C   UNL     1       2.374   5.128  19.786  0.00  0.00    +0.000 A 
ATOM      9  C   UNL     1       1.745   8.693  19.184  0.00  0.00    +0.000 C 
ATOM     10  O   UNL     1       1.698   9.644  18.437  0.00  0.00    +0.000 OA
ENDROOT
BRANCH   1  15
ATOM     11  C   UNL     1      -0.685  11.606  21.399  0.00  0.00    +0.000 A 
ATOM     12  C   UNL     1      -0.957  11.305  22.743  0.00  0.00    +0.000 A 
ATOM     13  C   UNL     1      -0.622  10.062  23.308  0.00  0.00    +0.000 A 
ATOM     14  C   UNL     1       0.040   9.082  22.558  0.00  0.00    +0.000 A 
ATOM     15  C   UNL     1       0.392   9.359  21.245  0.00  0.00    +0.000 A 
ATOM     16  C   UNL     1      -0.022  10.590  20.689  0.00  0.00    +0.000 A 
BRANCH  11  17
ATOM     17  C   UNL     1      -1.098  12.997  20.679  0.00  0.00    +0.000 C 
ATOM     18  C   UNL     1      -0.921  14.263  21.564  0.00  0.00    +0.000 C 
ATOM     19  O   UNL     1      -2.321  14.593  21.498  0.00  0.00    +0.000 OA
ATOM     20  C   UNL     1      -2.601  13.416  20.710  0.00  0.00    +0.000 C 
BRANCH  17  21
ATOM     21  C   UNL     1      -0.455  13.146  19.273  0.00  0.00    +0.000 C 
BRANCH  21  27
ATOM     22  C   UNL     1       2.625  13.771  19.755  0.00  0.00    +0.000 C 
ATOM     23  N   UNL     1       1.610  14.671  19.274  0.00  0.00    +0.000 N 
ATOM     24  C   UNL     1       1.824  15.988  18.984  0.00  0.00    +0.000 A 
ATOM     25  N   UNL     1       0.696  16.538  18.611  0.00  0.00    +0.000 NA
ATOM     26  N   UNL     1      -0.275  15.572  18.656  0.00  0.00    +0.000 NA
ATOM     27  C   UNL     1       0.274  14.436  19.045  0.00  0.00    +0.000 A 
ENDBRANCH  21  27
ENDBRANCH  17  21
ENDBRANCH  11  17
ENDBRANCH   1  15
BRANCH   8  28
ATOM     28  C   UNL     1       2.022   4.163  20.887  0.00  0.00    +0.000 C 
ATOM     29  F   UNL     1       2.497   4.529  22.102  0.00  0.00    +0.000 F 
ATOM     30  F   UNL     1       0.677   4.013  21.030  0.00  0.00    +0.000 F 
ATOM     31  F   UNL     1       2.519   2.917  20.657  0.00  0.00    +0.000 F 
ENDBRANCH   8  28
BRANCH   6  32
ATOM     32  C   UNL     1       4.549   5.027  16.710  0.00  0.00    +0.000 C 
BRANCH  32  33
ATOM     33  N   UNL     1       5.200   5.884  15.723  0.00  0.00    +0.000 NA
ATOM     34  C   UNL     1       5.602   5.160  14.511  0.00  0.00    +0.000 C 
ATOM     35  C   UNL     1       6.838   4.239  14.616  0.00  0.00    +0.000 C 
ATOM     36  O   UNL     1       7.796   4.445  15.655  0.00  0.00    +0.000 OA
ATOM     37  C   UNL     1       7.574   5.463  16.642  0.00  0.00    +0.000 C 
ATOM     38  C   UNL     1       6.447   6.463  16.273  0.00  0.00    +0.000 C 
BRANCH  37  39
ATOM     39  C   UNL     1       7.512   4.772  18.013  0.00  0.00    +0.000 C 
BRANCH  39  40
ATOM     40  C   UNL     1       7.871   5.657  19.186  0.00  0.00    +0.000 C 
ATOM     41  F   UNL     1       8.855   5.149  19.954  0.00  0.00    +0.000 F 
ATOM     42  F   UNL     1       8.269   6.876  18.757  0.00  0.00    +0.000 F 
ATOM     43  F   UNL     1       6.797   5.845  19.987  0.00  0.00    +0.000 F 
ENDBRANCH  39  40
ENDBRANCH  37  39
ENDBRANCH  32  33
ENDBRANCH   6  32
TORSDOF 9
ENDMDL
MODEL 9
REMARK VINA RESULT:      -9.8      2.654      3.302
REMARK  Name = 
REMARK  10 active torsions:
REMARK  status: ('A' for Active; 'I' for Inactive)
REMARK    1  A    between atoms: C_1  and  N_2
REMARK    2  A    between atoms: C_6  and  C_7
REMARK    3  A    between atoms: C_7  and  C_8
REMARK    4  A    between atoms: C_8  and  C_9
REMARK    5  A    between atoms: C_13  and  N_14
REMARK    6  A    between atoms: C_19  and  C_20
REMARK    7  A    between atoms: C_20  and  N_21
REMARK    8  A    between atoms: C_25  and  C_26
REMARK    9  A    between atoms: C_26  and  C_27
REMARK   10  A    between atoms: C_33  and  C_34
REMARK                            x       y       z     vdW  Elec       q    Type
REMARK                         _______ _______ _______ _____ _____    ______ ____
ROOT
ATOM      1  N   UNL     1       1.645   7.972  20.079  0.00  0.00    +0.000 N 
ATOM      2  C   UNL     1       1.709   6.666  20.703  0.00  0.00    +0.000 C 
ATOM      3  C   UNL     1       2.247   5.795  19.634  0.00  0.00    +0.000 A 
ATOM      4  C   UNL     1       2.681   6.561  18.553  0.00  0.00    +0.000 A 
ATOM      5  C   UNL     1       3.421   5.980  17.520  0.00  0.00    +0.000 A 
ATOM      6  C   UNL     1       3.659   4.586  17.579  0.00  0.00    +0.000 A 
ATOM      7  C   UNL     1       3.070   3.826  18.624  0.00  0.00    +0.000 A 
ATOM      8  C   UNL     1       2.386   4.418  19.684  0.00  0.00    +0.000 A 
ATOM      9  C   UNL     1       2.218   7.976  18.801  0.00  0.00    +0.000 C 
ATOM     10  O   UNL     1       2.328   8.868  17.989  0.00  0.00    +0.000 OA
ENDROOT
BRANCH   1  15
ATOM     11  C   UNL     1       0.390  11.385  20.991  0.00  0.00    +0.000 A 
ATOM     12  C   UNL     1      -0.351  11.050  22.136  0.00  0.00    +0.000 A 
ATOM     13  C   UNL     1      -0.544   9.714  22.530  0.00  0.00    +0.000 A 
ATOM     14  C   UNL     1       0.034   8.658  21.814  0.00  0.00    +0.000 A 
ATOM     15  C   UNL     1       0.831   8.944  20.715  0.00  0.00    +0.000 A 
ATOM     16  C   UNL     1       0.947  10.291  20.306  0.00  0.00    +0.000 A 
BRANCH  11  17
ATOM     17  C   UNL     1       0.598  12.901  20.456  0.00  0.00    +0.000 C 
ATOM     18  C   UNL     1       1.706  13.060  19.377  0.00  0.00    +0.000 C 
ATOM     19  O   UNL     1       2.475  13.960  20.197  0.00  0.00    +0.000 OA
ATOM     20  C   UNL     1       1.528  13.844  21.281  0.00  0.00    +0.000 C 
BRANCH  17  21
ATOM     21  C   UNL     1      -0.743  13.572  20.052  0.00  0.00    +0.000 C 
BRANCH  21  27
ATOM     22  C   UNL     1      -3.715  12.606  20.641  0.00  0.00    +0.000 C 
ATOM     23  N   UNL     1      -2.914  12.328  19.478  0.00  0.00    +0.000 N 
ATOM     24  C   UNL     1      -3.316  11.542  18.436  0.00  0.00    +0.000 A 
ATOM     25  N   UNL     1      -2.348  11.456  17.560  0.00  0.00    +0.000 NA
ATOM     26  N   UNL     1      -1.293  12.193  18.029  0.00  0.00    +0.000 NA
ATOM     27  C   UNL     1      -1.633  12.734  19.184  0.00  0.00    +0.000 A 
ENDBRANCH  21  27
ENDBRANCH  17  21
ENDBRANCH  11  17
ENDBRANCH   1  15
BRANCH   8  28
ATOM     28  C   UNL     1       1.857   3.585  20.821  0.00  0.00    +0.000 C 
ATOM     29  F   UNL     1       2.364   3.931  22.029  0.00  0.00    +0.000 F 
ATOM     30  F   UNL     1       0.504   3.667  20.935  0.00  0.00    +0.000 F 
ATOM     31  F   UNL     1       2.144   2.263  20.667  0.00  0.00    +0.000 F 
ENDBRANCH   8  28
BRANCH   6  32
ATOM     32  C   UNL     1       4.715   3.841  16.778  0.00  0.00    +0.000 C 
BRANCH  32  33
ATOM     33  N   UNL     1       6.126   4.193  16.907  0.00  0.00    +0.000 NA
ATOM     34  C   UNL     1       6.348   5.641  17.012  0.00  0.00    +0.000 C 
ATOM     35  C   UNL     1       6.195   6.474  15.720  0.00  0.00    +0.000 C 
ATOM     36  O   UNL     1       6.310   5.841  14.444  0.00  0.00    +0.000 OA
ATOM     37  C   UNL     1       6.497   4.421  14.364  0.00  0.00    +0.000 C 
ATOM     38  C   UNL     1       6.885   3.760  15.712  0.00  0.00    +0.000 C 
BRANCH  37  39
ATOM     39  C   UNL     1       5.307   3.840  13.585  0.00  0.00    +0.000 C 
BRANCH  39  40
ATOM     40  C   UNL     1       5.629   3.387  12.179  0.00  0.00    +0.000 C 
ATOM     41  F   UNL     1       5.755   2.050  12.067  0.00  0.00    +0.000 F 
ATOM     42  F   UNL     1       4.664   3.784  11.320  0.00  0.00    +0.000 F 
ATOM     43  F   UNL     1       6.791   3.934  11.757  0.00  0.00    +0.000 F 
ENDBRANCH  39  40
ENDBRANCH  37  39
ENDBRANCH  32  33
ENDBRANCH   6  32
TORSDOF 9
ENDMDL
