MODEL 1
REMARK VINA RESULT:      -9.5      0.000      0.000
REMARK  Name = 
REMARK  9 active torsions:
REMARK  status: ('A' for Active; 'I' for Inactive)
REMARK    1  A    between atoms: C_1  and  N_2
REMARK    2  A    between atoms: C_6  and  C_7
REMARK    3  A    between atoms: C_7  and  C_8
REMARK    4  A    between atoms: C_8  and  C_9
REMARK    5  A    between atoms: C_13  and  N_14
REMARK    6  A    between atoms: C_15  and  C_17
REMARK    7  A    between atoms: C_19  and  C_20
REMARK    8  A    between atoms: C_20  and  N_21
REMARK    9  A    between atoms: C_28  and  C_29
REMARK                            x       y       z     vdW  Elec       q    Type
REMARK                         _______ _______ _______ _____ _____    ______ ____
ROOT
ATOM      1  N   UNL     1       1.419   8.679  17.707  0.00  0.00    +0.000 N 
ATOM      2  C   UNL     1       2.098   7.953  18.663  0.00  0.00    +0.000 C 
ATOM      3  O   UNL     1       1.981   8.079  19.884  0.00  0.00    +0.000 OA
ATOM      4  H   UNL     1       1.575   8.385  16.746  0.00  0.00    +0.000 HD
ENDROOT
BRANCH   1   9
ATOM      5  C   UNL     1       0.293  11.978  19.032  0.00  0.00    +0.000 A 
ATOM      6  C   UNL     1      -1.068  11.943  18.664  0.00  0.00    +0.000 A 
ATOM      7  C   UNL     1      -1.599  10.877  17.948  0.00  0.00    +0.000 A 
ATOM      8  C   UNL     1      -0.786   9.801  17.599  0.00  0.00    +0.000 A 
ATOM      9  C   UNL     1       0.565   9.779  17.950  0.00  0.00    +0.000 A 
ATOM     10  C   UNL     1       1.090  10.879  18.634  0.00  0.00    +0.000 A 
BRANCH   5  11
ATOM     11  C   UNL     1       0.891  13.167  19.921  0.00  0.00    +0.000 C 
ATOM     12  C   UNL     1       0.951  14.574  19.256  0.00  0.00    +0.000 C 
ATOM     13  O   UNL     1       2.383  14.645  19.383  0.00  0.00    +0.000 OA
ATOM     14  C   UNL     1       2.436  13.326  19.966  0.00  0.00    +0.000 C 
BRANCH  11  15
ATOM     15  C   UNL     1       0.171  13.206  21.285  0.00  0.00    +0.000 C 
BRANCH  15  21
ATOM     16  C   UNL     1      -2.402  12.108  22.879  0.00  0.00    +0.000 C 
ATOM     17  N   UNL     1      -1.145  11.451  22.644  0.00  0.00    +0.000 N 
ATOM     18  C   UNL     1      -0.821  10.222  23.141  0.00  0.00    +0.000 A 
ATOM     19  N   UNL     1       0.375   9.882  22.731  0.00  0.00    +0.000 NA
ATOM     20  N   UNL     1       0.858  10.912  21.966  0.00  0.00    +0.000 NA
ATOM     21  C   UNL     1      -0.046  11.873  21.930  0.00  0.00    +0.000 A 
ENDBRANCH  15  21
ENDBRANCH  11  15
ENDBRANCH   5  11
ENDBRANCH   1   9
BRANCH   2  22
ATOM     22  C   UNL     1       3.044   6.919  18.154  0.00  0.00    +0.000 A 
ATOM     23  C   UNL     1       2.575   5.620  18.013  0.00  0.00    +0.000 A 
ATOM     24  C   UNL     1       3.429   4.621  17.546  0.00  0.00    +0.000 A 
ATOM     25  C   UNL     1       4.735   5.003  17.223  0.00  0.00    +0.000 A 
ATOM     26  C   UNL     1       5.150   6.342  17.382  0.00  0.00    +0.000 A 
ATOM     27  N   UNL     1       4.309   7.304  17.857  0.00  0.00    +0.000 NA
BRANCH  26  28
ATOM     28  C   UNL     1       6.555   6.774  17.022  0.00  0.00    +0.000 C 
ATOM     29  C   UNL     1       7.146   8.037  17.603  0.00  0.00    +0.000 C 
ATOM     30  C   UNL     1       7.637   6.705  18.081  0.00  0.00    +0.000 C 
ENDBRANCH  26  28
BRANCH  24  31
ATOM     31  C   UNL     1       2.822   3.251  17.299  0.00  0.00    +0.000 C 
BRANCH  31  32
ATOM     32  N   UNL     1       3.061   2.194  18.299  0.00  0.00    +0.000 NA
ATOM     33  C   UNL     1       3.919   2.665  19.409  0.00  0.00    +0.000 C 
ATOM     34  C   UNL     1       2.981   3.271  20.465  0.00  0.00    +0.000 C 
ATOM     35  C   UNL     1       1.721   2.469  20.340  0.00  0.00    +0.000 C 
ATOM     36  C   UNL     1       0.651   2.715  19.312  0.00  0.00    +0.000 C 
ATOM     37  C   UNL     1       1.785   1.786  18.991  0.00  0.00    +0.000 C 
ENDBRANCH  31  32
ENDBRANCH  24  31
ENDBRANCH   2  22
TORSDOF 8
ENDMDL
MODEL 2
REMARK VINA RESULT:      -9.5      1.882      2.999
REMARK  Name = 
REMARK  9 active torsions:
REMARK  status: ('A' for Active; 'I' for Inactive)
REMARK    1  A    between atoms: C_1  and  N_2
REMARK    2  A    between atoms: C_6  and  C_7
REMARK    3  A    between atoms: C_7  and  C_8
REMARK    4  A    between atoms: C_8  and  C_9
REMARK    5  A    between atoms: C_13  and  N_14
REMARK    6  A    between atoms: C_15  and  C_17
REMARK    7  A    between atoms: C_19  and  C_20
REMARK    8  A    between atoms: C_20  and  N_21
REMARK    9  A    between atoms: C_28  and  C_29
REMARK                            x       y       z     vdW  Elec       q    Type
REMARK                         _______ _______ _______ _____ _____    ______ ____
ROOT
ATOM      1  N   UNL     1       1.929   8.113  19.687  0.00  0.00    +0.000 N 
ATOM      2  C   UNL     1       2.344   8.086  18.372  0.00  0.00    +0.000 C 
ATOM      3  O   UNL     1       2.048   8.911  17.504  0.00  0.00    +0.000 OA
ATOM      4  H   UNL     1       2.339   7.400  20.286  0.00  0.00    +0.000 HD
ENDROOT
BRANCH   1   9
ATOM      5  C   UNL     1      -0.161  11.182  20.031  0.00  0.00    +0.000 A 
ATOM      6  C   UNL     1      -0.695  10.976  21.320  0.00  0.00    +0.000 A 
ATOM      7  C   UNL     1      -0.416   9.824  22.046  0.00  0.00    +0.000 A 
ATOM      8  C   UNL     1       0.428   8.854  21.512  0.00  0.00    +0.000 A 
ATOM      9  C   UNL     1       0.995   9.014  20.245  0.00  0.00    +0.000 A 
ATOM     10  C   UNL     1       0.669  10.160  19.514  0.00  0.00    +0.000 A 
BRANCH   5  11
ATOM     11  C   UNL     1      -0.419  12.539  19.223  0.00  0.00    +0.000 C 
ATOM     12  C   UNL     1       0.811  13.471  19.015  0.00  0.00    +0.000 C 
ATOM     13  O   UNL     1       0.192  14.557  19.730  0.00  0.00    +0.000 OA
ATOM     14  C   UNL     1      -0.975  13.755  20.014  0.00  0.00    +0.000 C 
BRANCH  11  15
ATOM     15  C   UNL     1      -1.129  12.221  17.891  0.00  0.00    +0.000 C 
BRANCH  15  21
ATOM     16  C   UNL     1      -2.737  10.192  15.976  0.00  0.00    +0.000 C 
ATOM     17  N   UNL     1      -3.200  10.868  17.157  0.00  0.00    +0.000 N 
ATOM     18  C   UNL     1      -4.478  10.789  17.631  0.00  0.00    +0.000 A 
ATOM     19  N   UNL     1      -4.583  11.487  18.734  0.00  0.00    +0.000 NA
ATOM     20  N   UNL     1      -3.360  12.053  18.984  0.00  0.00    +0.000 NA
ATOM     21  C   UNL     1      -2.527  11.703  18.021  0.00  0.00    +0.000 A 
ENDBRANCH  15  21
ENDBRANCH  11  15
ENDBRANCH   5  11
ENDBRANCH   1   9
BRANCH   2  22
ATOM     22  C   UNL     1       3.239   6.958  17.988  0.00  0.00    +0.000 A 
ATOM     23  C   UNL     1       2.686   5.687  17.901  0.00  0.00    +0.000 A 
ATOM     24  C   UNL     1       3.489   4.603  17.551  0.00  0.00    +0.000 A 
ATOM     25  C   UNL     1       4.836   4.871  17.286  0.00  0.00    +0.000 A 
ATOM     26  C   UNL     1       5.338   6.185  17.386  0.00  0.00    +0.000 A 
ATOM     27  N   UNL     1       4.544   7.233  17.747  0.00  0.00    +0.000 NA
BRANCH  26  28
ATOM     28  C   UNL     1       6.789   6.494  17.087  0.00  0.00    +0.000 C 
ATOM     29  C   UNL     1       7.385   7.833  17.457  0.00  0.00    +0.000 C 
ATOM     30  C   UNL     1       7.765   6.615  18.241  0.00  0.00    +0.000 C 
ENDBRANCH  26  28
BRANCH  24  31
ATOM     31  C   UNL     1       2.799   3.265  17.353  0.00  0.00    +0.000 C 
BRANCH  31  32
ATOM     32  N   UNL     1       2.990   2.225  18.383  0.00  0.00    +0.000 NA
ATOM     33  C   UNL     1       3.823   2.705  19.508  0.00  0.00    +0.000 C 
ATOM     34  C   UNL     1       2.864   3.350  20.522  0.00  0.00    +0.000 C 
ATOM     35  C   UNL     1       1.594   2.567  20.376  0.00  0.00    +0.000 C 
ATOM     36  C   UNL     1       0.560   2.809  19.312  0.00  0.00    +0.000 C 
ATOM     37  C   UNL     1       1.687   1.854  19.044  0.00  0.00    +0.000 C 
ENDBRANCH  31  32
ENDBRANCH  24  31
ENDBRANCH   2  22
TORSDOF 8
ENDMDL
MODEL 3
REMARK VINA RESULT:      -9.5      1.909      2.882
REMARK  Name = 
REMARK  9 active torsions:
REMARK  status: ('A' for Active; 'I' for Inactive)
REMARK    1  A    between atoms: C_1  and  N_2
REMARK    2  A    between atoms: C_6  and  C_7
REMARK    3  A    between atoms: C_7  and  C_8
REMARK    4  A    between atoms: C_8  and  C_9
REMARK    5  A    between atoms: C_13  and  N_14
REMARK    6  A    between atoms: C_15  and  C_17
REMARK    7  A    between atoms: C_19  and  C_20
REMARK    8  A    between atoms: C_20  and  N_21
REMARK    9  A    between atoms: C_28  and  C_29
REMARK                            x       y       z     vdW  Elec       q    Type
REMARK                         _______ _______ _______ _____ _____    ______ ____
ROOT
ATOM      1  N   UNL     1       1.963   7.904  20.053  0.00  0.00    +0.000 N 
ATOM      2  C   UNL     1       2.260   7.971  18.708  0.00  0.00    +0.000 C 
ATOM      3  O   UNL     1       1.885   8.851  17.929  0.00  0.00    +0.000 OA
ATOM      4  H   UNL     1       2.427   7.156  20.563  0.00  0.00    +0.000 HD
ENDROOT
BRANCH   1   9
ATOM      5  C   UNL     1      -0.398  10.728  20.651  0.00  0.00    +0.000 A 
ATOM      6  C   UNL     1      -0.553  10.631  22.048  0.00  0.00    +0.000 A 
ATOM      7  C   UNL     1       0.066   9.625  22.780  0.00  0.00    +0.000 A 
ATOM      8  C   UNL     1       0.881   8.698  22.134  0.00  0.00    +0.000 A 
ATOM      9  C   UNL     1       1.079   8.756  20.753  0.00  0.00    +0.000 A 
ATOM     10  C   UNL     1       0.415   9.750  20.029  0.00  0.00    +0.000 A 
BRANCH   5  11
ATOM     11  C   UNL     1      -1.048  11.928  19.815  0.00  0.00    +0.000 C 
ATOM     12  C   UNL     1      -2.241  12.676  20.480  0.00  0.00    +0.000 C 
ATOM     13  O   UNL     1      -3.141  12.325  19.413  0.00  0.00    +0.000 OA
ATOM     14  C   UNL     1      -2.112  11.567  18.742  0.00  0.00    +0.000 C 
BRANCH  11  15
ATOM     15  C   UNL     1       0.060  12.902  19.363  0.00  0.00    +0.000 C 
BRANCH  15  21
ATOM     16  C   UNL     1      -0.620  15.992  19.958  0.00  0.00    +0.000 C 
ATOM     17  N   UNL     1       0.315  15.133  20.633  0.00  0.00    +0.000 N 
ATOM     18  C   UNL     1       1.139  15.544  21.641  0.00  0.00    +0.000 A 
ATOM     19  N   UNL     1       1.849  14.530  22.070  0.00  0.00    +0.000 NA
ATOM     20  N   UNL     1       1.504  13.436  21.320  0.00  0.00    +0.000 NA
ATOM     21  C   UNL     1       0.596  13.800  20.433  0.00  0.00    +0.000 A 
ENDBRANCH  15  21
ENDBRANCH  11  15
ENDBRANCH   5  11
ENDBRANCH   1   9
BRANCH   2  22
ATOM     22  C   UNL     1       3.122   6.880  18.170  0.00  0.00    +0.000 A 
ATOM     23  C   UNL     1       2.560   5.619  18.020  0.00  0.00    +0.000 A 
ATOM     24  C   UNL     1       3.333   4.570  17.526  0.00  0.00    +0.000 A 
ATOM     25  C   UNL     1       4.657   4.863  17.187  0.00  0.00    +0.000 A 
ATOM     26  C   UNL     1       5.169   6.166  17.357  0.00  0.00    +0.000 A 
ATOM     27  N   UNL     1       4.406   7.178  17.858  0.00  0.00    +0.000 NA
BRANCH  26  28
ATOM     28  C   UNL     1       6.596   6.503  16.979  0.00  0.00    +0.000 C 
ATOM     29  C   UNL     1       7.245   7.773  17.475  0.00  0.00    +0.000 C 
ATOM     30  C   UNL     1       7.667   6.456  18.050  0.00  0.00    +0.000 C 
ENDBRANCH  26  28
BRANCH  24  31
ATOM     31  C   UNL     1       2.627   3.250  17.271  0.00  0.00    +0.000 C 
BRANCH  31  32
ATOM     32  N   UNL     1       2.847   2.147  18.226  0.00  0.00    +0.000 NA
ATOM     33  C   UNL     1       3.854   2.496  19.253  0.00  0.00    +0.000 C 
ATOM     34  C   UNL     1       3.093   3.169  20.406  0.00  0.00    +0.000 C 
ATOM     35  C   UNL     1       1.748   2.508  20.394  0.00  0.00    +0.000 C 
ATOM     36  C   UNL     1       0.615   2.892  19.481  0.00  0.00    +0.000 C 
ATOM     37  C   UNL     1       1.608   1.858  19.034  0.00  0.00    +0.000 C 
ENDBRANCH  31  32
ENDBRANCH  24  31
ENDBRANCH   2  22
TORSDOF 8
ENDMDL
MODEL 4
REMARK VINA RESULT:      -9.4      2.084      3.169
REMARK  Name = 
REMARK  9 active torsions:
REMARK  status: ('A' for Active; 'I' for Inactive)
REMARK    1  A    between atoms: C_1  and  N_2
REMARK    2  A    between atoms: C_6  and  C_7
REMARK    3  A    between atoms: C_7  and  C_8
REMARK    4  A    between atoms: C_8  and  C_9
REMARK    5  A    between atoms: C_13  and  N_14
REMARK    6  A    between atoms: C_15  and  C_17
REMARK    7  A    between atoms: C_19  and  C_20
REMARK    8  A    between atoms: C_20  and  N_21
REMARK    9  A    between atoms: C_28  and  C_29
REMARK                            x       y       z     vdW  Elec       q    Type
REMARK                         _______ _______ _______ _____ _____    ______ ____
ROOT
ATOM      1  N   UNL     1       1.931   8.037  19.958  0.00  0.00    +0.000 N 
ATOM      2  C   UNL     1       2.204   8.045  18.606  0.00  0.00    +0.000 C 
ATOM      3  O   UNL     1       1.797   8.878  17.792  0.00  0.00    +0.000 OA
ATOM      4  H   UNL     1       2.420   7.324  20.495  0.00  0.00    +0.000 HD
ENDROOT
BRANCH   1   9
ATOM      5  C   UNL     1      -0.455  10.857  20.469  0.00  0.00    +0.000 A 
ATOM      6  C   UNL     1      -0.608  10.803  21.869  0.00  0.00    +0.000 A 
ATOM      7  C   UNL     1       0.019   9.824  22.631  0.00  0.00    +0.000 A 
ATOM      8  C   UNL     1       0.842   8.885  22.014  0.00  0.00    +0.000 A 
ATOM      9  C   UNL     1       1.040   8.902  20.631  0.00  0.00    +0.000 A 
ATOM     10  C   UNL     1       0.367   9.868  19.878  0.00  0.00    +0.000 A 
BRANCH   5  11
ATOM     11  C   UNL     1      -1.114  12.026  19.597  0.00  0.00    +0.000 C 
ATOM     12  C   UNL     1      -2.580  11.799  19.122  0.00  0.00    +0.000 C 
ATOM     13  O   UNL     1      -2.211  11.873  17.733  0.00  0.00    +0.000 OA
ATOM     14  C   UNL     1      -0.818  12.042  18.072  0.00  0.00    +0.000 C 
BRANCH  11  15
ATOM     15  C   UNL     1      -0.950  13.374  20.329  0.00  0.00    +0.000 C 
BRANCH  15  21
ATOM     16  C   UNL     1       2.270  13.364  20.376  0.00  0.00    +0.000 C 
ATOM     17  N   UNL     1       1.384  14.322  19.772  0.00  0.00    +0.000 N 
ATOM     18  C   UNL     1       1.804  15.461  19.147  0.00  0.00    +0.000 A 
ATOM     19  N   UNL     1       0.769  16.111  18.675  0.00  0.00    +0.000 NA
ATOM     20  N   UNL     1      -0.354  15.400  19.010  0.00  0.00    +0.000 NA
ATOM     21  C   UNL     1       0.010  14.331  19.695  0.00  0.00    +0.000 A 
ENDBRANCH  15  21
ENDBRANCH  11  15
ENDBRANCH   5  11
ENDBRANCH   1   9
BRANCH   2  22
ATOM     22  C   UNL     1       3.081   6.948  18.106  0.00  0.00    +0.000 A 
ATOM     23  C   UNL     1       2.532   5.679  17.984  0.00  0.00    +0.000 A 
ATOM     24  C   UNL     1       3.319   4.624  17.526  0.00  0.00    +0.000 A 
ATOM     25  C   UNL     1       4.644   4.920  17.192  0.00  0.00    +0.000 A 
ATOM     26  C   UNL     1       5.142   6.232  17.332  0.00  0.00    +0.000 A 
ATOM     27  N   UNL     1       4.365   7.250  17.798  0.00  0.00    +0.000 NA
BRANCH  26  28
ATOM     28  C   UNL     1       6.570   6.572  16.958  0.00  0.00    +0.000 C 
ATOM     29  C   UNL     1       7.236   7.811  17.509  0.00  0.00    +0.000 C 
ATOM     30  C   UNL     1       7.649   6.463  18.018  0.00  0.00    +0.000 C 
ENDBRANCH  26  28
BRANCH  24  31
ATOM     31  C   UNL     1       2.628   3.291  17.300  0.00  0.00    +0.000 C 
BRANCH  31  32
ATOM     32  N   UNL     1       2.875   2.206  18.269  0.00  0.00    +0.000 NA
ATOM     33  C   UNL     1       3.842   2.606  19.315  0.00  0.00    +0.000 C 
ATOM     34  C   UNL     1       3.026   3.253  20.445  0.00  0.00    +0.000 C 
ATOM     35  C   UNL     1       1.712   2.532  20.408  0.00  0.00    +0.000 C 
ATOM     36  C   UNL     1       0.585   2.858  19.468  0.00  0.00    +0.000 C 
ATOM     37  C   UNL     1       1.632   1.867  19.051  0.00  0.00    +0.000 C 
ENDBRANCH  31  32
ENDBRANCH  24  31
ENDBRANCH   2  22
TORSDOF 8
ENDMDL
MODEL 5
REMARK VINA RESULT:      -9.4      2.217      3.196
REMARK  Name = 
REMARK  9 active torsions:
REMARK  status: ('A' for Active; 'I' for Inactive)
REMARK    1  A    between atoms: C_1  and  N_2
REMARK    2  A    between atoms: C_6  and  C_7
REMARK    3  A    between atoms: C_7  and  C_8
REMARK    4  A    between atoms: C_8  and  C_9
REMARK    5  A    between atoms: C_13  and  N_14
REMARK    6  A    between atoms: C_15  and  C_17
REMARK    7  A    between atoms: C_19  and  C_20
REMARK    8  A    between atoms: C_20  and  N_21
REMARK    9  A    between atoms: C_28  and  C_29
REMARK                            x       y       z     vdW  Elec       q    Type
REMARK                         _______ _______ _______ _____ _____    ______ ____
ROOT
ATOM      1  N   UNL     1       0.700   9.071  18.877  0.00  0.00    +0.000 N 
ATOM      2  C   UNL     1       1.862   9.084  18.134  0.00  0.00    +0.000 C 
ATOM      3  O   UNL     1       2.247  10.005  17.411  0.00  0.00    +0.000 OA
ATOM      4  H   UNL     1       0.582   8.263  19.485  0.00  0.00    +0.000 HD
ENDROOT
BRANCH   1   9
ATOM      5  C   UNL     1      -1.549  11.783  20.097  0.00  0.00    +0.000 A 
ATOM      6  C   UNL     1      -2.417  11.902  18.993  0.00  0.00    +0.000 A 
ATOM      7  C   UNL     1      -2.239  11.142  17.843  0.00  0.00    +0.000 A 
ATOM      8  C   UNL     1      -1.198  10.219  17.776  0.00  0.00    +0.000 A 
ATOM      9  C   UNL     1      -0.317  10.051  18.846  0.00  0.00    +0.000 A 
ATOM     10  C   UNL     1      -0.488  10.855  19.977  0.00  0.00    +0.000 A 
BRANCH   5  11
ATOM     11  C   UNL     1      -1.795  12.602  21.450  0.00  0.00    +0.000 C 
ATOM     12  C   UNL     1      -0.564  13.347  22.048  0.00  0.00    +0.000 C 
ATOM     13  O   UNL     1      -0.621  12.593  23.273  0.00  0.00    +0.000 OA
ATOM     14  C   UNL     1      -1.737  11.816  22.789  0.00  0.00    +0.000 C 
BRANCH  11  15
ATOM     15  C   UNL     1      -3.005  13.542  21.273  0.00  0.00    +0.000 C 
BRANCH  15  21
ATOM     16  C   UNL     1      -3.636  14.743  24.193  0.00  0.00    +0.000 C 
ATOM     17  N   UNL     1      -4.380  13.767  23.444  0.00  0.00    +0.000 N 
ATOM     18  C   UNL     1      -5.492  13.129  23.914  0.00  0.00    +0.000 A 
ATOM     19  N   UNL     1      -5.961  12.324  22.993  0.00  0.00    +0.000 NA
ATOM     20  N   UNL     1      -5.134  12.416  21.904  0.00  0.00    +0.000 NA
ATOM     21  C   UNL     1      -4.163  13.268  22.179  0.00  0.00    +0.000 A 
ENDBRANCH  15  21
ENDBRANCH  11  15
ENDBRANCH   5  11
ENDBRANCH   1   9
BRANCH   2  22
ATOM     22  C   UNL     1       2.723   7.871  18.240  0.00  0.00    +0.000 A 
ATOM     23  C   UNL     1       2.413   6.934  19.217  0.00  0.00    +0.000 A 
ATOM     24  C   UNL     1       3.196   5.789  19.353  0.00  0.00    +0.000 A 
ATOM     25  C   UNL     1       4.264   5.641  18.463  0.00  0.00    +0.000 A 
ATOM     26  C   UNL     1       4.524   6.625  17.487  0.00  0.00    +0.000 A 
ATOM     27  N   UNL     1       3.761   7.749  17.377  0.00  0.00    +0.000 NA
BRANCH  26  28
ATOM     28  C   UNL     1       5.666   6.472  16.505  0.00  0.00    +0.000 C 
ATOM     29  C   UNL     1       6.227   5.106  16.182  0.00  0.00    +0.000 C 
ATOM     30  C   UNL     1       5.395   5.822  15.162  0.00  0.00    +0.000 C 
ENDBRANCH  26  28
BRANCH  24  31
ATOM     31  C   UNL     1       2.732   4.748  20.357  0.00  0.00    +0.000 C 
BRANCH  31  32
ATOM     32  N   UNL     1       1.803   3.700  19.894  0.00  0.00    +0.000 NA
ATOM     33  C   UNL     1       1.373   3.919  18.495  0.00  0.00    +0.000 C 
ATOM     34  C   UNL     1       2.407   3.214  17.601  0.00  0.00    +0.000 C 
ATOM     35  C   UNL     1       2.863   2.045  18.420  0.00  0.00    +0.000 C 
ATOM     36  C   UNL     1       3.909   2.114  19.499  0.00  0.00    +0.000 C 
ATOM     37  C   UNL     1       2.468   2.348  19.849  0.00  0.00    +0.000 C 
ENDBRANCH  31  32
ENDBRANCH  24  31
ENDBRANCH   2  22
TORSDOF 8
ENDMDL
MODEL 6
REMARK VINA RESULT:      -9.3      2.875      3.973
REMARK  Name = 
REMARK  9 active torsions:
REMARK  status: ('A' for Active; 'I' for Inactive)
REMARK    1  A    between atoms: C_1  and  N_2
REMARK    2  A    between atoms: C_6  and  C_7
REMARK    3  A    between atoms: C_7  and  C_8
REMARK    4  A    between atoms: C_8  and  C_9
REMARK    5  A    between atoms: C_13  and  N_14
REMARK    6  A    between atoms: C_15  and  C_17
REMARK    7  A    between atoms: C_19  and  C_20
REMARK    8  A    between atoms: C_20  and  N_21
REMARK    9  A    between atoms: C_28  and  C_29
REMARK                            x       y       z     vdW  Elec       q    Type
REMARK                         _______ _______ _______ _____ _____    ______ ____
ROOT
ATOM      1  N   UNL     1       1.491   8.558  18.945  0.00  0.00    +0.000 N 
ATOM      2  C   UNL     1       2.419   8.606  17.925  0.00  0.00    +0.000 C 
ATOM      3  O   UNL     1       2.577   9.539  17.136  0.00  0.00    +0.000 OA
ATOM      4  H   UNL     1       1.557   7.746  19.555  0.00  0.00    +0.000 HD
ENDROOT
BRANCH   1   9
ATOM      5  C   UNL     1      -1.644  10.508  18.423  0.00  0.00    +0.000 A 
ATOM      6  C   UNL     1      -1.515  11.467  19.447  0.00  0.00    +0.000 A 
ATOM      7  C   UNL     1      -0.441  11.446  20.330  0.00  0.00    +0.000 A 
ATOM      8  C   UNL     1       0.549  10.476  20.196  0.00  0.00    +0.000 A 
ATOM      9  C   UNL     1       0.476   9.510  19.190  0.00  0.00    +0.000 A 
ATOM     10  C   UNL     1      -0.632   9.523  18.338  0.00  0.00    +0.000 A 
BRANCH   5  11
ATOM     11  C   UNL     1      -2.838  10.572  17.358  0.00  0.00    +0.000 C 
ATOM     12  C   UNL     1      -2.750   9.592  16.151  0.00  0.00    +0.000 C 
ATOM     13  O   UNL     1      -2.722  10.668  15.195  0.00  0.00    +0.000 OA
ATOM     14  C   UNL     1      -2.755  11.655  16.247  0.00  0.00    +0.000 C 
BRANCH  11  15
ATOM     15  C   UNL     1      -4.191  10.460  18.090  0.00  0.00    +0.000 C 
BRANCH  15  21
ATOM     16  C   UNL     1      -4.817  12.644  20.372  0.00  0.00    +0.000 C 
ATOM     17  N   UNL     1      -5.337  12.571  19.034  0.00  0.00    +0.000 N 
ATOM     18  C   UNL     1      -6.268  13.431  18.529  0.00  0.00    +0.000 A 
ATOM     19  N   UNL     1      -6.517  13.127  17.279  0.00  0.00    +0.000 NA
ATOM     20  N   UNL     1      -5.753  12.036  16.959  0.00  0.00    +0.000 NA
ATOM     21  C   UNL     1      -5.056  11.680  18.022  0.00  0.00    +0.000 A 
ENDBRANCH  15  21
ENDBRANCH  11  15
ENDBRANCH   5  11
ENDBRANCH   1   9
BRANCH   2  22
ATOM     22  C   UNL     1       3.308   7.417  17.790  0.00  0.00    +0.000 A 
ATOM     23  C   UNL     1       2.735   6.157  17.906  0.00  0.00    +0.000 A 
ATOM     24  C   UNL     1       3.532   5.019  17.792  0.00  0.00    +0.000 A 
ATOM     25  C   UNL     1       4.894   5.221  17.546  0.00  0.00    +0.000 A 
ATOM     26  C   UNL     1       5.416   6.527  17.433  0.00  0.00    +0.000 A 
ATOM     27  N   UNL     1       4.627   7.630  17.564  0.00  0.00    +0.000 NA
BRANCH  26  28
ATOM     28  C   UNL     1       6.885   6.761  17.150  0.00  0.00    +0.000 C 
ATOM     29  C   UNL     1       7.551   8.055  17.555  0.00  0.00    +0.000 C 
ATOM     30  C   UNL     1       7.857   6.800  18.313  0.00  0.00    +0.000 C 
ENDBRANCH  26  28
BRANCH  24  31
ATOM     31  C   UNL     1       2.827   3.675  17.805  0.00  0.00    +0.000 C 
BRANCH  31  32
ATOM     32  N   UNL     1       3.064   2.776  18.950  0.00  0.00    +0.000 NA
ATOM     33  C   UNL     1       3.448   3.521  20.170  0.00  0.00    +0.000 C 
ATOM     34  C   UNL     1       2.141   3.883  20.894  0.00  0.00    +0.000 C 
ATOM     35  C   UNL     1       1.214   2.752  20.566  0.00  0.00    +0.000 C 
ATOM     36  C   UNL     1       0.424   2.637  19.291  0.00  0.00    +0.000 C 
ATOM     37  C   UNL     1       1.806   2.054  19.360  0.00  0.00    +0.000 C 
ENDBRANCH  31  32
ENDBRANCH  24  31
ENDBRANCH   2  22
TORSDOF 8
ENDMDL
MODEL 7
REMARK VINA RESULT:      -9.3      1.783      2.682
REMARK  Name = 
REMARK  9 active torsions:
REMARK  status: ('A' for Active; 'I' for Inactive)
REMARK    1  A    between atoms: C_1  and  N_2
REMARK    2  A    between atoms: C_6  and  C_7
REMARK    3  A    between atoms: C_7  and  C_8
REMARK    4  A    between atoms: C_8  and  C_9
REMARK    5  A    between atoms: C_13  and  N_14
REMARK    6  A    between atoms: C_15  and  C_17
REMARK    7  A    between atoms: C_19  and  C_20
REMARK    8  A    between atoms: C_20  and  N_21
REMARK    9  A    between atoms: C_28  and  C_29
REMARK                            x       y       z     vdW  Elec       q    Type
REMARK                         _______ _______ _______ _____ _____    ______ ____
ROOT
ATOM      1  N   UNL     1       1.997   7.987  19.890  0.00  0.00    +0.000 N 
ATOM      2  C   UNL     1       2.299   7.975  18.544  0.00  0.00    +0.000 C 
ATOM      3  O   UNL     1       1.902   8.789  17.708  0.00  0.00    +0.000 OA
ATOM      4  H   UNL     1       2.481   7.287  20.449  0.00  0.00    +0.000 HD
ENDROOT
BRANCH   1   9
ATOM      5  C   UNL     1       0.021  11.080  20.547  0.00  0.00    +0.000 A 
ATOM      6  C   UNL     1      -0.558  10.746  21.789  0.00  0.00    +0.000 A 
ATOM      7  C   UNL     1      -0.346   9.506  22.379  0.00  0.00    +0.000 A 
ATOM      8  C   UNL     1       0.475   8.570  21.754  0.00  0.00    +0.000 A 
ATOM      9  C   UNL     1       1.083   8.854  20.529  0.00  0.00    +0.000 A 
ATOM     10  C   UNL     1       0.825  10.091  19.931  0.00  0.00    +0.000 A 
BRANCH   5  11
ATOM     11  C   UNL     1      -0.159  12.532  19.900  0.00  0.00    +0.000 C 
ATOM     12  C   UNL     1       0.716  12.854  18.653  0.00  0.00    +0.000 C 
ATOM     13  O   UNL     1       1.368  13.954  19.313  0.00  0.00    +0.000 OA
ATOM     14  C   UNL     1       0.637  13.707  20.532  0.00  0.00    +0.000 C 
BRANCH  11  15
ATOM     15  C   UNL     1      -1.656  12.799  19.635  0.00  0.00    +0.000 C 
BRANCH  15  21
ATOM     16  C   UNL     1      -4.774  12.128  19.195  0.00  0.00    +0.000 C 
ATOM     17  N   UNL     1      -3.634  11.595  18.499  0.00  0.00    +0.000 N 
ATOM     18  C   UNL     1      -3.711  10.629  17.537  0.00  0.00    +0.000 A 
ATOM     19  N   UNL     1      -2.513  10.375  17.072  0.00  0.00    +0.000 NA
ATOM     20  N   UNL     1      -1.628  11.172  17.751  0.00  0.00    +0.000 NA
ATOM     21  C   UNL     1      -2.297  11.893  18.631  0.00  0.00    +0.000 A 
ENDBRANCH  15  21
ENDBRANCH  11  15
ENDBRANCH   5  11
ENDBRANCH   1   9
BRANCH   2  22
ATOM     22  C   UNL     1       3.196   6.878  18.081  0.00  0.00    +0.000 A 
ATOM     23  C   UNL     1       2.659   5.603  17.959  0.00  0.00    +0.000 A 
ATOM     24  C   UNL     1       3.465   4.548  17.535  0.00  0.00    +0.000 A 
ATOM     25  C   UNL     1       4.798   4.849  17.236  0.00  0.00    +0.000 A 
ATOM     26  C   UNL     1       5.283   6.165  17.375  0.00  0.00    +0.000 A 
ATOM     27  N   UNL     1       4.487   7.184  17.808  0.00  0.00    +0.000 NA
BRANCH  26  28
ATOM     28  C   UNL     1       6.719   6.510  17.039  0.00  0.00    +0.000 C 
ATOM     29  C   UNL     1       7.321   7.822  17.485  0.00  0.00    +0.000 C 
ATOM     30  C   UNL     1       7.742   6.551  18.157  0.00  0.00    +0.000 C 
ENDBRANCH  26  28
BRANCH  24  31
ATOM     31  C   UNL     1       2.789   3.209  17.304  0.00  0.00    +0.000 C 
BRANCH  31  32
ATOM     32  N   UNL     1       2.988   2.146  18.308  0.00  0.00    +0.000 NA
ATOM     33  C   UNL     1       3.870   2.585  19.412  0.00  0.00    +0.000 C 
ATOM     34  C   UNL     1       2.963   3.233  20.470  0.00  0.00    +0.000 C 
ATOM     35  C   UNL     1       1.670   2.483  20.354  0.00  0.00    +0.000 C 
ATOM     36  C   UNL     1       0.606   2.769  19.330  0.00  0.00    +0.000 C 
ATOM     37  C   UNL     1       1.700   1.793  19.007  0.00  0.00    +0.000 C 
ENDBRANCH  31  32
ENDBRANCH  24  31
ENDBRANCH   2  22
TORSDOF 8
ENDMDL
MODEL 8
REMARK VINA RESULT:      -9.2      2.076      3.095
REMARK  Name = 
REMARK  9 active torsions:
REMARK  status: ('A' for Active; 'I' for Inactive)
REMARK    1  A    between atoms: C_1  and  N_2
REMARK    2  A    between atoms: C_6  and  C_7
REMARK    3  A    between atoms: C_7  and  C_8
REMARK    4  A    between atoms: C_8  and  C_9
REMARK    5  A    between atoms: C_13  and  N_14
REMARK    6  A    between atoms: C_15  and  C_17
REMARK    7  A    between atoms: C_19  and  C_20
REMARK    8  A    between atoms: C_20  and  N_21
REMARK    9  A    between atoms: C_28  and  C_29
REMARK                            x       y       z     vdW  Elec       q    Type
REMARK                         _______ _______ _______ _____ _____    ______ ____
ROOT
ATOM      1  N   UNL     1       0.728   9.177  18.844  0.00  0.00    +0.000 N 
ATOM      2  C   UNL     1       1.856   9.191  18.051  0.00  0.00    +0.000 C 
ATOM      3  O   UNL     1       2.191  10.100  17.288  0.00  0.00    +0.000 OA
ATOM      4  H   UNL     1       0.652   8.384  19.478  0.00  0.00    +0.000 HD
ENDROOT
BRANCH   1   9
ATOM      5  C   UNL     1      -1.523  11.878  20.087  0.00  0.00    +0.000 A 
ATOM      6  C   UNL     1      -2.439  11.950  19.019  0.00  0.00    +0.000 A 
ATOM      7  C   UNL     1      -2.294  11.162  17.883  0.00  0.00    +0.000 A 
ATOM      8  C   UNL     1      -1.238  10.258  17.795  0.00  0.00    +0.000 A 
ATOM      9  C   UNL     1      -0.310  10.136  18.831  0.00  0.00    +0.000 A 
ATOM     10  C   UNL     1      -0.449  10.967  19.947  0.00  0.00    +0.000 A 
BRANCH   5  11
ATOM     11  C   UNL     1      -1.727  12.728  21.428  0.00  0.00    +0.000 C 
ATOM     12  C   UNL     1      -1.162  12.108  22.740  0.00  0.00    +0.000 C 
ATOM     13  O   UNL     1      -2.462  12.063  23.356  0.00  0.00    +0.000 OA
ATOM     14  C   UNL     1      -3.087  12.592  22.167  0.00  0.00    +0.000 C 
BRANCH  11  15
ATOM     15  C   UNL     1      -1.220  14.168  21.209  0.00  0.00    +0.000 C 
BRANCH  15  21
ATOM     16  C   UNL     1       0.909  14.182  18.794  0.00  0.00    +0.000 C 
ATOM     17  N   UNL     1       1.153  14.293  20.206  0.00  0.00    +0.000 N 
ATOM     18  C   UNL     1       2.398  14.364  20.762  0.00  0.00    +0.000 A 
ATOM     19  N   UNL     1       2.294  14.488  22.062  0.00  0.00    +0.000 NA
ATOM     20  N   UNL     1       0.959  14.479  22.373  0.00  0.00    +0.000 NA
ATOM     21  C   UNL     1       0.266  14.336  21.258  0.00  0.00    +0.000 A 
ENDBRANCH  15  21
ENDBRANCH  11  15
ENDBRANCH   5  11
ENDBRANCH   1   9
BRANCH   2  22
ATOM     22  C   UNL     1       2.745   7.999  18.152  0.00  0.00    +0.000 A 
ATOM     23  C   UNL     1       2.515   7.099  19.183  0.00  0.00    +0.000 A 
ATOM     24  C   UNL     1       3.326   5.973  19.317  0.00  0.00    +0.000 A 
ATOM     25  C   UNL     1       4.340   5.806  18.368  0.00  0.00    +0.000 A 
ATOM     26  C   UNL     1       4.521   6.754  17.339  0.00  0.00    +0.000 A 
ATOM     27  N   UNL     1       3.730   7.859  17.232  0.00  0.00    +0.000 NA
BRANCH  26  28
ATOM     28  C   UNL     1       5.603   6.579  16.295  0.00  0.00    +0.000 C 
ATOM     29  C   UNL     1       6.433   5.318  16.249  0.00  0.00    +0.000 C 
ATOM     30  C   UNL     1       5.399   5.558  15.193  0.00  0.00    +0.000 C 
ENDBRANCH  26  28
BRANCH  24  31
ATOM     31  C   UNL     1       2.945   4.967  20.388  0.00  0.00    +0.000 C 
BRANCH  31  32
ATOM     32  N   UNL     1       3.239   3.543  20.142  0.00  0.00    +0.000 NA
ATOM     33  C   UNL     1       2.717   2.674  21.220  0.00  0.00    +0.000 C 
ATOM     34  C   UNL     1       1.275   2.309  20.833  0.00  0.00    +0.000 C 
ATOM     35  C   UNL     1       1.295   2.276  19.334  0.00  0.00    +0.000 C 
ATOM     36  C   UNL     1       1.178   3.488  18.452  0.00  0.00    +0.000 C 
ATOM     37  C   UNL     1       2.534   3.035  18.910  0.00  0.00    +0.000 C 
ENDBRANCH  31  32
ENDBRANCH  24  31
ENDBRANCH   2  22
TORSDOF 8
ENDMDL
MODEL 9
REMARK VINA RESULT:      -9.2      2.187      3.317
REMARK  Name = 
REMARK  9 active torsions:
REMARK  status: ('A' for Active; 'I' for Inactive)
REMARK    1  A    between atoms: C_1  and  N_2
REMARK    2  A    between atoms: C_6  and  C_7
REMARK    3  A    between atoms: C_7  and  C_8
REMARK    4  A    between atoms: C_8  and  C_9
REMARK    5  A    between atoms: C_13  and  N_14
REMARK    6  A    between atoms: C_15  and  C_17
REMARK    7  A    between atoms: C_19  and  C_20
REMARK    8  A    between atoms: C_20  and  N_21
REMARK    9  A    between atoms: C_28  and  C_29
REMARK                            x       y       z     vdW  Elec       q    Type
REMARK                         _______ _______ _______ _____ _____    ______ ____
ROOT
ATOM      1  N   UNL     1       0.447   9.430  19.024  0.00  0.00    +0.000 N 
ATOM      2  C   UNL     1       1.575   9.421  18.231  0.00  0.00    +0.000 C 
ATOM      3  O   UNL     1       1.929  10.323  17.470  0.00  0.00    +0.000 OA
ATOM      4  H   UNL     1       0.354   8.637  19.656  0.00  0.00    +0.000 HD
ENDROOT
BRANCH   1   9
ATOM      5  C   UNL     1      -1.871  12.041  20.332  0.00  0.00    +0.000 A 
ATOM      6  C   UNL     1      -2.674  12.255  19.193  0.00  0.00    +0.000 A 
ATOM      7  C   UNL     1      -2.428  11.592  17.997  0.00  0.00    +0.000 A 
ATOM      8  C   UNL     1      -1.384  10.673  17.914  0.00  0.00    +0.000 A 
ATOM      9  C   UNL     1      -0.567  10.414  19.016  0.00  0.00    +0.000 A 
ATOM     10  C   UNL     1      -0.804  11.122  20.198  0.00  0.00    +0.000 A 
BRANCH   5  11
ATOM     11  C   UNL     1      -2.196  12.746  21.732  0.00  0.00    +0.000 C 
ATOM     12  C   UNL     1      -1.714  12.005  23.014  0.00  0.00    +0.000 C 
ATOM     13  O   UNL     1      -3.054  11.875  23.522  0.00  0.00    +0.000 OA
ATOM     14  C   UNL     1      -3.602  12.512  22.349  0.00  0.00    +0.000 C 
BRANCH  11  15
ATOM     15  C   UNL     1      -1.711  14.210  21.699  0.00  0.00    +0.000 C 
BRANCH  15  21
ATOM     16  C   UNL     1      -0.076  14.931  19.020  0.00  0.00    +0.000 C 
ATOM     17  N   UNL     1       0.434  14.655  20.336  0.00  0.00    +0.000 N 
ATOM     18  C   UNL     1       1.763  14.598  20.642  0.00  0.00    +0.000 A 
ATOM     19  N   UNL     1       1.910  14.359  21.922  0.00  0.00    +0.000 NA
ATOM     20  N   UNL     1       0.658  14.236  22.466  0.00  0.00    +0.000 NA
ATOM     21  C   UNL     1      -0.237  14.390  21.508  0.00  0.00    +0.000 A 
ENDBRANCH  15  21
ENDBRANCH  11  15
ENDBRANCH   5  11
ENDBRANCH   1   9
BRANCH   2  22
ATOM     22  C   UNL     1       2.435   8.207  18.325  0.00  0.00    +0.000 A 
ATOM     23  C   UNL     1       2.183   7.308  19.353  0.00  0.00    +0.000 A 
ATOM     24  C   UNL     1       2.968   6.163  19.481  0.00  0.00    +0.000 A 
ATOM     25  C   UNL     1       3.978   5.977  18.532  0.00  0.00    +0.000 A 
ATOM     26  C   UNL     1       4.181   6.925  17.508  0.00  0.00    +0.000 A 
ATOM     27  N   UNL     1       3.417   8.048  17.405  0.00  0.00    +0.000 NA
BRANCH  26  28
ATOM     28  C   UNL     1       5.260   6.729  16.463  0.00  0.00    +0.000 C 
ATOM     29  C   UNL     1       6.301   5.646  16.623  0.00  0.00    +0.000 C 
ATOM     30  C   UNL     1       5.222   5.486  15.596  0.00  0.00    +0.000 C 
ENDBRANCH  26  28
BRANCH  24  31
ATOM     31  C   UNL     1       2.563   5.161  20.548  0.00  0.00    +0.000 C 
BRANCH  31  32
ATOM     32  N   UNL     1       1.342   4.364  20.327  0.00  0.00    +0.000 NA
ATOM     33  C   UNL     1       1.272   3.829  18.949  0.00  0.00    +0.000 C 
ATOM     34  C   UNL     1       1.996   2.474  18.964  0.00  0.00    +0.000 C 
ATOM     35  C   UNL     1       1.748   1.941  20.343  0.00  0.00    +0.000 C 
ATOM     36  C   UNL     1       2.539   2.328  21.563  0.00  0.00    +0.000 C 
ATOM     37  C   UNL     1       1.324   3.125  21.185  0.00  0.00    +0.000 C 
ENDBRANCH  31  32
ENDBRANCH  24  31
ENDBRANCH   2  22
TORSDOF 8
ENDMDL
