MODEL 1
REMARK VINA RESULT:      -9.7      0.000      0.000
REMARK  Name = 
REMARK  10 active torsions:
REMARK  status: ('A' for Active; 'I' for Inactive)
REMARK    1  A    between atoms: C_1  and  C_2
REMARK    2  A    between atoms: C_2  and  O_3
REMARK    3  A    between atoms: C_2  and  C_4
REMARK    4  A    between atoms: C_8  and  C_9
REMARK    5  A    between atoms: N_15  and  C_16
REMARK    6  A    between atoms: C_20  and  C_21
REMARK    7  A    between atoms: C_21  and  C_22
REMARK    8  A    between atoms: C_21  and  C_23
REMARK    9  A    between atoms: C_23  and  C_24
REMARK   10  A    between atoms: N_28  and  C_29
REMARK                            x       y       z     vdW  Elec       q    Type
REMARK                         _______ _______ _______ _____ _____    ______ ____
ROOT
ATOM      1  C   UNL     1      -0.014  11.783  19.453  0.00  0.00    +0.000 A 
ATOM      2  C   UNL     1       0.731  10.990  18.570  0.00  0.00    +0.000 A 
ATOM      3  C   UNL     1       1.164   9.753  19.010  0.00  0.00    +0.000 A 
ATOM      4  C   UNL     1       0.898   9.262  20.283  0.00  0.00    +0.000 A 
ATOM      5  C   UNL     1       0.192  10.034  21.199  0.00  0.00    +0.000 A 
ATOM      6  C   UNL     1      -0.263  11.299  20.762  0.00  0.00    +0.000 A 
ATOM      7  C   UNL     1       1.450   7.876  20.401  0.00  0.00    +0.000 C 
ATOM      8  N   UNL     1       2.079   7.649  19.107  0.00  0.00    +0.000 N 
ATOM      9  C   UNL     1       1.926   8.748  18.262  0.00  0.00    +0.000 C 
ATOM     10  O   UNL     1       2.286   8.943  17.116  0.00  0.00    +0.000 OA
ENDROOT
BRANCH   8  11
ATOM     11  C   UNL     1       2.760   6.443  18.798  0.00  0.00    +0.000 A 
ATOM     12  C   UNL     1       2.290   5.204  19.245  0.00  0.00    +0.000 A 
ATOM     13  C   UNL     1       2.957   4.020  18.924  0.00  0.00    +0.000 A 
ATOM     14  C   UNL     1       4.126   4.056  18.172  0.00  0.00    +0.000 A 
ATOM     15  C   UNL     1       4.639   5.280  17.724  0.00  0.00    +0.000 A 
ATOM     16  C   UNL     1       3.935   6.460  18.027  0.00  0.00    +0.000 A 
BRANCH  15  17
ATOM     17  C   UNL     1       5.936   5.361  16.932  0.00  0.00    +0.000 C 
ATOM     18  C   UNL     1       7.141   5.304  17.880  0.00  0.00    +0.000 C 
BRANCH  17  19
ATOM     19  C   UNL     1       6.048   4.264  15.854  0.00  0.00    +0.000 C 
BRANCH  19  20
ATOM     20  C   UNL     1       6.832   4.716  14.668  0.00  0.00    +0.000 A 
ATOM     21  N   UNL     1       7.851   5.554  14.680  0.00  0.00    +0.000 NA
ATOM     22  N   UNL     1       8.286   5.717  13.386  0.00  0.00    +0.000 NA
ATOM     23  C   UNL     1       7.532   4.972  12.614  0.00  0.00    +0.000 A 
ATOM     24  N   UNL     1       6.607   4.321  13.374  0.00  0.00    +0.000 N 
ATOM     25  C   UNL     1       5.618   3.398  12.896  0.00  0.00    +0.000 C 
ENDBRANCH  19  20
ENDBRANCH  17  19
ENDBRANCH  15  17
ENDBRANCH   8  11
BRANCH   5  26
ATOM     26  C   UNL     1      -0.094   9.572  22.605  0.00  0.00    +0.000 C 
ATOM     27  F   UNL     1      -0.729  10.504  23.368  0.00  0.00    +0.000 F 
ATOM     28  F   UNL     1      -0.887   8.466  22.630  0.00  0.00    +0.000 F 
ATOM     29  F   UNL     1       1.037   9.242  23.285  0.00  0.00    +0.000 F 
ENDBRANCH   5  26
BRANCH   1  31
ATOM     30  C   UNL     1       0.400  14.275  19.187  0.00  0.00    +0.000 C 
ATOM     31  C   UNL     1      -0.580  13.118  19.018  0.00  0.00    +0.000 C 
BRANCH  31  32
ATOM     32  O   UNL     1      -0.980  13.036  17.653  0.00  0.00    +0.000 OA
ATOM     33  H   UNL     1      -0.422  12.373  17.216  0.00  0.00    +0.000 HD
ENDBRANCH  31  32
ENDBRANCH   1  31
TORSDOF 7
ENDMDL
MODEL 2
REMARK VINA RESULT:      -9.3      3.864      8.960
REMARK  Name = 
REMARK  10 active torsions:
REMARK  status: ('A' for Active; 'I' for Inactive)
REMARK    1  A    between atoms: C_1  and  C_2
REMARK    2  A    between atoms: C_2  and  O_3
REMARK    3  A    between atoms: C_2  and  C_4
REMARK    4  A    between atoms: C_8  and  C_9
REMARK    5  A    between atoms: N_15  and  C_16
REMARK    6  A    between atoms: C_20  and  C_21
REMARK    7  A    between atoms: C_21  and  C_22
REMARK    8  A    between atoms: C_21  and  C_23
REMARK    9  A    between atoms: C_23  and  C_24
REMARK   10  A    between atoms: N_28  and  C_29
REMARK                            x       y       z     vdW  Elec       q    Type
REMARK                         _______ _______ _______ _____ _____    ______ ____
ROOT
ATOM      1  C   UNL     1       5.113   4.364  16.516  0.00  0.00    +0.000 A 
ATOM      2  C   UNL     1       4.821   5.702  16.810  0.00  0.00    +0.000 A 
ATOM      3  C   UNL     1       3.833   5.965  17.741  0.00  0.00    +0.000 A 
ATOM      4  C   UNL     1       3.118   4.969  18.395  0.00  0.00    +0.000 A 
ATOM      5  C   UNL     1       3.355   3.630  18.103  0.00  0.00    +0.000 A 
ATOM      6  C   UNL     1       4.367   3.344  17.158  0.00  0.00    +0.000 A 
ATOM      7  C   UNL     1       2.183   5.599  19.378  0.00  0.00    +0.000 C 
ATOM      8  N   UNL     1       2.406   7.027  19.194  0.00  0.00    +0.000 N 
ATOM      9  C   UNL     1       3.379   7.272  18.225  0.00  0.00    +0.000 C 
ATOM     10  O   UNL     1       3.852   8.311  17.800  0.00  0.00    +0.000 OA
ENDROOT
BRANCH   8  11
ATOM     11  C   UNL     1       1.687   8.006  19.926  0.00  0.00    +0.000 A 
ATOM     12  C   UNL     1       1.653   7.993  21.324  0.00  0.00    +0.000 A 
ATOM     13  C   UNL     1       0.956   8.968  22.039  0.00  0.00    +0.000 A 
ATOM     14  C   UNL     1       0.253   9.962  21.366  0.00  0.00    +0.000 A 
ATOM     15  C   UNL     1       0.247   9.997  19.966  0.00  0.00    +0.000 A 
ATOM     16  C   UNL     1       0.984   9.026  19.263  0.00  0.00    +0.000 A 
BRANCH  15  17
ATOM     17  C   UNL     1      -0.541  11.046  19.196  0.00  0.00    +0.000 C 
ATOM     18  C   UNL     1       0.344  12.265  18.904  0.00  0.00    +0.000 C 
BRANCH  17  19
ATOM     19  C   UNL     1      -1.149  10.498  17.891  0.00  0.00    +0.000 C 
BRANCH  19  20
ATOM     20  C   UNL     1      -2.561  10.942  17.695  0.00  0.00    +0.000 A 
ATOM     21  N   UNL     1      -3.327  11.525  18.597  0.00  0.00    +0.000 NA
ATOM     22  N   UNL     1      -4.554  11.764  18.026  0.00  0.00    +0.000 NA
ATOM     23  C   UNL     1      -4.510  11.332  16.789  0.00  0.00    +0.000 A 
ATOM     24  N   UNL     1      -3.277  10.811  16.533  0.00  0.00    +0.000 N 
ATOM     25  C   UNL     1      -2.835  10.258  15.285  0.00  0.00    +0.000 C 
ENDBRANCH  19  20
ENDBRANCH  17  19
ENDBRANCH  15  17
ENDBRANCH   8  11
BRANCH   5  26
ATOM     26  C   UNL     1       2.587   2.506  18.751  0.00  0.00    +0.000 C 
ATOM     27  F   UNL     1       1.271   2.472  18.403  0.00  0.00    +0.000 F 
ATOM     28  F   UNL     1       3.091   1.285  18.426  0.00  0.00    +0.000 F 
ATOM     29  F   UNL     1       2.611   2.575  20.110  0.00  0.00    +0.000 F 
ENDBRANCH   5  26
BRANCH   1  31
ATOM     30  C   UNL     1       5.876   4.248  14.096  0.00  0.00    +0.000 C 
ATOM     31  C   UNL     1       6.228   3.998  15.558  0.00  0.00    +0.000 C 
BRANCH  31  32
ATOM     32  O   UNL     1       7.397   4.741  15.894  0.00  0.00    +0.000 OA
ATOM     33  H   UNL     1       7.737   5.149  15.082  0.00  0.00    +0.000 HD
ENDBRANCH  31  32
ENDBRANCH   1  31
TORSDOF 7
ENDMDL
MODEL 3
REMARK VINA RESULT:      -9.1      1.622      2.518
REMARK  Name = 
REMARK  10 active torsions:
REMARK  status: ('A' for Active; 'I' for Inactive)
REMARK    1  A    between atoms: C_1  and  C_2
REMARK    2  A    between atoms: C_2  and  O_3
REMARK    3  A    between atoms: C_2  and  C_4
REMARK    4  A    between atoms: C_8  and  C_9
REMARK    5  A    between atoms: N_15  and  C_16
REMARK    6  A    between atoms: C_20  and  C_21
REMARK    7  A    between atoms: C_21  and  C_22
REMARK    8  A    between atoms: C_21  and  C_23
REMARK    9  A    between atoms: C_23  and  C_24
REMARK   10  A    between atoms: N_28  and  C_29
REMARK                            x       y       z     vdW  Elec       q    Type
REMARK                         _______ _______ _______ _____ _____    ______ ____
ROOT
ATOM      1  C   UNL     1      -0.186  11.535  19.387  0.00  0.00    +0.000 A 
ATOM      2  C   UNL     1       0.618  10.732  18.568  0.00  0.00    +0.000 A 
ATOM      3  C   UNL     1       1.122   9.558  19.097  0.00  0.00    +0.000 A 
ATOM      4  C   UNL     1       0.870   9.140  20.399  0.00  0.00    +0.000 A 
ATOM      5  C   UNL     1       0.106   9.928  21.252  0.00  0.00    +0.000 A 
ATOM      6  C   UNL     1      -0.422  11.129  20.724  0.00  0.00    +0.000 A 
ATOM      7  C   UNL     1       1.506   7.804  20.618  0.00  0.00    +0.000 C 
ATOM      8  N   UNL     1       2.164   7.527  19.349  0.00  0.00    +0.000 N 
ATOM      9  C   UNL     1       1.954   8.554  18.428  0.00  0.00    +0.000 C 
ATOM     10  O   UNL     1       2.317   8.691  17.274  0.00  0.00    +0.000 OA
ENDROOT
BRANCH   8  11
ATOM     11  C   UNL     1       2.924   6.348  19.130  0.00  0.00    +0.000 A 
ATOM     12  C   UNL     1       2.934   5.304  20.062  0.00  0.00    +0.000 A 
ATOM     13  C   UNL     1       3.671   4.141  19.834  0.00  0.00    +0.000 A 
ATOM     14  C   UNL     1       4.437   4.012  18.680  0.00  0.00    +0.000 A 
ATOM     15  C   UNL     1       4.468   5.044  17.734  0.00  0.00    +0.000 A 
ATOM     16  C   UNL     1       3.691   6.194  17.964  0.00  0.00    +0.000 A 
BRANCH  15  17
ATOM     17  C   UNL     1       5.324   4.953  16.479  0.00  0.00    +0.000 C 
ATOM     18  C   UNL     1       5.031   6.138  15.550  0.00  0.00    +0.000 C 
BRANCH  17  19
ATOM     19  C   UNL     1       6.832   4.872  16.789  0.00  0.00    +0.000 C 
BRANCH  19  20
ATOM     20  C   UNL     1       7.376   6.170  17.286  0.00  0.00    +0.000 A 
ATOM     21  N   UNL     1       7.575   7.258  16.568  0.00  0.00    +0.000 NA
ATOM     22  N   UNL     1       8.096   8.226  17.394  0.00  0.00    +0.000 NA
ATOM     23  C   UNL     1       8.196   7.714  18.596  0.00  0.00    +0.000 A 
ATOM     24  N   UNL     1       7.753   6.426  18.580  0.00  0.00    +0.000 N 
ATOM     25  C   UNL     1       7.686   5.539  19.707  0.00  0.00    +0.000 C 
ENDBRANCH  19  20
ENDBRANCH  17  19
ENDBRANCH  15  17
ENDBRANCH   8  11
BRANCH   5  26
ATOM     26  C   UNL     1      -0.170   9.547  22.685  0.00  0.00    +0.000 C 
ATOM     27  F   UNL     1       0.954   9.303  23.412  0.00  0.00    +0.000 F 
ATOM     28  F   UNL     1      -0.844  10.522  23.355  0.00  0.00    +0.000 F 
ATOM     29  F   UNL     1      -0.931   8.424  22.787  0.00  0.00    +0.000 F 
ENDBRANCH   5  26
BRANCH   1  31
ATOM     30  C   UNL     1      -0.622  14.010  19.758  0.00  0.00    +0.000 C 
ATOM     31  C   UNL     1      -0.828  12.800  18.854  0.00  0.00    +0.000 C 
BRANCH  31  32
ATOM     32  O   UNL     1      -0.303  13.084  17.561  0.00  0.00    +0.000 OA
ATOM     33  H   UNL     1       0.588  13.453  17.673  0.00  0.00    +0.000 HD
ENDBRANCH  31  32
ENDBRANCH   1  31
TORSDOF 7
ENDMDL
MODEL 4
REMARK VINA RESULT:      -9.1      3.844      8.950
REMARK  Name = 
REMARK  10 active torsions:
REMARK  status: ('A' for Active; 'I' for Inactive)
REMARK    1  A    between atoms: C_1  and  C_2
REMARK    2  A    between atoms: C_2  and  O_3
REMARK    3  A    between atoms: C_2  and  C_4
REMARK    4  A    between atoms: C_8  and  C_9
REMARK    5  A    between atoms: N_15  and  C_16
REMARK    6  A    between atoms: C_20  and  C_21
REMARK    7  A    between atoms: C_21  and  C_22
REMARK    8  A    between atoms: C_21  and  C_23
REMARK    9  A    between atoms: C_23  and  C_24
REMARK   10  A    between atoms: N_28  and  C_29
REMARK                            x       y       z     vdW  Elec       q    Type
REMARK                         _______ _______ _______ _____ _____    ______ ____
ROOT
ATOM      1  C   UNL     1       4.801   4.786  16.704  0.00  0.00    +0.000 A 
ATOM      2  C   UNL     1       4.269   6.078  16.811  0.00  0.00    +0.000 A 
ATOM      3  C   UNL     1       3.474   6.368  17.904  0.00  0.00    +0.000 A 
ATOM      4  C   UNL     1       3.177   5.441  18.897  0.00  0.00    +0.000 A 
ATOM      5  C   UNL     1       3.657   4.139  18.807  0.00  0.00    +0.000 A 
ATOM      6  C   UNL     1       4.478   3.829  17.699  0.00  0.00    +0.000 A 
ATOM      7  C   UNL     1       2.355   6.103  19.958  0.00  0.00    +0.000 C 
ATOM      8  N   UNL     1       2.185   7.461  19.459  0.00  0.00    +0.000 N 
ATOM      9  C   UNL     1       2.837   7.645  18.239  0.00  0.00    +0.000 C 
ATOM     10  O   UNL     1       2.944   8.621  17.520  0.00  0.00    +0.000 OA
ENDROOT
BRANCH   8  11
ATOM     11  C   UNL     1       1.429   8.436  20.160  0.00  0.00    +0.000 A 
ATOM     12  C   UNL     1       1.403   8.472  21.558  0.00  0.00    +0.000 A 
ATOM     13  C   UNL     1       0.669   9.443  22.242  0.00  0.00    +0.000 A 
ATOM     14  C   UNL     1      -0.077  10.382  21.538  0.00  0.00    +0.000 A 
ATOM     15  C   UNL     1      -0.092  10.365  20.138  0.00  0.00    +0.000 A 
ATOM     16  C   UNL     1       0.681   9.401  19.465  0.00  0.00    +0.000 A 
BRANCH  15  17
ATOM     17  C   UNL     1      -0.927  11.353  19.336  0.00  0.00    +0.000 C 
ATOM     18  C   UNL     1      -0.119  12.626  19.054  0.00  0.00    +0.000 C 
BRANCH  17  19
ATOM     19  C   UNL     1      -1.461  10.753  18.020  0.00  0.00    +0.000 C 
BRANCH  19  20
ATOM     20  C   UNL     1      -2.868  11.163  17.742  0.00  0.00    +0.000 A 
ATOM     21  N   UNL     1      -3.728  11.643  18.620  0.00  0.00    +0.000 NA
ATOM     22  N   UNL     1      -4.915  11.885  17.969  0.00  0.00    +0.000 NA
ATOM     23  C   UNL     1      -4.753  11.557  16.710  0.00  0.00    +0.000 A 
ATOM     24  N   UNL     1      -3.483  11.102  16.518  0.00  0.00    +0.000 N 
ATOM     25  C   UNL     1      -2.919  10.668  15.272  0.00  0.00    +0.000 C 
ENDBRANCH  19  20
ENDBRANCH  17  19
ENDBRANCH  15  17
ENDBRANCH   8  11
BRANCH   5  26
ATOM     26  C   UNL     1       3.339   3.081  19.832  0.00  0.00    +0.000 C 
ATOM     27  F   UNL     1       2.870   3.581  21.007  0.00  0.00    +0.000 F 
ATOM     28  F   UNL     1       2.391   2.208  19.392  0.00  0.00    +0.000 F 
ATOM     29  F   UNL     1       4.424   2.327  20.155  0.00  0.00    +0.000 F 
ENDBRANCH   5  26
BRANCH   1  31
ATOM     30  C   UNL     1       7.034   5.216  15.572  0.00  0.00    +0.000 C 
ATOM     31  C   UNL     1       5.736   4.416  15.571  0.00  0.00    +0.000 C 
BRANCH  31  32
ATOM     32  O   UNL     1       6.040   3.026  15.649  0.00  0.00    +0.000 OA
ATOM     33  H   UNL     1       6.539   2.873  16.467  0.00  0.00    +0.000 HD
ENDBRANCH  31  32
ENDBRANCH   1  31
TORSDOF 7
ENDMDL
MODEL 5
REMARK VINA RESULT:      -9.1      3.787      8.949
REMARK  Name = 
REMARK  10 active torsions:
REMARK  status: ('A' for Active; 'I' for Inactive)
REMARK    1  A    between atoms: C_1  and  C_2
REMARK    2  A    between atoms: C_2  and  O_3
REMARK    3  A    between atoms: C_2  and  C_4
REMARK    4  A    between atoms: C_8  and  C_9
REMARK    5  A    between atoms: N_15  and  C_16
REMARK    6  A    between atoms: C_20  and  C_21
REMARK    7  A    between atoms: C_21  and  C_22
REMARK    8  A    between atoms: C_21  and  C_23
REMARK    9  A    between atoms: C_23  and  C_24
REMARK   10  A    between atoms: N_28  and  C_29
REMARK                            x       y       z     vdW  Elec       q    Type
REMARK                         _______ _______ _______ _____ _____    ______ ____
ROOT
ATOM      1  C   UNL     1       4.032   4.879  17.577  0.00  0.00    +0.000 A 
ATOM      2  C   UNL     1       3.561   6.198  17.605  0.00  0.00    +0.000 A 
ATOM      3  C   UNL     1       2.774   6.588  18.672  0.00  0.00    +0.000 A 
ATOM      4  C   UNL     1       2.428   5.736  19.714  0.00  0.00    +0.000 A 
ATOM      5  C   UNL     1       2.846   4.410  19.704  0.00  0.00    +0.000 A 
ATOM      6  C   UNL     1       3.658   3.997  18.622  0.00  0.00    +0.000 A 
ATOM      7  C   UNL     1       1.632   6.496  20.728  0.00  0.00    +0.000 C 
ATOM      8  N   UNL     1       1.529   7.829  20.150  0.00  0.00    +0.000 N 
ATOM      9  C   UNL     1       2.197   7.911  18.928  0.00  0.00    +0.000 C 
ATOM     10  O   UNL     1       2.355   8.837  18.154  0.00  0.00    +0.000 OA
ENDROOT
BRANCH   8  11
ATOM     11  C   UNL     1       0.817   8.878  20.787  0.00  0.00    +0.000 A 
ATOM     12  C   UNL     1       0.749   8.972  22.181  0.00  0.00    +0.000 A 
ATOM     13  C   UNL     1       0.058  10.015  22.801  0.00  0.00    +0.000 A 
ATOM     14  C   UNL     1      -0.603  10.970  22.037  0.00  0.00    +0.000 A 
ATOM     15  C   UNL     1      -0.575  10.897  20.639  0.00  0.00    +0.000 A 
ATOM     16  C   UNL     1       0.155   9.860  20.030  0.00  0.00    +0.000 A 
BRANCH  15  17
ATOM     17  C   UNL     1      -1.318  11.903  19.771  0.00  0.00    +0.000 C 
ATOM     18  C   UNL     1      -0.535  13.220  19.695  0.00  0.00    +0.000 C 
BRANCH  17  19
ATOM     19  C   UNL     1      -1.611  11.368  18.355  0.00  0.00    +0.000 C 
BRANCH  19  20
ATOM     20  C   UNL     1      -3.050  11.511  17.984  0.00  0.00    +0.000 A 
ATOM     21  N   UNL     1      -4.024  11.909  18.779  0.00  0.00    +0.000 NA
ATOM     22  N   UNL     1      -5.196  11.894  18.061  0.00  0.00    +0.000 NA
ATOM     23  C   UNL     1      -4.913  11.496  16.844  0.00  0.00    +0.000 A 
ATOM     24  N   UNL     1      -3.577  11.248  16.746  0.00  0.00    +0.000 N 
ATOM     25  C   UNL     1      -2.881  10.815  15.568  0.00  0.00    +0.000 C 
ENDBRANCH  19  20
ENDBRANCH  17  19
ENDBRANCH  15  17
ENDBRANCH   8  11
BRANCH   5  26
ATOM     26  C   UNL     1       2.472   3.428  20.785  0.00  0.00    +0.000 C 
ATOM     27  F   UNL     1       1.253   2.851  20.602  0.00  0.00    +0.000 F 
ATOM     28  F   UNL     1       3.361   2.402  20.878  0.00  0.00    +0.000 F 
ATOM     29  F   UNL     1       2.430   4.003  22.018  0.00  0.00    +0.000 F 
ENDBRANCH   5  26
BRANCH   1  31
ATOM     30  C   UNL     1       6.229   5.229  16.351  0.00  0.00    +0.000 C 
ATOM     31  C   UNL     1       4.955   4.400  16.476  0.00  0.00    +0.000 C 
BRANCH  31  32
ATOM     32  O   UNL     1       5.302   3.038  16.713  0.00  0.00    +0.000 OA
ATOM     33  H   UNL     1       5.341   2.901  17.673  0.00  0.00    +0.000 HD
ENDBRANCH  31  32
ENDBRANCH   1  31
TORSDOF 7
ENDMDL
MODEL 6
REMARK VINA RESULT:      -8.8      3.814      9.880
REMARK  Name = 
REMARK  10 active torsions:
REMARK  status: ('A' for Active; 'I' for Inactive)
REMARK    1  A    between atoms: C_1  and  C_2
REMARK    2  A    between atoms: C_2  and  O_3
REMARK    3  A    between atoms: C_2  and  C_4
REMARK    4  A    between atoms: C_8  and  C_9
REMARK    5  A    between atoms: N_15  and  C_16
REMARK    6  A    between atoms: C_20  and  C_21
REMARK    7  A    between atoms: C_21  and  C_22
REMARK    8  A    between atoms: C_21  and  C_23
REMARK    9  A    between atoms: C_23  and  C_24
REMARK   10  A    between atoms: N_28  and  C_29
REMARK                            x       y       z     vdW  Elec       q    Type
REMARK                         _______ _______ _______ _____ _____    ______ ____
ROOT
ATOM      1  C   UNL     1       4.970   5.115  17.476  0.00  0.00    +0.000 A 
ATOM      2  C   UNL     1       4.449   6.394  17.239  0.00  0.00    +0.000 A 
ATOM      3  C   UNL     1       3.420   6.840  18.047  0.00  0.00    +0.000 A 
ATOM      4  C   UNL     1       2.879   6.081  19.078  0.00  0.00    +0.000 A 
ATOM      5  C   UNL     1       3.345   4.793  19.320  0.00  0.00    +0.000 A 
ATOM      6  C   UNL     1       4.403   4.326  18.507  0.00  0.00    +0.000 A 
ATOM      7  C   UNL     1       1.837   6.887  19.788  0.00  0.00    +0.000 C 
ATOM      8  N   UNL     1       1.814   8.141  19.047  0.00  0.00    +0.000 N 
ATOM      9  C   UNL     1       2.742   8.139  18.006  0.00  0.00    +0.000 C 
ATOM     10  O   UNL     1       3.035   8.987  17.183  0.00  0.00    +0.000 OA
ENDROOT
BRANCH   8  11
ATOM     11  C   UNL     1       0.928   9.199  19.378  0.00  0.00    +0.000 A 
ATOM     12  C   UNL     1       0.558  10.163  18.433  0.00  0.00    +0.000 A 
ATOM     13  C   UNL     1      -0.325  11.193  18.760  0.00  0.00    +0.000 A 
ATOM     14  C   UNL     1      -0.836  11.295  20.050  0.00  0.00    +0.000 A 
ATOM     15  C   UNL     1      -0.473  10.361  21.028  0.00  0.00    +0.000 A 
ATOM     16  C   UNL     1       0.391   9.309  20.671  0.00  0.00    +0.000 A 
BRANCH  15  17
ATOM     17  C   UNL     1      -0.981  10.464  22.459  0.00  0.00    +0.000 C 
ATOM     18  C   UNL     1      -0.071   9.668  23.404  0.00  0.00    +0.000 C 
BRANCH  17  19
ATOM     19  C   UNL     1      -1.115  11.921  22.942  0.00  0.00    +0.000 C 
BRANCH  19  20
ATOM     20  C   UNL     1      -2.541  12.349  23.057  0.00  0.00    +0.000 A 
ATOM     21  N   UNL     1      -3.458  11.807  23.835  0.00  0.00    +0.000 NA
ATOM     22  N   UNL     1      -4.639  12.482  23.639  0.00  0.00    +0.000 NA
ATOM     23  C   UNL     1      -4.418  13.424  22.755  0.00  0.00    +0.000 A 
ATOM     24  N   UNL     1      -3.114  13.383  22.362  0.00  0.00    +0.000 N 
ATOM     25  C   UNL     1      -2.485  14.267  21.423  0.00  0.00    +0.000 C 
ENDBRANCH  19  20
ENDBRANCH  17  19
ENDBRANCH  15  17
ENDBRANCH   8  11
BRANCH   5  26
ATOM     26  C   UNL     1       2.773   3.909  20.399  0.00  0.00    +0.000 C 
ATOM     27  F   UNL     1       1.536   3.423  20.108  0.00  0.00    +0.000 F 
ATOM     28  F   UNL     1       3.555   2.821  20.639  0.00  0.00    +0.000 F 
ATOM     29  F   UNL     1       2.650   4.554  21.590  0.00  0.00    +0.000 F 
ENDBRANCH   5  26
BRANCH   1  31
ATOM     30  C   UNL     1       7.455   4.588  17.454  0.00  0.00    +0.000 C 
ATOM     31  C   UNL     1       6.144   4.588  16.676  0.00  0.00    +0.000 C 
BRANCH  31  32
ATOM     32  O   UNL     1       5.856   3.262  16.240  0.00  0.00    +0.000 OA
ATOM     33  H   UNL     1       5.961   2.667  16.999  0.00  0.00    +0.000 HD
ENDBRANCH  31  32
ENDBRANCH   1  31
TORSDOF 7
ENDMDL
MODEL 7
REMARK VINA RESULT:      -8.8      3.772      9.049
REMARK  Name = 
REMARK  10 active torsions:
REMARK  status: ('A' for Active; 'I' for Inactive)
REMARK    1  A    between atoms: C_1  and  C_2
REMARK    2  A    between atoms: C_2  and  O_3
REMARK    3  A    between atoms: C_2  and  C_4
REMARK    4  A    between atoms: C_8  and  C_9
REMARK    5  A    between atoms: N_15  and  C_16
REMARK    6  A    between atoms: C_20  and  C_21
REMARK    7  A    between atoms: C_21  and  C_22
REMARK    8  A    between atoms: C_21  and  C_23
REMARK    9  A    between atoms: C_23  and  C_24
REMARK   10  A    between atoms: N_28  and  C_29
REMARK                            x       y       z     vdW  Elec       q    Type
REMARK                         _______ _______ _______ _____ _____    ______ ____
ROOT
ATOM      1  C   UNL     1       5.027   4.336  16.571  0.00  0.00    +0.000 A 
ATOM      2  C   UNL     1       4.647   5.674  16.739  0.00  0.00    +0.000 A 
ATOM      3  C   UNL     1       3.723   5.972  17.723  0.00  0.00    +0.000 A 
ATOM      4  C   UNL     1       3.153   5.010  18.549  0.00  0.00    +0.000 A 
ATOM      5  C   UNL     1       3.479   3.668  18.389  0.00  0.00    +0.000 A 
ATOM      6  C   UNL     1       4.429   3.348  17.392  0.00  0.00    +0.000 A 
ATOM      7  C   UNL     1       2.254   5.681  19.538  0.00  0.00    +0.000 C 
ATOM      8  N   UNL     1       2.336   7.089  19.174  0.00  0.00    +0.000 N 
ATOM      9  C   UNL     1       3.200   7.290  18.096  0.00  0.00    +0.000 C 
ATOM     10  O   UNL     1       3.544   8.302  17.515  0.00  0.00    +0.000 OA
ENDROOT
BRANCH   8  11
ATOM     11  C   UNL     1       1.600   8.092  19.855  0.00  0.00    +0.000 A 
ATOM     12  C   UNL     1       1.221   7.937  21.193  0.00  0.00    +0.000 A 
ATOM     13  C   UNL     1       0.509   8.935  21.861  0.00  0.00    +0.000 A 
ATOM     14  C   UNL     1       0.137  10.097  21.195  0.00  0.00    +0.000 A 
ATOM     15  C   UNL     1       0.480  10.279  19.850  0.00  0.00    +0.000 A 
ATOM     16  C   UNL     1       1.228   9.279  19.201  0.00  0.00    +0.000 A 
BRANCH  15  17
ATOM     17  C   UNL     1       0.057  11.521  19.078  0.00  0.00    +0.000 C 
ATOM     18  C   UNL     1      -1.057  12.260  19.831  0.00  0.00    +0.000 C 
BRANCH  17  19
ATOM     19  C   UNL     1       1.233  12.474  18.787  0.00  0.00    +0.000 C 
BRANCH  19  20
ATOM     20  C   UNL     1       1.497  13.407  19.922  0.00  0.00    +0.000 A 
ATOM     21  N   UNL     1       2.084  13.100  21.063  0.00  0.00    +0.000 NA
ATOM     22  N   UNL     1       2.125  14.233  21.841  0.00  0.00    +0.000 NA
ATOM     23  C   UNL     1       1.572  15.206  21.159  0.00  0.00    +0.000 A 
ATOM     24  N   UNL     1       1.165  14.737  19.945  0.00  0.00    +0.000 N 
ATOM     25  C   UNL     1       0.535  15.504  18.909  0.00  0.00    +0.000 C 
ENDBRANCH  19  20
ENDBRANCH  17  19
ENDBRANCH  15  17
ENDBRANCH   8  11
BRANCH   5  26
ATOM     26  C   UNL     1       2.868   2.575  19.229  0.00  0.00    +0.000 C 
ATOM     27  F   UNL     1       3.191   1.320  18.813  0.00  0.00    +0.000 F 
ATOM     28  F   UNL     1       3.257   2.650  20.531  0.00  0.00    +0.000 F 
ATOM     29  F   UNL     1       1.508   2.625  19.239  0.00  0.00    +0.000 F 
ENDBRANCH   5  26
BRANCH   1  31
ATOM     30  C   UNL     1       5.679   4.227  14.119  0.00  0.00    +0.000 C 
ATOM     31  C   UNL     1       6.085   3.944  15.561  0.00  0.00    +0.000 C 
BRANCH  31  32
ATOM     32  O   UNL     1       7.294   4.639  15.853  0.00  0.00    +0.000 OA
ATOM     33  H   UNL     1       7.235   4.977  16.761  0.00  0.00    +0.000 HD
ENDBRANCH  31  32
ENDBRANCH   1  31
TORSDOF 7
ENDMDL
MODEL 8
REMARK VINA RESULT:      -8.8      3.795      9.245
REMARK  Name = 
REMARK  10 active torsions:
REMARK  status: ('A' for Active; 'I' for Inactive)
REMARK    1  A    between atoms: C_1  and  C_2
REMARK    2  A    between atoms: C_2  and  O_3
REMARK    3  A    between atoms: C_2  and  C_4
REMARK    4  A    between atoms: C_8  and  C_9
REMARK    5  A    between atoms: N_15  and  C_16
REMARK    6  A    between atoms: C_20  and  C_21
REMARK    7  A    between atoms: C_21  and  C_22
REMARK    8  A    between atoms: C_21  and  C_23
REMARK    9  A    between atoms: C_23  and  C_24
REMARK   10  A    between atoms: N_28  and  C_29
REMARK                            x       y       z     vdW  Elec       q    Type
REMARK                         _______ _______ _______ _____ _____    ______ ____
ROOT
ATOM      1  C   UNL     1       5.163   4.307  16.467  0.00  0.00    +0.000 A 
ATOM      2  C   UNL     1       4.788   5.643  16.660  0.00  0.00    +0.000 A 
ATOM      3  C   UNL     1       3.828   5.921  17.615  0.00  0.00    +0.000 A 
ATOM      4  C   UNL     1       3.216   4.940  18.387  0.00  0.00    +0.000 A 
ATOM      5  C   UNL     1       3.536   3.600  18.199  0.00  0.00    +0.000 A 
ATOM      6  C   UNL     1       4.521   3.301  17.232  0.00  0.00    +0.000 A 
ATOM      7  C   UNL     1       2.284   5.590  19.360  0.00  0.00    +0.000 C 
ATOM      8  N   UNL     1       2.394   7.008  19.042  0.00  0.00    +0.000 N 
ATOM      9  C   UNL     1       3.303   7.232  18.008  0.00  0.00    +0.000 C 
ATOM     10  O   UNL     1       3.680   8.258  17.472  0.00  0.00    +0.000 OA
ENDROOT
BRANCH   8  11
ATOM     11  C   UNL     1       1.640   7.998  19.724  0.00  0.00    +0.000 A 
ATOM     12  C   UNL     1       1.522   7.994  21.118  0.00  0.00    +0.000 A 
ATOM     13  C   UNL     1       0.791   8.979  21.784  0.00  0.00    +0.000 A 
ATOM     14  C   UNL     1       0.138   9.974  21.064  0.00  0.00    +0.000 A 
ATOM     15  C   UNL     1       0.216   9.999  19.666  0.00  0.00    +0.000 A 
ATOM     16  C   UNL     1       0.986   9.018  19.014  0.00  0.00    +0.000 A 
BRANCH  15  17
ATOM     17  C   UNL     1      -0.517  11.049  18.843  0.00  0.00    +0.000 C 
ATOM     18  C   UNL     1      -1.516  10.376  17.893  0.00  0.00    +0.000 C 
BRANCH  17  19
ATOM     19  C   UNL     1      -1.230  12.101  19.716  0.00  0.00    +0.000 C 
BRANCH  19  20
ATOM     20  C   UNL     1      -0.549  13.428  19.668  0.00  0.00    +0.000 A 
ATOM     21  N   UNL     1      -0.282  14.129  18.583  0.00  0.00    +0.000 NA
ATOM     22  N   UNL     1       0.358  15.284  18.967  0.00  0.00    +0.000 NA
ATOM     23  C   UNL     1       0.462  15.268  20.273  0.00  0.00    +0.000 A 
ATOM     24  N   UNL     1      -0.098  14.125  20.760  0.00  0.00    +0.000 N 
ATOM     25  C   UNL     1      -0.199  13.754  22.143  0.00  0.00    +0.000 C 
ENDBRANCH  19  20
ENDBRANCH  17  19
ENDBRANCH  15  17
ENDBRANCH   8  11
BRANCH   5  26
ATOM     26  C   UNL     1       2.880   2.489  18.980  0.00  0.00    +0.000 C 
ATOM     27  F   UNL     1       3.138   2.533  20.315  0.00  0.00    +0.000 F 
ATOM     28  F   UNL     1       1.524   2.508  18.860  0.00  0.00    +0.000 F 
ATOM     29  F   UNL     1       3.278   1.256  18.564  0.00  0.00    +0.000 F 
ENDBRANCH   5  26
BRANCH   1  31
ATOM     30  C   UNL     1       5.852   4.116  14.030  0.00  0.00    +0.000 C 
ATOM     31  C   UNL     1       6.257   3.935  15.488  0.00  0.00    +0.000 C 
BRANCH  31  32
ATOM     32  O   UNL     1       7.414   4.722  15.756  0.00  0.00    +0.000 OA
ATOM     33  H   UNL     1       8.168   4.313  15.301  0.00  0.00    +0.000 HD
ENDBRANCH  31  32
ENDBRANCH   1  31
TORSDOF 7
ENDMDL
MODEL 9
REMARK VINA RESULT:      -8.8      3.855      8.898
REMARK  Name = 
REMARK  10 active torsions:
REMARK  status: ('A' for Active; 'I' for Inactive)
REMARK    1  A    between atoms: C_1  and  C_2
REMARK    2  A    between atoms: C_2  and  O_3
REMARK    3  A    between atoms: C_2  and  C_4
REMARK    4  A    between atoms: C_8  and  C_9
REMARK    5  A    between atoms: N_15  and  C_16
REMARK    6  A    between atoms: C_20  and  C_21
REMARK    7  A    between atoms: C_21  and  C_22
REMARK    8  A    between atoms: C_21  and  C_23
REMARK    9  A    between atoms: C_23  and  C_24
REMARK   10  A    between atoms: N_28  and  C_29
REMARK                            x       y       z     vdW  Elec       q    Type
REMARK                         _______ _______ _______ _____ _____    ______ ____
ROOT
ATOM      1  C   UNL     1       3.812   4.846  17.465  0.00  0.00    +0.000 A 
ATOM      2  C   UNL     1       3.457   6.197  17.568  0.00  0.00    +0.000 A 
ATOM      3  C   UNL     1       2.685   6.589  18.646  0.00  0.00    +0.000 A 
ATOM      4  C   UNL     1       2.244   5.709  19.627  0.00  0.00    +0.000 A 
ATOM      5  C   UNL     1       2.546   4.354  19.540  0.00  0.00    +0.000 A 
ATOM      6  C   UNL     1       3.341   3.939  18.447  0.00  0.00    +0.000 A 
ATOM      7  C   UNL     1       1.497   6.473  20.674  0.00  0.00    +0.000 C 
ATOM      8  N   UNL     1       1.523   7.843  20.179  0.00  0.00    +0.000 N 
ATOM      9  C   UNL     1       2.220   7.940  18.975  0.00  0.00    +0.000 C 
ATOM     10  O   UNL     1       2.474   8.894  18.263  0.00  0.00    +0.000 OA
ENDROOT
BRANCH   8  11
ATOM     11  C   UNL     1       0.891   8.910  20.870  0.00  0.00    +0.000 A 
ATOM     12  C   UNL     1       0.340   8.729  22.143  0.00  0.00    +0.000 A 
ATOM     13  C   UNL     1      -0.267   9.787  22.823  0.00  0.00    +0.000 A 
ATOM     14  C   UNL     1      -0.360  11.040  22.230  0.00  0.00    +0.000 A 
ATOM     15  C   UNL     1       0.162  11.254  20.948  0.00  0.00    +0.000 A 
ATOM     16  C   UNL     1       0.801  10.186  20.291  0.00  0.00    +0.000 A 
BRANCH  15  17
ATOM     17  C   UNL     1       0.044  12.602  20.251  0.00  0.00    +0.000 C 
ATOM     18  C   UNL     1       1.425  13.260  20.131  0.00  0.00    +0.000 C 
BRANCH  17  19
ATOM     19  C   UNL     1      -0.627  12.503  18.867  0.00  0.00    +0.000 C 
BRANCH  19  20
ATOM     20  C   UNL     1      -2.103  12.308  18.968  0.00  0.00    +0.000 A 
ATOM     21  N   UNL     1      -2.889  12.782  19.915  0.00  0.00    +0.000 NA
ATOM     22  N   UNL     1      -4.174  12.371  19.650  0.00  0.00    +0.000 NA
ATOM     23  C   UNL     1      -4.148  11.664  18.547  0.00  0.00    +0.000 A 
ATOM     24  N   UNL     1      -2.870  11.600  18.078  0.00  0.00    +0.000 N 
ATOM     25  C   UNL     1      -2.439  10.934  16.882  0.00  0.00    +0.000 C 
ENDBRANCH  19  20
ENDBRANCH  17  19
ENDBRANCH  15  17
ENDBRANCH   8  11
BRANCH   5  26
ATOM     26  C   UNL     1       2.066   3.346  20.552  0.00  0.00    +0.000 C 
ATOM     27  F   UNL     1       2.349   2.057  20.217  0.00  0.00    +0.000 F 
ATOM     28  F   UNL     1       2.623   3.544  21.778  0.00  0.00    +0.000 F 
ATOM     29  F   UNL     1       0.719   3.395  20.738  0.00  0.00    +0.000 F 
ENDBRANCH   5  26
BRANCH   1  31
ATOM     30  C   UNL     1       5.543   5.464  15.712  0.00  0.00    +0.000 C 
ATOM     31  C   UNL     1       4.712   4.356  16.350  0.00  0.00    +0.000 C 
BRANCH  31  32
ATOM     32  O   UNL     1       5.582   3.348  16.858  0.00  0.00    +0.000 OA
ATOM     33  H   UNL     1       5.038   2.670  17.288  0.00  0.00    +0.000 HD
ENDBRANCH  31  32
ENDBRANCH   1  31
TORSDOF 7
ENDMDL
