MODEL 1
REMARK VINA RESULT:      -9.1      0.000      0.000
REMARK  Name = 
REMARK  7 active torsions:
REMARK  status: ('A' for Active; 'I' for Inactive)
REMARK    1  A    between atoms: C_1  and  C_2
REMARK    2  A    between atoms: C_2  and  C_3
REMARK    3  A    between atoms: C_2  and  C_10
REMARK    4  A    between atoms: C_3  and  C_4
REMARK    5  A    between atoms: N_8  and  C_9
REMARK    6  A    between atoms: C_15  and  N_16
REMARK    7  A    between atoms: C_23  and  C_24
REMARK                            x       y       z     vdW  Elec       q    Type
REMARK                         _______ _______ _______ _____ _____    ______ ____
ROOT
ATOM      1  C   UNL     1       3.993   4.810  18.210  0.00  0.00    +0.000 A 
ATOM      2  C   UNL     1       3.772   3.770  19.118  0.00  0.00    +0.000 A 
ATOM      3  C   UNL     1       2.967   3.983  20.230  0.00  0.00    +0.000 A 
ATOM      4  F   UNL     1       2.770   2.983  21.099  0.00  0.00    +0.000 F 
ATOM      5  C   UNL     1       2.365   5.211  20.460  0.00  0.00    +0.000 A 
ATOM      6  C   UNL     1       2.512   6.244  19.534  0.00  0.00    +0.000 A 
ATOM      7  C   UNL     1       3.307   6.020  18.402  0.00  0.00    +0.000 A 
ENDROOT
BRANCH   6   8
ATOM      8  N   UNL     1       1.886   7.495  19.728  0.00  0.00    +0.000 N 
ATOM      9  C   UNL     1       1.180   7.839  20.957  0.00  0.00    +0.000 C 
ATOM     10  C   UNL     1       0.743   9.249  20.708  0.00  0.00    +0.000 A 
ATOM     11  C   UNL     1       1.148   9.640  19.434  0.00  0.00    +0.000 A 
ATOM     12  C   UNL     1       0.863  10.881  18.895  0.00  0.00    +0.000 A 
ATOM     13  C   UNL     1       0.140  11.765  19.689  0.00  0.00    +0.000 A 
ATOM     14  C   UNL     1      -0.262  11.394  20.987  0.00  0.00    +0.000 A 
ATOM     15  C   UNL     1       0.034  10.127  21.520  0.00  0.00    +0.000 A 
ATOM     16  C   UNL     1       1.886   8.545  18.813  0.00  0.00    +0.000 C 
ATOM     17  O   UNL     1       2.351   8.625  17.691  0.00  0.00    +0.000 OA
BRANCH  15  18
ATOM     18  C   UNL     1      -0.405   9.769  22.918  0.00  0.00    +0.000 C 
ATOM     19  F   UNL     1      -1.169  10.722  23.513  0.00  0.00    +0.000 F 
ATOM     20  F   UNL     1      -1.144   8.626  22.945  0.00  0.00    +0.000 F 
ATOM     21  F   UNL     1       0.648   9.557  23.751  0.00  0.00    +0.000 F 
ENDBRANCH  15  18
ENDBRANCH   6   8
BRANCH   1  23
ATOM     22  C   UNL     1       4.605   3.465  16.131  0.00  0.00    +0.000 C 
ATOM     23  C   UNL     1       4.975   4.631  17.064  0.00  0.00    +0.000 C 
BRANCH  23  24
ATOM     24  C   UNL     1       6.442   4.619  17.529  0.00  0.00    +0.000 C 
BRANCH  24  25
ATOM     25  C   UNL     1       7.103   5.955  17.601  0.00  0.00    +0.000 A 
ATOM     26  N   UNL     1       7.036   6.921  16.706  0.00  0.00    +0.000 NA
ATOM     27  N   UNL     1       7.744   8.000  17.184  0.00  0.00    +0.000 NA
ATOM     28  C   UNL     1       8.218   7.675  18.363  0.00  0.00    +0.000 A 
ATOM     29  N   UNL     1       7.853   6.400  18.661  0.00  0.00    +0.000 N 
ATOM     30  C   UNL     1       8.182   5.682  19.862  0.00  0.00    +0.000 C 
ENDBRANCH  24  25
ENDBRANCH  23  24
ENDBRANCH   1  23
TORSDOF 5
ENDMDL
MODEL 2
REMARK VINA RESULT:      -9.1      3.719      8.691
REMARK  Name = 
REMARK  7 active torsions:
REMARK  status: ('A' for Active; 'I' for Inactive)
REMARK    1  A    between atoms: C_1  and  C_2
REMARK    2  A    between atoms: C_2  and  C_3
REMARK    3  A    between atoms: C_2  and  C_10
REMARK    4  A    between atoms: C_3  and  C_4
REMARK    5  A    between atoms: N_8  and  C_9
REMARK    6  A    between atoms: C_15  and  N_16
REMARK    7  A    between atoms: C_23  and  C_24
REMARK                            x       y       z     vdW  Elec       q    Type
REMARK                         _______ _______ _______ _____ _____    ______ ____
ROOT
ATOM      1  C   UNL     1       0.518  10.213  19.618  0.00  0.00    +0.000 A 
ATOM      2  C   UNL     1       0.485  10.275  21.015  0.00  0.00    +0.000 A 
ATOM      3  C   UNL     1       1.040   9.247  21.766  0.00  0.00    +0.000 A 
ATOM      4  F   UNL     1       0.995   9.311  23.102  0.00  0.00    +0.000 F 
ATOM      5  C   UNL     1       1.637   8.152  21.158  0.00  0.00    +0.000 A 
ATOM      6  C   UNL     1       1.744   8.097  19.769  0.00  0.00    +0.000 A 
ATOM      7  C   UNL     1       1.204   9.146  19.014  0.00  0.00    +0.000 A 
ENDROOT
BRANCH   6   8
ATOM      8  N   UNL     1       2.374   7.009  19.126  0.00  0.00    +0.000 N 
ATOM      9  C   UNL     1       3.349   7.185  18.056  0.00  0.00    +0.000 C 
ATOM     10  C   UNL     1       3.757   5.780  17.740  0.00  0.00    +0.000 A 
ATOM     11  C   UNL     1       3.044   4.899  18.550  0.00  0.00    +0.000 A 
ATOM     12  C   UNL     1       3.173   3.525  18.473  0.00  0.00    +0.000 A 
ATOM     13  C   UNL     1       4.072   3.025  17.536  0.00  0.00    +0.000 A 
ATOM     14  C   UNL     1       4.815   3.901  16.721  0.00  0.00    +0.000 A 
ATOM     15  C   UNL     1       4.671   5.297  16.810  0.00  0.00    +0.000 A 
ATOM     16  C   UNL     1       2.180   5.666  19.441  0.00  0.00    +0.000 C 
ATOM     17  O   UNL     1       1.445   5.136  20.254  0.00  0.00    +0.000 OA
BRANCH  15  18
ATOM     18  C   UNL     1       5.492   6.203  15.928  0.00  0.00    +0.000 C 
ATOM     19  F   UNL     1       6.295   5.539  15.056  0.00  0.00    +0.000 F 
ATOM     20  F   UNL     1       4.712   7.021  15.169  0.00  0.00    +0.000 F 
ATOM     21  F   UNL     1       6.309   7.019  16.645  0.00  0.00    +0.000 F 
ENDBRANCH  15  18
ENDBRANCH   6   8
BRANCH   1  23
ATOM     22  C   UNL     1       0.466  12.648  18.861  0.00  0.00    +0.000 C 
ATOM     23  C   UNL     1      -0.200  11.264  18.787  0.00  0.00    +0.000 C 
BRANCH  23  24
ATOM     24  C   UNL     1      -1.720  11.285  19.031  0.00  0.00    +0.000 C 
BRANCH  24  25
ATOM     25  C   UNL     1      -2.567  11.229  17.805  0.00  0.00    +0.000 A 
ATOM     26  N   UNL     1      -2.199  10.825  16.605  0.00  0.00    +0.000 NA
ATOM     27  N   UNL     1      -3.296  10.883  15.776  0.00  0.00    +0.000 NA
ATOM     28  C   UNL     1      -4.311  11.310  16.488  0.00  0.00    +0.000 A 
ATOM     29  N   UNL     1      -3.901  11.552  17.762  0.00  0.00    +0.000 N 
ATOM     30  C   UNL     1      -4.721  12.033  18.840  0.00  0.00    +0.000 C 
ENDBRANCH  24  25
ENDBRANCH  23  24
ENDBRANCH   1  23
TORSDOF 5
ENDMDL
MODEL 3
REMARK VINA RESULT:      -9.0      0.768      1.416
REMARK  Name = 
REMARK  7 active torsions:
REMARK  status: ('A' for Active; 'I' for Inactive)
REMARK    1  A    between atoms: C_1  and  C_2
REMARK    2  A    between atoms: C_2  and  C_3
REMARK    3  A    between atoms: C_2  and  C_10
REMARK    4  A    between atoms: C_3  and  C_4
REMARK    5  A    between atoms: N_8  and  C_9
REMARK    6  A    between atoms: C_15  and  N_16
REMARK    7  A    between atoms: C_23  and  C_24
REMARK                            x       y       z     vdW  Elec       q    Type
REMARK                         _______ _______ _______ _____ _____    ______ ____
ROOT
ATOM      1  C   UNL     1       4.063   5.290  17.485  0.00  0.00    +0.000 A 
ATOM      2  C   UNL     1       4.006   4.212  18.375  0.00  0.00    +0.000 A 
ATOM      3  C   UNL     1       3.322   4.343  19.576  0.00  0.00    +0.000 A 
ATOM      4  F   UNL     1       3.282   3.309  20.426  0.00  0.00    +0.000 F 
ATOM      5  C   UNL     1       2.681   5.526  19.916  0.00  0.00    +0.000 A 
ATOM      6  C   UNL     1       2.664   6.593  19.018  0.00  0.00    +0.000 A 
ATOM      7  C   UNL     1       3.337   6.451  17.797  0.00  0.00    +0.000 A 
ENDROOT
BRANCH   6   8
ATOM      8  N   UNL     1       1.994   7.798  19.325  0.00  0.00    +0.000 N 
ATOM      9  C   UNL     1       1.341   8.029  20.608  0.00  0.00    +0.000 C 
ATOM     10  C   UNL     1       0.828   9.429  20.475  0.00  0.00    +0.000 A 
ATOM     11  C   UNL     1       1.148   9.919  19.211  0.00  0.00    +0.000 A 
ATOM     12  C   UNL     1       0.780  11.177  18.771  0.00  0.00    +0.000 A 
ATOM     13  C   UNL     1       0.062  11.974  19.657  0.00  0.00    +0.000 A 
ATOM     14  C   UNL     1      -0.253  11.501  20.946  0.00  0.00    +0.000 A 
ATOM     15  C   UNL     1       0.125  10.218  21.378  0.00  0.00    +0.000 A 
ATOM     16  C   UNL     1       1.899   8.903  18.483  0.00  0.00    +0.000 C 
ATOM     17  O   UNL     1       2.300   9.076  17.346  0.00  0.00    +0.000 OA
BRANCH  15  18
ATOM     18  C   UNL     1      -0.222   9.752  22.769  0.00  0.00    +0.000 C 
ATOM     19  F   UNL     1       0.861   9.462  23.537  0.00  0.00    +0.000 F 
ATOM     20  F   UNL     1      -0.930  10.687  23.461  0.00  0.00    +0.000 F 
ATOM     21  F   UNL     1      -0.988   8.629  22.761  0.00  0.00    +0.000 F 
ENDBRANCH  15  18
ENDBRANCH   6   8
BRANCH   1  23
ATOM     22  C   UNL     1       5.191   3.757  15.788  0.00  0.00    +0.000 C 
ATOM     23  C   UNL     1       4.917   5.204  16.231  0.00  0.00    +0.000 C 
BRANCH  23  24
ATOM     24  C   UNL     1       6.176   6.087  16.301  0.00  0.00    +0.000 C 
BRANCH  24  25
ATOM     25  C   UNL     1       6.980   5.959  17.551  0.00  0.00    +0.000 A 
ATOM     26  N   UNL     1       7.215   4.854  18.233  0.00  0.00    +0.000 NA
ATOM     27  N   UNL     1       8.040   5.166  19.288  0.00  0.00    +0.000 NA
ATOM     28  C   UNL     1       8.302   6.450  19.223  0.00  0.00    +0.000 A 
ATOM     29  N   UNL     1       7.650   6.991  18.159  0.00  0.00    +0.000 N 
ATOM     30  C   UNL     1       7.683   8.371  17.757  0.00  0.00    +0.000 C 
ENDBRANCH  24  25
ENDBRANCH  23  24
ENDBRANCH   1  23
TORSDOF 5
ENDMDL
MODEL 4
REMARK VINA RESULT:      -9.0      1.370      2.417
REMARK  Name = 
REMARK  7 active torsions:
REMARK  status: ('A' for Active; 'I' for Inactive)
REMARK    1  A    between atoms: C_1  and  C_2
REMARK    2  A    between atoms: C_2  and  C_3
REMARK    3  A    between atoms: C_2  and  C_10
REMARK    4  A    between atoms: C_3  and  C_4
REMARK    5  A    between atoms: N_8  and  C_9
REMARK    6  A    between atoms: C_15  and  N_16
REMARK    7  A    between atoms: C_23  and  C_24
REMARK                            x       y       z     vdW  Elec       q    Type
REMARK                         _______ _______ _______ _____ _____    ______ ____
ROOT
ATOM      1  C   UNL     1       5.190   5.651  18.525  0.00  0.00    +0.000 A 
ATOM      2  C   UNL     1       4.702   4.363  18.771  0.00  0.00    +0.000 A 
ATOM      3  C   UNL     1       3.408   4.193  19.245  0.00  0.00    +0.000 A 
ATOM      4  F   UNL     1       2.954   2.957  19.486  0.00  0.00    +0.000 F 
ATOM      5  C   UNL     1       2.576   5.279  19.476  0.00  0.00    +0.000 A 
ATOM      6  C   UNL     1       3.013   6.569  19.175  0.00  0.00    +0.000 A 
ATOM      7  C   UNL     1       4.311   6.737  18.676  0.00  0.00    +0.000 A 
ENDROOT
BRANCH   6   8
ATOM      8  N   UNL     1       2.177   7.690  19.372  0.00  0.00    +0.000 N 
ATOM      9  C   UNL     1       1.486   7.944  20.631  0.00  0.00    +0.000 C 
ATOM     10  C   UNL     1       0.782   9.239  20.371  0.00  0.00    +0.000 A 
ATOM     11  C   UNL     1       1.040   9.651  19.066  0.00  0.00    +0.000 A 
ATOM     12  C   UNL     1       0.502  10.798  18.513  0.00  0.00    +0.000 A 
ATOM     13  C   UNL     1      -0.330  11.563  19.325  0.00  0.00    +0.000 A 
ATOM     14  C   UNL     1      -0.586  11.172  20.653  0.00  0.00    +0.000 A 
ATOM     15  C   UNL     1      -0.033  10.002  21.201  0.00  0.00    +0.000 A 
ATOM     16  C   UNL     1       1.934   8.687  18.432  0.00  0.00    +0.000 C 
ATOM     17  O   UNL     1       2.315   8.810  17.282  0.00  0.00    +0.000 OA
BRANCH  15  18
ATOM     18  C   UNL     1      -0.322   9.622  22.631  0.00  0.00    +0.000 C 
ATOM     19  F   UNL     1       0.792   9.467  23.393  0.00  0.00    +0.000 F 
ATOM     20  F   UNL     1      -1.081  10.557  23.266  0.00  0.00    +0.000 F 
ATOM     21  F   UNL     1      -1.009   8.452  22.726  0.00  0.00    +0.000 F 
ENDBRANCH  15  18
ENDBRANCH   6   8
BRANCH   1  23
ATOM     22  C   UNL     1       6.904   7.231  17.491  0.00  0.00    +0.000 C 
ATOM     23  C   UNL     1       6.644   5.858  18.133  0.00  0.00    +0.000 C 
BRANCH  23  24
ATOM     24  C   UNL     1       7.225   4.675  17.339  0.00  0.00    +0.000 C 
BRANCH  24  25
ATOM     25  C   UNL     1       7.001   4.720  15.865  0.00  0.00    +0.000 A 
ATOM     26  N   UNL     1       7.678   5.427  14.982  0.00  0.00    +0.000 NA
ATOM     27  N   UNL     1       7.184   5.141  13.730  0.00  0.00    +0.000 NA
ATOM     28  C   UNL     1       6.225   4.258  13.873  0.00  0.00    +0.000 A 
ATOM     29  N   UNL     1       6.065   3.973  15.193  0.00  0.00    +0.000 N 
ATOM     30  C   UNL     1       5.112   3.055  15.753  0.00  0.00    +0.000 C 
ENDBRANCH  24  25
ENDBRANCH  23  24
ENDBRANCH   1  23
TORSDOF 5
ENDMDL
MODEL 5
REMARK VINA RESULT:      -8.9      1.808      2.686
REMARK  Name = 
REMARK  7 active torsions:
REMARK  status: ('A' for Active; 'I' for Inactive)
REMARK    1  A    between atoms: C_1  and  C_2
REMARK    2  A    between atoms: C_2  and  C_3
REMARK    3  A    between atoms: C_2  and  C_10
REMARK    4  A    between atoms: C_3  and  C_4
REMARK    5  A    between atoms: N_8  and  C_9
REMARK    6  A    between atoms: C_15  and  N_16
REMARK    7  A    between atoms: C_23  and  C_24
REMARK                            x       y       z     vdW  Elec       q    Type
REMARK                         _______ _______ _______ _____ _____    ______ ____
ROOT
ATOM      1  C   UNL     1       4.468   5.211  17.713  0.00  0.00    +0.000 A 
ATOM      2  C   UNL     1       3.857   4.000  18.054  0.00  0.00    +0.000 A 
ATOM      3  C   UNL     1       2.668   4.004  18.772  0.00  0.00    +0.000 A 
ATOM      4  F   UNL     1       2.096   2.839  19.102  0.00  0.00    +0.000 F 
ATOM      5  C   UNL     1       2.063   5.191  19.157  0.00  0.00    +0.000 A 
ATOM      6  C   UNL     1       2.615   6.413  18.772  0.00  0.00    +0.000 A 
ATOM      7  C   UNL     1       3.802   6.406  18.029  0.00  0.00    +0.000 A 
ENDROOT
BRANCH   6   8
ATOM      8  N   UNL     1       2.002   7.636  19.125  0.00  0.00    +0.000 N 
ATOM      9  C   UNL     1       1.384   7.859  20.426  0.00  0.00    +0.000 C 
ATOM     10  C   UNL     1       0.930   9.283  20.341  0.00  0.00    +0.000 A 
ATOM     11  C   UNL     1       1.246   9.794  19.085  0.00  0.00    +0.000 A 
ATOM     12  C   UNL     1       0.925  11.078  18.686  0.00  0.00    +0.000 A 
ATOM     13  C   UNL     1       0.258  11.879  19.607  0.00  0.00    +0.000 A 
ATOM     14  C   UNL     1      -0.053  11.385  20.889  0.00  0.00    +0.000 A 
ATOM     15  C   UNL     1       0.279  10.076  21.280  0.00  0.00    +0.000 A 
ATOM     16  C   UNL     1       1.939   8.767  18.315  0.00  0.00    +0.000 C 
ATOM     17  O   UNL     1       2.326   8.954  17.176  0.00  0.00    +0.000 OA
BRANCH  15  18
ATOM     18  C   UNL     1      -0.062   9.587  22.664  0.00  0.00    +0.000 C 
ATOM     19  F   UNL     1      -0.865   8.491  22.676  0.00  0.00    +0.000 F 
ATOM     20  F   UNL     1       1.049   9.243  23.373  0.00  0.00    +0.000 F 
ATOM     21  F   UNL     1      -0.703  10.531  23.403  0.00  0.00    +0.000 F 
ENDBRANCH  15  18
ENDBRANCH   6   8
BRANCH   1  23
ATOM     22  C   UNL     1       6.342   6.636  16.733  0.00  0.00    +0.000 C 
ATOM     23  C   UNL     1       5.833   5.219  17.044  0.00  0.00    +0.000 C 
BRANCH  23  24
ATOM     24  C   UNL     1       5.924   4.245  15.855  0.00  0.00    +0.000 C 
BRANCH  24  25
ATOM     25  C   UNL     1       6.729   4.723  14.694  0.00  0.00    +0.000 A 
ATOM     26  N   UNL     1       7.764   5.539  14.731  0.00  0.00    +0.000 NA
ATOM     27  N   UNL     1       8.246   5.681  13.450  0.00  0.00    +0.000 NA
ATOM     28  C   UNL     1       7.503   4.941  12.661  0.00  0.00    +0.000 A 
ATOM     29  N   UNL     1       6.533   4.333  13.393  0.00  0.00    +0.000 N 
ATOM     30  C   UNL     1       5.521   3.445  12.889  0.00  0.00    +0.000 C 
ENDBRANCH  24  25
ENDBRANCH  23  24
ENDBRANCH   1  23
TORSDOF 5
ENDMDL
MODEL 6
REMARK VINA RESULT:      -8.9      2.304      2.880
REMARK  Name = 
REMARK  7 active torsions:
REMARK  status: ('A' for Active; 'I' for Inactive)
REMARK    1  A    between atoms: C_1  and  C_2
REMARK    2  A    between atoms: C_2  and  C_3
REMARK    3  A    between atoms: C_2  and  C_10
REMARK    4  A    between atoms: C_3  and  C_4
REMARK    5  A    between atoms: N_8  and  C_9
REMARK    6  A    between atoms: C_15  and  N_16
REMARK    7  A    between atoms: C_23  and  C_24
REMARK                            x       y       z     vdW  Elec       q    Type
REMARK                         _______ _______ _______ _____ _____    ______ ____
ROOT
ATOM      1  C   UNL     1       4.416   4.721  16.780  0.00  0.00    +0.000 A 
ATOM      2  C   UNL     1       3.741   3.497  16.773  0.00  0.00    +0.000 A 
ATOM      3  C   UNL     1       2.603   3.330  17.552  0.00  0.00    +0.000 A 
ATOM      4  F   UNL     1       1.970   2.150  17.546  0.00  0.00    +0.000 F 
ATOM      5  C   UNL     1       2.111   4.360  18.340  0.00  0.00    +0.000 A 
ATOM      6  C   UNL     1       2.725   5.613  18.314  0.00  0.00    +0.000 A 
ATOM      7  C   UNL     1       3.859   5.785  17.510  0.00  0.00    +0.000 A 
ENDROOT
BRANCH   6   8
ATOM      8  N   UNL     1       2.227   6.688  19.082  0.00  0.00    +0.000 N 
ATOM      9  C   UNL     1       1.983   8.010  18.519  0.00  0.00    +0.000 C 
ATOM     10  C   UNL     1       1.428   8.772  19.681  0.00  0.00    +0.000 A 
ATOM     11  C   UNL     1       1.396   7.945  20.802  0.00  0.00    +0.000 A 
ATOM     12  C   UNL     1       0.964   8.370  22.045  0.00  0.00    +0.000 A 
ATOM     13  C   UNL     1       0.541   9.691  22.151  0.00  0.00    +0.000 A 
ATOM     14  C   UNL     1       0.549  10.536  21.024  0.00  0.00    +0.000 A 
ATOM     15  C   UNL     1       0.993  10.090  19.767  0.00  0.00    +0.000 A 
ATOM     16  C   UNL     1       1.883   6.622  20.430  0.00  0.00    +0.000 C 
ATOM     17  O   UNL     1       1.960   5.706  21.229  0.00  0.00    +0.000 OA
BRANCH  15  18
ATOM     18  C   UNL     1       0.976  11.021  18.582  0.00  0.00    +0.000 C 
ATOM     19  F   UNL     1       0.645  12.301  18.894  0.00  0.00    +0.000 F 
ATOM     20  F   UNL     1       2.190  11.090  17.968  0.00  0.00    +0.000 F 
ATOM     21  F   UNL     1       0.093  10.627  17.626  0.00  0.00    +0.000 F 
ENDBRANCH  15  18
ENDBRANCH   6   8
BRANCH   1  23
ATOM     22  C   UNL     1       5.860   3.924  14.836  0.00  0.00    +0.000 C 
ATOM     23  C   UNL     1       5.732   4.875  16.037  0.00  0.00    +0.000 C 
BRANCH  23  24
ATOM     24  C   UNL     1       6.954   4.869  16.974  0.00  0.00    +0.000 C 
BRANCH  24  25
ATOM     25  C   UNL     1       7.448   6.212  17.392  0.00  0.00    +0.000 A 
ATOM     26  N   UNL     1       7.453   7.315  16.670  0.00  0.00    +0.000 NA
ATOM     27  N   UNL     1       7.945   8.338  17.447  0.00  0.00    +0.000 NA
ATOM     28  C   UNL     1       8.218   7.842  18.631  0.00  0.00    +0.000 A 
ATOM     29  N   UNL     1       7.936   6.512  18.640  0.00  0.00    +0.000 N 
ATOM     30  C   UNL     1       8.104   5.617  19.752  0.00  0.00    +0.000 C 
ENDBRANCH  24  25
ENDBRANCH  23  24
ENDBRANCH   1  23
TORSDOF 5
ENDMDL
MODEL 7
REMARK VINA RESULT:      -8.9      2.386      3.181
REMARK  Name = 
REMARK  7 active torsions:
REMARK  status: ('A' for Active; 'I' for Inactive)
REMARK    1  A    between atoms: C_1  and  C_2
REMARK    2  A    between atoms: C_2  and  C_3
REMARK    3  A    between atoms: C_2  and  C_10
REMARK    4  A    between atoms: C_3  and  C_4
REMARK    5  A    between atoms: N_8  and  C_9
REMARK    6  A    between atoms: C_15  and  N_16
REMARK    7  A    between atoms: C_23  and  C_24
REMARK                            x       y       z     vdW  Elec       q    Type
REMARK                         _______ _______ _______ _____ _____    ______ ____
ROOT
ATOM      1  C   UNL     1       4.711   4.719  16.514  0.00  0.00    +0.000 A 
ATOM      2  C   UNL     1       4.403   3.382  16.785  0.00  0.00    +0.000 A 
ATOM      3  C   UNL     1       3.516   3.071  17.808  0.00  0.00    +0.000 A 
ATOM      4  F   UNL     1       3.236   1.787  18.066  0.00  0.00    +0.000 F 
ATOM      5  C   UNL     1       2.918   4.063  18.570  0.00  0.00    +0.000 A 
ATOM      6  C   UNL     1       3.154   5.406  18.277  0.00  0.00    +0.000 A 
ATOM      7  C   UNL     1       4.032   5.718  17.231  0.00  0.00    +0.000 A 
ENDROOT
BRANCH   6   8
ATOM      8  N   UNL     1       2.534   6.437  19.017  0.00  0.00    +0.000 N 
ATOM      9  C   UNL     1       2.263   7.755  18.455  0.00  0.00    +0.000 C 
ATOM     10  C   UNL     1       1.571   8.462  19.578  0.00  0.00    +0.000 A 
ATOM     11  C   UNL     1       1.492   7.612  20.679  0.00  0.00    +0.000 A 
ATOM     12  C   UNL     1       0.935   7.988  21.888  0.00  0.00    +0.000 A 
ATOM     13  C   UNL     1       0.430   9.281  21.978  0.00  0.00    +0.000 A 
ATOM     14  C   UNL     1       0.484  10.147  20.868  0.00  0.00    +0.000 A 
ATOM     15  C   UNL     1       1.056   9.752  19.647  0.00  0.00    +0.000 A 
ATOM     16  C   UNL     1       2.083   6.325  20.329  0.00  0.00    +0.000 C 
ATOM     17  O   UNL     1       2.144   5.400  21.118  0.00  0.00    +0.000 OA
BRANCH  15  18
ATOM     18  C   UNL     1       1.086  10.704  18.478  0.00  0.00    +0.000 C 
ATOM     19  F   UNL     1       0.413  10.254  17.387  0.00  0.00    +0.000 F 
ATOM     20  F   UNL     1       0.533  11.910  18.786  0.00  0.00    +0.000 F 
ATOM     21  F   UNL     1       2.352  10.966  18.058  0.00  0.00    +0.000 F 
ENDBRANCH  15  18
ENDBRANCH   6   8
BRANCH   1  23
ATOM     22  C   UNL     1       5.487   4.482  14.096  0.00  0.00    +0.000 C 
ATOM     23  C   UNL     1       5.778   5.067  15.489  0.00  0.00    +0.000 C 
BRANCH  23  24
ATOM     24  C   UNL     1       7.206   4.799  15.995  0.00  0.00    +0.000 C 
BRANCH  24  25
ATOM     25  C   UNL     1       7.466   5.181  17.413  0.00  0.00    +0.000 A 
ATOM     26  N   UNL     1       7.721   4.367  18.419  0.00  0.00    +0.000 NA
ATOM     27  N   UNL     1       7.951   5.129  19.541  0.00  0.00    +0.000 NA
ATOM     28  C   UNL     1       7.844   6.390  19.196  0.00  0.00    +0.000 A 
ATOM     29  N   UNL     1       7.528   6.472  17.876  0.00  0.00    +0.000 N 
ATOM     30  C   UNL     1       7.323   7.681  17.127  0.00  0.00    +0.000 C 
ENDBRANCH  24  25
ENDBRANCH  23  24
ENDBRANCH   1  23
TORSDOF 5
ENDMDL
MODEL 8
REMARK VINA RESULT:      -8.8      2.911      8.369
REMARK  Name = 
REMARK  7 active torsions:
REMARK  status: ('A' for Active; 'I' for Inactive)
REMARK    1  A    between atoms: C_1  and  C_2
REMARK    2  A    between atoms: C_2  and  C_3
REMARK    3  A    between atoms: C_2  and  C_10
REMARK    4  A    between atoms: C_3  and  C_4
REMARK    5  A    between atoms: N_8  and  C_9
REMARK    6  A    between atoms: C_15  and  N_16
REMARK    7  A    between atoms: C_23  and  C_24
REMARK                            x       y       z     vdW  Elec       q    Type
REMARK                         _______ _______ _______ _____ _____    ______ ____
ROOT
ATOM      1  C   UNL     1       0.460  10.372  19.714  0.00  0.00    +0.000 A 
ATOM      2  C   UNL     1       0.392  10.446  21.109  0.00  0.00    +0.000 A 
ATOM      3  C   UNL     1       0.883   9.401  21.882  0.00  0.00    +0.000 A 
ATOM      4  F   UNL     1       0.804   9.477  23.216  0.00  0.00    +0.000 F 
ATOM      5  C   UNL     1       1.452   8.279  21.298  0.00  0.00    +0.000 A 
ATOM      6  C   UNL     1       1.595   8.209  19.912  0.00  0.00    +0.000 A 
ATOM      7  C   UNL     1       1.119   9.274  19.136  0.00  0.00    +0.000 A 
ENDROOT
BRANCH   6   8
ATOM      8  N   UNL     1       2.198   7.092  19.294  0.00  0.00    +0.000 N 
ATOM      9  C   UNL     1       1.901   5.720  19.688  0.00  0.00    +0.000 C 
ATOM     10  C   UNL     1       2.726   4.912  18.736  0.00  0.00    +0.000 A 
ATOM     11  C   UNL     1       3.442   5.769  17.903  0.00  0.00    +0.000 A 
ATOM     12  C   UNL     1       4.323   5.325  16.935  0.00  0.00    +0.000 A 
ATOM     13  C   UNL     1       4.479   3.949  16.804  0.00  0.00    +0.000 A 
ATOM     14  C   UNL     1       3.749   3.067  17.624  0.00  0.00    +0.000 A 
ATOM     15  C   UNL     1       2.858   3.533  18.606  0.00  0.00    +0.000 A 
ATOM     16  C   UNL     1       3.102   7.148  18.236  0.00  0.00    +0.000 C 
ATOM     17  O   UNL     1       3.593   8.100  17.657  0.00  0.00    +0.000 OA
BRANCH  15  18
ATOM     18  C   UNL     1       2.086   2.558  19.458  0.00  0.00    +0.000 C 
ATOM     19  F   UNL     1       2.313   2.696  20.790  0.00  0.00    +0.000 F 
ATOM     20  F   UNL     1       0.741   2.687  19.293  0.00  0.00    +0.000 F 
ATOM     21  F   UNL     1       2.381   1.265  19.158  0.00  0.00    +0.000 F 
ENDBRANCH  15  18
ENDBRANCH   6   8
BRANCH   1  23
ATOM     22  C   UNL     1       0.617  12.753  18.813  0.00  0.00    +0.000 C 
ATOM     23  C   UNL     1      -0.191  11.445  18.857  0.00  0.00    +0.000 C 
BRANCH  23  24
ATOM     24  C   UNL     1      -1.684  11.641  19.175  0.00  0.00    +0.000 C 
BRANCH  24  25
ATOM     25  C   UNL     1      -2.611  11.505  18.014  0.00  0.00    +0.000 A 
ATOM     26  N   UNL     1      -2.299  11.117  16.793  0.00  0.00    +0.000 NA
ATOM     27  N   UNL     1      -3.453  11.079  16.045  0.00  0.00    +0.000 NA
ATOM     28  C   UNL     1      -4.446  11.433  16.827  0.00  0.00    +0.000 A 
ATOM     29  N   UNL     1      -3.965  11.721  18.066  0.00  0.00    +0.000 N 
ATOM     30  C   UNL     1      -4.741  12.148  19.198  0.00  0.00    +0.000 C 
ENDBRANCH  24  25
ENDBRANCH  23  24
ENDBRANCH   1  23
TORSDOF 5
ENDMDL
MODEL 9
REMARK VINA RESULT:      -8.6      2.899      8.295
REMARK  Name = 
REMARK  7 active torsions:
REMARK  status: ('A' for Active; 'I' for Inactive)
REMARK    1  A    between atoms: C_1  and  C_2
REMARK    2  A    between atoms: C_2  and  C_3
REMARK    3  A    between atoms: C_2  and  C_10
REMARK    4  A    between atoms: C_3  and  C_4
REMARK    5  A    between atoms: N_8  and  C_9
REMARK    6  A    between atoms: C_15  and  N_16
REMARK    7  A    between atoms: C_23  and  C_24
REMARK                            x       y       z     vdW  Elec       q    Type
REMARK                         _______ _______ _______ _____ _____    ______ ____
ROOT
ATOM      1  C   UNL     1      -0.124  10.311  19.931  0.00  0.00    +0.000 A 
ATOM      2  C   UNL     1      -0.130  10.381  21.328  0.00  0.00    +0.000 A 
ATOM      3  C   UNL     1       0.579   9.444  22.069  0.00  0.00    +0.000 A 
ATOM      4  F   UNL     1       0.559   9.513  23.406  0.00  0.00    +0.000 F 
ATOM      5  C   UNL     1       1.305   8.436  21.452  0.00  0.00    +0.000 A 
ATOM      6  C   UNL     1       1.384   8.384  20.060  0.00  0.00    +0.000 A 
ATOM      7  C   UNL     1       0.686   9.343  19.315  0.00  0.00    +0.000 A 
ENDROOT
BRANCH   6   8
ATOM      8  N   UNL     1       2.141   7.387  19.407  0.00  0.00    +0.000 N 
ATOM      9  C   UNL     1       2.130   5.990  19.826  0.00  0.00    +0.000 C 
ATOM     10  C   UNL     1       3.025   5.333  18.823  0.00  0.00    +0.000 A 
ATOM     11  C   UNL     1       3.513   6.294  17.940  0.00  0.00    +0.000 A 
ATOM     12  C   UNL     1       4.395   6.003  16.916  0.00  0.00    +0.000 A 
ATOM     13  C   UNL     1       4.794   4.677  16.780  0.00  0.00    +0.000 A 
ATOM     14  C   UNL     1       4.296   3.690  17.652  0.00  0.00    +0.000 A 
ATOM     15  C   UNL     1       3.401   4.000  18.690  0.00  0.00    +0.000 A 
ATOM     16  C   UNL     1       2.946   7.592  18.290  0.00  0.00    +0.000 C 
ATOM     17  O   UNL     1       3.213   8.607  17.674  0.00  0.00    +0.000 OA
BRANCH  15  18
ATOM     18  C   UNL     1       2.882   2.914  19.597  0.00  0.00    +0.000 C 
ATOM     19  F   UNL     1       3.409   1.688  19.341  0.00  0.00    +0.000 F 
ATOM     20  F   UNL     1       3.152   3.169  20.907  0.00  0.00    +0.000 F 
ATOM     21  F   UNL     1       1.533   2.769  19.511  0.00  0.00    +0.000 F 
ENDBRANCH  15  18
ENDBRANCH   6   8
BRANCH   1  23
ATOM     22  C   UNL     1      -1.058  12.672  19.689  0.00  0.00    +0.000 C 
ATOM     23  C   UNL     1      -0.999  11.247  19.113  0.00  0.00    +0.000 C 
BRANCH  23  24
ATOM     24  C   UNL     1      -2.378  10.645  18.788  0.00  0.00    +0.000 C 
BRANCH  24  25
ATOM     25  C   UNL     1      -2.713  10.557  17.337  0.00  0.00    +0.000 A 
ATOM     26  N   UNL     1      -2.032   9.922  16.404  0.00  0.00    +0.000 NA
ATOM     27  N   UNL     1      -2.711  10.047  15.214  0.00  0.00    +0.000 NA
ATOM     28  C   UNL     1      -3.797  10.745  15.447  0.00  0.00    +0.000 A 
ATOM     29  N   UNL     1      -3.835  11.098  16.760  0.00  0.00    +0.000 N 
ATOM     30  C   UNL     1      -4.865  11.869  17.401  0.00  0.00    +0.000 C 
ENDBRANCH  24  25
ENDBRANCH  23  24
ENDBRANCH   1  23
TORSDOF 5
ENDMDL
