MODEL 1
REMARK VINA RESULT:      -8.9      0.000      0.000
REMARK  Name = 
REMARK  7 active torsions:
REMARK  status: ('A' for Active; 'I' for Inactive)
REMARK    1  A    between atoms: C_1  and  C_2
REMARK    2  A    between atoms: C_2  and  C_3
REMARK    3  A    between atoms: C_2  and  C_10
REMARK    4  A    between atoms: C_3  and  C_4
REMARK    5  A    between atoms: N_8  and  C_9
REMARK    6  A    between atoms: C_14  and  N_15
REMARK    7  A    between atoms: C_22  and  C_23
REMARK                            x       y       z     vdW  Elec       q    Type
REMARK                         _______ _______ _______ _____ _____    ______ ____
ROOT
ATOM      1  C   UNL     1       4.259   5.138  17.739  0.00  0.00    +0.000 A 
ATOM      2  C   UNL     1       4.071   4.048  18.593  0.00  0.00    +0.000 A 
ATOM      3  C   UNL     1       3.214   4.150  19.698  0.00  0.00    +0.000 A 
ATOM      4  C   UNL     1       2.526   5.340  19.969  0.00  0.00    +0.000 A 
ATOM      5  C   UNL     1       2.686   6.441  19.137  0.00  0.00    +0.000 A 
ATOM      6  C   UNL     1       3.569   6.318  18.047  0.00  0.00    +0.000 A 
ENDROOT
BRANCH   5   7
ATOM      7  N   UNL     1       1.988   7.665  19.310  0.00  0.00    +0.000 N 
ATOM      8  C   UNL     1       1.332   7.956  20.573  0.00  0.00    +0.000 C 
ATOM      9  C   UNL     1       0.805   9.324  20.397  0.00  0.00    +0.000 A 
ATOM     10  C   UNL     1       1.101   9.781  19.120  0.00  0.00    +0.000 A 
ATOM     11  C   UNL     1       0.705  11.026  18.692  0.00  0.00    +0.000 A 
ATOM     12  C   UNL     1       0.001  11.774  19.617  0.00  0.00    +0.000 A 
ATOM     13  N   UNL     1      -0.292  11.362  20.886  0.00  0.00    +0.000 NA
ATOM     14  C   UNL     1       0.114  10.123  21.283  0.00  0.00    +0.000 A 
ATOM     15  C   UNL     1       1.873   8.735  18.418  0.00  0.00    +0.000 C 
ATOM     16  O   UNL     1       2.292   8.878  17.287  0.00  0.00    +0.000 OA
BRANCH  14  17
ATOM     17  C   UNL     1      -0.174   9.651  22.706  0.00  0.00    +0.000 C 
ATOM     18  F   UNL     1       0.959   9.378  23.425  0.00  0.00    +0.000 F 
ATOM     19  F   UNL     1      -0.846  10.575  23.450  0.00  0.00    +0.000 F 
ATOM     20  F   UNL     1      -0.909   8.506  22.758  0.00  0.00    +0.000 F 
ENDBRANCH  14  17
ENDBRANCH   5   7
BRANCH   1  22
ATOM     21  C   UNL     1       4.812   3.831  15.591  0.00  0.00    +0.000 C 
ATOM     22  C   UNL     1       5.154   5.037  16.498  0.00  0.00    +0.000 C 
BRANCH  22  23
ATOM     23  C   UNL     1       6.635   4.990  16.945  0.00  0.00    +0.000 C 
BRANCH  23  24
ATOM     24  C   UNL     1       7.181   6.307  17.387  0.00  0.00    +0.000 A 
ATOM     25  N   UNL     1       7.139   7.449  16.728  0.00  0.00    +0.000 NA
ATOM     26  N   UNL     1       7.832   8.389  17.451  0.00  0.00    +0.000 NA
ATOM     27  C   UNL     1       8.248   7.815  18.553  0.00  0.00    +0.000 A 
ATOM     28  N   UNL     1       7.829   6.521  18.575  0.00  0.00    +0.000 N 
ATOM     29  C   UNL     1       8.012   5.588  19.654  0.00  0.00    +0.000 C 
ENDBRANCH  23  24
ENDBRANCH  22  23
ENDBRANCH   1  22
TORSDOF 5
ENDMDL
MODEL 2
REMARK VINA RESULT:      -8.7      1.282      2.281
REMARK  Name = 
REMARK  7 active torsions:
REMARK  status: ('A' for Active; 'I' for Inactive)
REMARK    1  A    between atoms: C_1  and  C_2
REMARK    2  A    between atoms: C_2  and  C_3
REMARK    3  A    between atoms: C_2  and  C_10
REMARK    4  A    between atoms: C_3  and  C_4
REMARK    5  A    between atoms: N_8  and  C_9
REMARK    6  A    between atoms: C_14  and  N_15
REMARK    7  A    between atoms: C_22  and  C_23
REMARK                            x       y       z     vdW  Elec       q    Type
REMARK                         _______ _______ _______ _____ _____    ______ ____
ROOT
ATOM      1  C   UNL     1       4.708   5.106  19.119  0.00  0.00    +0.000 A 
ATOM      2  C   UNL     1       4.123   3.903  19.525  0.00  0.00    +0.000 A 
ATOM      3  C   UNL     1       2.818   3.884  20.035  0.00  0.00    +0.000 A 
ATOM      4  C   UNL     1       2.069   5.063  20.145  0.00  0.00    +0.000 A 
ATOM      5  C   UNL     1       2.619   6.276  19.745  0.00  0.00    +0.000 A 
ATOM      6  C   UNL     1       3.939   6.269  19.258  0.00  0.00    +0.000 A 
ENDROOT
BRANCH   5   7
ATOM      7  N   UNL     1       1.912   7.506  19.774  0.00  0.00    +0.000 N 
ATOM      8  C   UNL     1       1.199   7.907  20.975  0.00  0.00    +0.000 C 
ATOM      9  C   UNL     1       0.678   9.251  20.652  0.00  0.00    +0.000 A 
ATOM     10  C   UNL     1       1.033   9.591  19.354  0.00  0.00    +0.000 A 
ATOM     11  C   UNL     1       0.656  10.792  18.797  0.00  0.00    +0.000 A 
ATOM     12  C   UNL     1      -0.091  11.616  19.618  0.00  0.00    +0.000 A 
ATOM     13  N   UNL     1      -0.442  11.319  20.905  0.00  0.00    +0.000 NA
ATOM     14  C   UNL     1      -0.053  10.122  21.430  0.00  0.00    +0.000 A 
ATOM     15  C   UNL     1       1.837   8.490  18.786  0.00  0.00    +0.000 C 
ATOM     16  O   UNL     1       2.308   8.533  17.666  0.00  0.00    +0.000 OA
BRANCH  14  17
ATOM     17  C   UNL     1      -0.406   9.780  22.875  0.00  0.00    +0.000 C 
ATOM     18  F   UNL     1       0.693   9.596  23.671  0.00  0.00    +0.000 F 
ATOM     19  F   UNL     1      -1.127  10.756  23.495  0.00  0.00    +0.000 F 
ATOM     20  F   UNL     1      -1.126   8.630  22.998  0.00  0.00    +0.000 F 
ENDBRANCH  14  17
ENDBRANCH   5   7
BRANCH   1  22
ATOM     21  C   UNL     1       7.216   5.514  19.540  0.00  0.00    +0.000 C 
ATOM     22  C   UNL     1       6.117   5.146  18.514  0.00  0.00    +0.000 C 
BRANCH  22  23
ATOM     23  C   UNL     1       6.126   6.129  17.318  0.00  0.00    +0.000 C 
BRANCH  23  24
ATOM     24  C   UNL     1       6.525   5.508  16.021  0.00  0.00    +0.000 A 
ATOM     25  N   UNL     1       7.617   5.753  15.324  0.00  0.00    +0.000 NA
ATOM     26  N   UNL     1       7.551   5.036  14.154  0.00  0.00    +0.000 NA
ATOM     27  C   UNL     1       6.442   4.337  14.179  0.00  0.00    +0.000 A 
ATOM     28  N   UNL     1       5.787   4.571  15.348  0.00  0.00    +0.000 N 
ATOM     29  C   UNL     1       4.578   3.928  15.786  0.00  0.00    +0.000 C 
ENDBRANCH  23  24
ENDBRANCH  22  23
ENDBRANCH   1  22
TORSDOF 5
ENDMDL
MODEL 3
REMARK VINA RESULT:      -8.6      3.422      8.205
REMARK  Name = 
REMARK  7 active torsions:
REMARK  status: ('A' for Active; 'I' for Inactive)
REMARK    1  A    between atoms: C_1  and  C_2
REMARK    2  A    between atoms: C_2  and  C_3
REMARK    3  A    between atoms: C_2  and  C_10
REMARK    4  A    between atoms: C_3  and  C_4
REMARK    5  A    between atoms: N_8  and  C_9
REMARK    6  A    between atoms: C_14  and  N_15
REMARK    7  A    between atoms: C_22  and  C_23
REMARK                            x       y       z     vdW  Elec       q    Type
REMARK                         _______ _______ _______ _____ _____    ______ ____
ROOT
ATOM      1  C   UNL     1      -0.262  10.923  19.735  0.00  0.00    +0.000 A 
ATOM      2  C   UNL     1      -0.314  11.231  21.097  0.00  0.00    +0.000 A 
ATOM      3  C   UNL     1       0.302  10.396  22.039  0.00  0.00    +0.000 A 
ATOM      4  C   UNL     1       0.986   9.240  21.641  0.00  0.00    +0.000 A 
ATOM      5  C   UNL     1       1.062   8.907  20.293  0.00  0.00    +0.000 A 
ATOM      6  C   UNL     1       0.416   9.752  19.371  0.00  0.00    +0.000 A 
ENDROOT
BRANCH   5   7
ATOM      7  N   UNL     1       1.779   7.785  19.800  0.00  0.00    +0.000 N 
ATOM      8  C   UNL     1       1.692   6.508  20.487  0.00  0.00    +0.000 C 
ATOM      9  C   UNL     1       2.483   5.591  19.642  0.00  0.00    +0.000 A 
ATOM     10  C   UNL     1       3.016   6.288  18.566  0.00  0.00    +0.000 A 
ATOM     11  C   UNL     1       3.812   5.667  17.631  0.00  0.00    +0.000 A 
ATOM     12  C   UNL     1       4.036   4.320  17.846  0.00  0.00    +0.000 A 
ATOM     13  N   UNL     1       3.513   3.602  18.884  0.00  0.00    +0.000 NA
ATOM     14  C   UNL     1       2.727   4.244  19.793  0.00  0.00    +0.000 A 
ATOM     15  C   UNL     1       2.559   7.690  18.646  0.00  0.00    +0.000 C 
ATOM     16  O   UNL     1       2.853   8.523  17.810  0.00  0.00    +0.000 OA
BRANCH  14  17
ATOM     17  C   UNL     1       2.106   3.457  20.945  0.00  0.00    +0.000 C 
ATOM     18  F   UNL     1       0.736   3.464  20.929  0.00  0.00    +0.000 F 
ATOM     19  F   UNL     1       2.448   2.138  20.938  0.00  0.00    +0.000 F 
ATOM     20  F   UNL     1       2.445   3.937  22.174  0.00  0.00    +0.000 F 
ENDBRANCH  14  17
ENDBRANCH   5   7
BRANCH   1  22
ATOM     21  C   UNL     1      -0.677  13.349  18.979  0.00  0.00    +0.000 C 
ATOM     22  C   UNL     1      -0.887  11.846  18.682  0.00  0.00    +0.000 C 
BRANCH  22  23
ATOM     23  C   UNL     1      -2.393  11.513  18.549  0.00  0.00    +0.000 C 
BRANCH  23  24
ATOM     24  C   UNL     1      -2.778  10.944  17.224  0.00  0.00    +0.000 A 
ATOM     25  N   UNL     1      -2.074  10.114  16.479  0.00  0.00    +0.000 NA
ATOM     26  N   UNL     1      -2.753   9.910  15.302  0.00  0.00    +0.000 NA
ATOM     27  C   UNL     1      -3.875  10.586  15.369  0.00  0.00    +0.000 A 
ATOM     28  N   UNL     1      -3.952  11.217  16.571  0.00  0.00    +0.000 N 
ATOM     29  C   UNL     1      -5.065  11.986  17.056  0.00  0.00    +0.000 C 
ENDBRANCH  23  24
ENDBRANCH  22  23
ENDBRANCH   1  22
TORSDOF 5
ENDMDL
MODEL 4
REMARK VINA RESULT:      -8.5      0.667      1.394
REMARK  Name = 
REMARK  7 active torsions:
REMARK  status: ('A' for Active; 'I' for Inactive)
REMARK    1  A    between atoms: C_1  and  C_2
REMARK    2  A    between atoms: C_2  and  C_3
REMARK    3  A    between atoms: C_2  and  C_10
REMARK    4  A    between atoms: C_3  and  C_4
REMARK    5  A    between atoms: N_8  and  C_9
REMARK    6  A    between atoms: C_14  and  N_15
REMARK    7  A    between atoms: C_22  and  C_23
REMARK                            x       y       z     vdW  Elec       q    Type
REMARK                         _______ _______ _______ _____ _____    ______ ____
ROOT
ATOM      1  C   UNL     1       3.964   5.172  17.584  0.00  0.00    +0.000 A 
ATOM      2  C   UNL     1       3.748   4.079  18.427  0.00  0.00    +0.000 A 
ATOM      3  C   UNL     1       2.956   4.212  19.575  0.00  0.00    +0.000 A 
ATOM      4  C   UNL     1       2.361   5.437  19.902  0.00  0.00    +0.000 A 
ATOM      5  C   UNL     1       2.550   6.543  19.082  0.00  0.00    +0.000 A 
ATOM      6  C   UNL     1       3.368   6.386  17.946  0.00  0.00    +0.000 A 
ENDROOT
BRANCH   5   7
ATOM      7  N   UNL     1       1.941   7.805  19.310  0.00  0.00    +0.000 N 
ATOM      8  C   UNL     1       1.256   8.065  20.565  0.00  0.00    +0.000 C 
ATOM      9  C   UNL     1       0.844   9.480  20.463  0.00  0.00    +0.000 A 
ATOM     10  C   UNL     1       1.230   9.993  19.232  0.00  0.00    +0.000 A 
ATOM     11  C   UNL     1       0.951  11.292  18.875  0.00  0.00    +0.000 A 
ATOM     12  C   UNL     1       0.267  12.031  19.822  0.00  0.00    +0.000 A 
ATOM     13  N   UNL     1      -0.113  11.562  21.048  0.00  0.00    +0.000 NA
ATOM     14  C   UNL     1       0.179  10.271  21.374  0.00  0.00    +0.000 A 
ATOM     15  C   UNL     1       1.949   8.936  18.491  0.00  0.00    +0.000 C 
ATOM     16  O   UNL     1       2.427   9.119  17.388  0.00  0.00    +0.000 OA
BRANCH  14  17
ATOM     17  C   UNL     1      -0.207   9.733  22.749  0.00  0.00    +0.000 C 
ATOM     18  F   UNL     1      -0.974  10.605  23.475  0.00  0.00    +0.000 F 
ATOM     19  F   UNL     1      -0.945   8.588  22.687  0.00  0.00    +0.000 F 
ATOM     20  F   UNL     1       0.864   9.460  23.544  0.00  0.00    +0.000 F 
ENDBRANCH  14  17
ENDBRANCH   5   7
BRANCH   1  22
ATOM     21  C   UNL     1       5.302   3.602  16.042  0.00  0.00    +0.000 C 
ATOM     22  C   UNL     1       4.788   5.038  16.296  0.00  0.00    +0.000 C 
BRANCH  22  23
ATOM     23  C   UNL     1       5.962   6.046  16.341  0.00  0.00    +0.000 C 
BRANCH  23  24
ATOM     24  C   UNL     1       6.881   5.861  17.502  0.00  0.00    +0.000 A 
ATOM     25  N   UNL     1       7.167   4.732  18.120  0.00  0.00    +0.000 NA
ATOM     26  N   UNL     1       7.984   5.019  19.186  0.00  0.00    +0.000 NA
ATOM     27  C   UNL     1       8.213   6.310  19.175  0.00  0.00    +0.000 A 
ATOM     28  N   UNL     1       7.575   6.873  18.114  0.00  0.00    +0.000 N 
ATOM     29  C   UNL     1       7.652   8.251  17.711  0.00  0.00    +0.000 C 
ENDBRANCH  23  24
ENDBRANCH  22  23
ENDBRANCH   1  22
TORSDOF 5
ENDMDL
MODEL 5
REMARK VINA RESULT:      -8.5      2.276      2.844
REMARK  Name = 
REMARK  7 active torsions:
REMARK  status: ('A' for Active; 'I' for Inactive)
REMARK    1  A    between atoms: C_1  and  C_2
REMARK    2  A    between atoms: C_2  and  C_3
REMARK    3  A    between atoms: C_2  and  C_10
REMARK    4  A    between atoms: C_3  and  C_4
REMARK    5  A    between atoms: N_8  and  C_9
REMARK    6  A    between atoms: C_14  and  N_15
REMARK    7  A    between atoms: C_22  and  C_23
REMARK                            x       y       z     vdW  Elec       q    Type
REMARK                         _______ _______ _______ _____ _____    ______ ____
ROOT
ATOM      1  C   UNL     1       4.493   4.651  16.707  0.00  0.00    +0.000 A 
ATOM      2  C   UNL     1       3.793   3.449  16.576  0.00  0.00    +0.000 A 
ATOM      3  C   UNL     1       2.611   3.233  17.298  0.00  0.00    +0.000 A 
ATOM      4  C   UNL     1       2.103   4.213  18.161  0.00  0.00    +0.000 A 
ATOM      5  C   UNL     1       2.772   5.423  18.309  0.00  0.00    +0.000 A 
ATOM      6  C   UNL     1       3.968   5.604  17.589  0.00  0.00    +0.000 A 
ENDROOT
BRANCH   5   7
ATOM      7  N   UNL     1       2.300   6.488  19.120  0.00  0.00    +0.000 N 
ATOM      8  C   UNL     1       2.070   7.799  18.537  0.00  0.00    +0.000 C 
ATOM      9  C   UNL     1       1.512   8.593  19.650  0.00  0.00    +0.000 A 
ATOM     10  C   UNL     1       1.452   7.816  20.798  0.00  0.00    +0.000 A 
ATOM     11  C   UNL     1       0.983   8.323  21.987  0.00  0.00    +0.000 A 
ATOM     12  C   UNL     1       0.584   9.647  21.948  0.00  0.00    +0.000 A 
ATOM     13  N   UNL     1       0.614  10.434  20.832  0.00  0.00    +0.000 NA
ATOM     14  C   UNL     1       1.083   9.902  19.668  0.00  0.00    +0.000 A 
ATOM     15  C   UNL     1       1.938   6.460  20.469  0.00  0.00    +0.000 C 
ATOM     16  O   UNL     1       1.968   5.559  21.284  0.00  0.00    +0.000 OA
BRANCH  14  17
ATOM     17  C   UNL     1       1.098  10.752  18.400  0.00  0.00    +0.000 C 
ATOM     18  F   UNL     1       0.664  12.035  18.604  0.00  0.00    +0.000 F 
ATOM     19  F   UNL     1       2.343  10.887  17.861  0.00  0.00    +0.000 F 
ATOM     20  F   UNL     1       0.299  10.265  17.411  0.00  0.00    +0.000 F 
ENDBRANCH  14  17
ENDBRANCH   5   7
BRANCH   1  22
ATOM     21  C   UNL     1       5.972   3.938  14.723  0.00  0.00    +0.000 C 
ATOM     22  C   UNL     1       5.763   4.929  15.891  0.00  0.00    +0.000 C 
BRANCH  22  23
ATOM     23  C   UNL     1       6.984   4.930  16.842  0.00  0.00    +0.000 C 
BRANCH  23  24
ATOM     24  C   UNL     1       7.384   6.286  17.322  0.00  0.00    +0.000 A 
ATOM     25  N   UNL     1       7.316   7.419  16.652  0.00  0.00    +0.000 NA
ATOM     26  N   UNL     1       7.865   8.411  17.428  0.00  0.00    +0.000 NA
ATOM     27  C   UNL     1       8.219   7.872  18.570  0.00  0.00    +0.000 A 
ATOM     28  N   UNL     1       7.900   6.550  18.564  0.00  0.00    +0.000 N 
ATOM     29  C   UNL     1       8.052   5.636  19.663  0.00  0.00    +0.000 C 
ENDBRANCH  23  24
ENDBRANCH  22  23
ENDBRANCH   1  22
TORSDOF 5
ENDMDL
MODEL 6
REMARK VINA RESULT:      -8.5      3.257      8.175
REMARK  Name = 
REMARK  7 active torsions:
REMARK  status: ('A' for Active; 'I' for Inactive)
REMARK    1  A    between atoms: C_1  and  C_2
REMARK    2  A    between atoms: C_2  and  C_3
REMARK    3  A    between atoms: C_2  and  C_10
REMARK    4  A    between atoms: C_3  and  C_4
REMARK    5  A    between atoms: N_8  and  C_9
REMARK    6  A    between atoms: C_14  and  N_15
REMARK    7  A    between atoms: C_22  and  C_23
REMARK                            x       y       z     vdW  Elec       q    Type
REMARK                         _______ _______ _______ _____ _____    ______ ____
ROOT
ATOM      1  C   UNL     1       0.934   9.805  20.297  0.00  0.00    +0.000 A 
ATOM      2  C   UNL     1       0.963  10.642  19.178  0.00  0.00    +0.000 A 
ATOM      3  C   UNL     1       1.560  10.213  17.985  0.00  0.00    +0.000 A 
ATOM      4  C   UNL     1       2.135   8.939  17.884  0.00  0.00    +0.000 A 
ATOM      5  C   UNL     1       2.118   8.079  18.976  0.00  0.00    +0.000 A 
ATOM      6  C   UNL     1       1.531   8.544  20.168  0.00  0.00    +0.000 A 
ENDROOT
BRANCH   5   7
ATOM      7  N   UNL     1       2.630   6.756  18.942  0.00  0.00    +0.000 N 
ATOM      8  C   UNL     1       2.225   5.794  19.952  0.00  0.00    +0.000 C 
ATOM      9  C   UNL     1       2.883   4.539  19.537  0.00  0.00    +0.000 A 
ATOM     10  C   UNL     1       3.638   4.761  18.394  0.00  0.00    +0.000 A 
ATOM     11  C   UNL     1       4.369   3.754  17.807  0.00  0.00    +0.000 A 
ATOM     12  C   UNL     1       4.294   2.525  18.437  0.00  0.00    +0.000 A 
ATOM     13  N   UNL     1       3.547   2.268  19.552  0.00  0.00    +0.000 NA
ATOM     14  C   UNL     1       2.832   3.286  20.110  0.00  0.00    +0.000 A 
ATOM     15  C   UNL     1       3.472   6.173  17.992  0.00  0.00    +0.000 C 
ATOM     16  O   UNL     1       4.001   6.639  17.002  0.00  0.00    +0.000 OA
BRANCH  14  17
ATOM     17  C   UNL     1       1.967   3.018  21.338  0.00  0.00    +0.000 C 
ATOM     18  F   UNL     1       0.630   3.208  21.109  0.00  0.00    +0.000 F 
ATOM     19  F   UNL     1       2.064   1.737  21.793  0.00  0.00    +0.000 F 
ATOM     20  F   UNL     1       2.260   3.826  22.395  0.00  0.00    +0.000 F 
ENDBRANCH  14  17
ENDBRANCH   5   7
BRANCH   1  22
ATOM     21  C   UNL     1      -0.324   9.046  22.413  0.00  0.00    +0.000 C 
ATOM     22  C   UNL     1       0.244  10.233  21.599  0.00  0.00    +0.000 C 
BRANCH  22  23
ATOM     23  C   UNL     1      -0.866  11.260  21.269  0.00  0.00    +0.000 C 
BRANCH  23  24
ATOM     24  C   UNL     1      -0.794  12.516  22.072  0.00  0.00    +0.000 A 
ATOM     25  N   UNL     1       0.133  13.451  22.006  0.00  0.00    +0.000 NA
ATOM     26  N   UNL     1      -0.131  14.389  22.975  0.00  0.00    +0.000 NA
ATOM     27  C   UNL     1      -1.235  14.029  23.584  0.00  0.00    +0.000 A 
ATOM     28  N   UNL     1      -1.707  12.883  23.025  0.00  0.00    +0.000 N 
ATOM     29  C   UNL     1      -2.939  12.221  23.360  0.00  0.00    +0.000 C 
ENDBRANCH  23  24
ENDBRANCH  22  23
ENDBRANCH   1  22
TORSDOF 5
ENDMDL
MODEL 7
REMARK VINA RESULT:      -8.4      1.523      2.545
REMARK  Name = 
REMARK  7 active torsions:
REMARK  status: ('A' for Active; 'I' for Inactive)
REMARK    1  A    between atoms: C_1  and  C_2
REMARK    2  A    between atoms: C_2  and  C_3
REMARK    3  A    between atoms: C_2  and  C_10
REMARK    4  A    between atoms: C_3  and  C_4
REMARK    5  A    between atoms: N_8  and  C_9
REMARK    6  A    between atoms: C_14  and  N_15
REMARK    7  A    between atoms: C_22  and  C_23
REMARK                            x       y       z     vdW  Elec       q    Type
REMARK                         _______ _______ _______ _____ _____    ______ ____
ROOT
ATOM      1  C   UNL     1       4.511   4.561  18.354  0.00  0.00    +0.000 A 
ATOM      2  C   UNL     1       4.045   3.489  19.118  0.00  0.00    +0.000 A 
ATOM      3  C   UNL     1       2.973   3.660  20.005  0.00  0.00    +0.000 A 
ATOM      4  C   UNL     1       2.344   4.905  20.144  0.00  0.00    +0.000 A 
ATOM      5  C   UNL     1       2.780   5.992  19.394  0.00  0.00    +0.000 A 
ATOM      6  C   UNL     1       3.872   5.795  18.527  0.00  0.00    +0.000 A 
ENDROOT
BRANCH   5   7
ATOM      7  N   UNL     1       2.166   7.271  19.435  0.00  0.00    +0.000 N 
ATOM      8  C   UNL     1       1.469   7.705  20.633  0.00  0.00    +0.000 C 
ATOM      9  C   UNL     1       1.054   9.089  20.325  0.00  0.00    +0.000 A 
ATOM     10  C   UNL     1       1.451   9.422  19.038  0.00  0.00    +0.000 A 
ATOM     11  C   UNL     1       1.172  10.655  18.496  0.00  0.00    +0.000 A 
ATOM     12  C   UNL     1       0.477  11.520  19.321  0.00  0.00    +0.000 A 
ATOM     13  N   UNL     1       0.088  11.230  20.598  0.00  0.00    +0.000 NA
ATOM     14  C   UNL     1       0.380  10.000  21.108  0.00  0.00    +0.000 A 
ATOM     15  C   UNL     1       2.179   8.273  18.461  0.00  0.00    +0.000 C 
ATOM     16  O   UNL     1       2.667   8.298  17.349  0.00  0.00    +0.000 OA
BRANCH  14  17
ATOM     17  C   UNL     1      -0.018   9.663  22.542  0.00  0.00    +0.000 C 
ATOM     18  F   UNL     1      -0.659  10.691  23.182  0.00  0.00    +0.000 F 
ATOM     19  F   UNL     1      -0.880   8.609  22.625  0.00  0.00    +0.000 F 
ATOM     20  F   UNL     1       1.041   9.358  23.341  0.00  0.00    +0.000 F 
ENDBRANCH  14  17
ENDBRANCH   5   7
BRANCH   1  22
ATOM     21  C   UNL     1       7.042   4.747  17.914  0.00  0.00    +0.000 C 
ATOM     22  C   UNL     1       5.651   4.386  17.342  0.00  0.00    +0.000 C 
BRANCH  22  23
ATOM     23  C   UNL     1       5.338   5.225  16.079  0.00  0.00    +0.000 C 
BRANCH  23  24
ATOM     24  C   UNL     1       6.400   5.171  15.031  0.00  0.00    +0.000 A 
ATOM     25  N   UNL     1       7.594   5.729  15.078  0.00  0.00    +0.000 NA
ATOM     26  N   UNL     1       8.219   5.509  13.875  0.00  0.00    +0.000 NA
ATOM     27  C   UNL     1       7.413   4.788  13.134  0.00  0.00    +0.000 A 
ATOM     28  N   UNL     1       6.277   4.518  13.833  0.00  0.00    +0.000 N 
ATOM     29  C   UNL     1       5.190   3.685  13.396  0.00  0.00    +0.000 C 
ENDBRANCH  23  24
ENDBRANCH  22  23
ENDBRANCH   1  22
TORSDOF 5
ENDMDL
MODEL 8
REMARK VINA RESULT:      -8.4      3.187      8.386
REMARK  Name = 
REMARK  7 active torsions:
REMARK  status: ('A' for Active; 'I' for Inactive)
REMARK    1  A    between atoms: C_1  and  C_2
REMARK    2  A    between atoms: C_2  and  C_3
REMARK    3  A    between atoms: C_2  and  C_10
REMARK    4  A    between atoms: C_3  and  C_4
REMARK    5  A    between atoms: N_8  and  C_9
REMARK    6  A    between atoms: C_14  and  N_15
REMARK    7  A    between atoms: C_22  and  C_23
REMARK                            x       y       z     vdW  Elec       q    Type
REMARK                         _______ _______ _______ _____ _____    ______ ____
ROOT
ATOM      1  C   UNL     1       0.377  10.224  20.906  0.00  0.00    +0.000 A 
ATOM      2  C   UNL     1      -0.066  10.959  19.803  0.00  0.00    +0.000 A 
ATOM      3  C   UNL     1       0.253  10.549  18.501  0.00  0.00    +0.000 A 
ATOM      4  C   UNL     1       1.018   9.397  18.275  0.00  0.00    +0.000 A 
ATOM      5  C   UNL     1       1.470   8.640  19.349  0.00  0.00    +0.000 A 
ATOM      6  C   UNL     1       1.152   9.087  20.646  0.00  0.00    +0.000 A 
ENDROOT
BRANCH   5   7
ATOM      7  N   UNL     1       2.204   7.433  19.207  0.00  0.00    +0.000 N 
ATOM      8  C   UNL     1       1.936   6.312  20.092  0.00  0.00    +0.000 C 
ATOM      9  C   UNL     1       2.815   5.238  19.585  0.00  0.00    +0.000 A 
ATOM     10  C   UNL     1       3.559   5.708  18.512  0.00  0.00    +0.000 A 
ATOM     11  C   UNL     1       4.472   4.909  17.864  0.00  0.00    +0.000 A 
ATOM     12  C   UNL     1       4.589   3.623  18.360  0.00  0.00    +0.000 A 
ATOM     13  N   UNL     1       3.860   3.124  19.403  0.00  0.00    +0.000 NA
ATOM     14  C   UNL     1       2.962   3.940  20.023  0.00  0.00    +0.000 A 
ATOM     15  C   UNL     1       3.166   7.108  18.248  0.00  0.00    +0.000 C 
ATOM     16  O   UNL     1       3.639   7.762  17.340  0.00  0.00    +0.000 OA
BRANCH  14  17
ATOM     17  C   UNL     1       2.114   3.398  21.171  0.00  0.00    +0.000 C 
ATOM     18  F   UNL     1       2.373   4.008  22.370  0.00  0.00    +0.000 F 
ATOM     19  F   UNL     1       0.776   3.567  20.975  0.00  0.00    +0.000 F 
ATOM     20  F   UNL     1       2.305   2.070  21.405  0.00  0.00    +0.000 F 
ENDBRANCH  14  17
ENDBRANCH   5   7
BRANCH   1  22
ATOM     21  C   UNL     1      -0.150   9.419  23.294  0.00  0.00    +0.000 C 
ATOM     22  C   UNL     1       0.001  10.625  22.338  0.00  0.00    +0.000 C 
BRANCH  22  23
ATOM     23  C   UNL     1      -1.297  11.468  22.302  0.00  0.00    +0.000 C 
BRANCH  23  24
ATOM     24  C   UNL     1      -1.141  12.852  22.839  0.00  0.00    +0.000 A 
ATOM     25  N   UNL     1      -0.104  13.652  22.690  0.00  0.00    +0.000 NA
ATOM     26  N   UNL     1      -0.334  14.796  23.415  0.00  0.00    +0.000 NA
ATOM     27  C   UNL     1      -1.523  14.689  23.959  0.00  0.00    +0.000 A 
ATOM     28  N   UNL     1      -2.082  13.504  23.592  0.00  0.00    +0.000 N 
ATOM     29  C   UNL     1      -3.410  13.058  23.914  0.00  0.00    +0.000 C 
ENDBRANCH  23  24
ENDBRANCH  22  23
ENDBRANCH   1  22
TORSDOF 5
ENDMDL
MODEL 9
REMARK VINA RESULT:      -8.3      3.889      8.447
REMARK  Name = 
REMARK  7 active torsions:
REMARK  status: ('A' for Active; 'I' for Inactive)
REMARK    1  A    between atoms: C_1  and  C_2
REMARK    2  A    between atoms: C_2  and  C_3
REMARK    3  A    between atoms: C_2  and  C_10
REMARK    4  A    between atoms: C_3  and  C_4
REMARK    5  A    between atoms: N_8  and  C_9
REMARK    6  A    between atoms: C_14  and  N_15
REMARK    7  A    between atoms: C_22  and  C_23
REMARK                            x       y       z     vdW  Elec       q    Type
REMARK                         _______ _______ _______ _____ _____    ______ ____
ROOT
ATOM      1  C   UNL     1       0.796  10.296  19.703  0.00  0.00    +0.000 A 
ATOM      2  C   UNL     1       0.678  10.371  21.093  0.00  0.00    +0.000 A 
ATOM      3  C   UNL     1       1.067   9.293  21.899  0.00  0.00    +0.000 A 
ATOM      4  C   UNL     1       1.584   8.120  21.334  0.00  0.00    +0.000 A 
ATOM      5  C   UNL     1       1.721   8.014  19.954  0.00  0.00    +0.000 A 
ATOM      6  C   UNL     1       1.302   9.104  19.168  0.00  0.00    +0.000 A 
ENDROOT
BRANCH   5   7
ATOM      7  N   UNL     1       2.283   6.884  19.304  0.00  0.00    +0.000 N 
ATOM      8  C   UNL     1       3.247   7.068  18.232  0.00  0.00    +0.000 C 
ATOM      9  C   UNL     1       3.657   5.694  17.880  0.00  0.00    +0.000 A 
ATOM     10  C   UNL     1       2.963   4.781  18.662  0.00  0.00    +0.000 A 
ATOM     11  C   UNL     1       3.148   3.426  18.522  0.00  0.00    +0.000 A 
ATOM     12  C   UNL     1       4.064   3.051  17.555  0.00  0.00    +0.000 A 
ATOM     13  N   UNL     1       4.776   3.923  16.781  0.00  0.00    +0.000 NA
ATOM     14  C   UNL     1       4.572   5.261  16.945  0.00  0.00    +0.000 A 
ATOM     15  C   UNL     1       2.092   5.531  19.590  0.00  0.00    +0.000 C 
ATOM     16  O   UNL     1       1.388   4.982  20.415  0.00  0.00    +0.000 OA
BRANCH  14  17
ATOM     17  C   UNL     1       5.377   6.256  16.113  0.00  0.00    +0.000 C 
ATOM     18  F   UNL     1       4.593   7.092  15.363  0.00  0.00    +0.000 F 
ATOM     19  F   UNL     1       6.148   7.086  16.870  0.00  0.00    +0.000 F 
ATOM     20  F   UNL     1       6.213   5.662  15.218  0.00  0.00    +0.000 F 
ENDBRANCH  14  17
ENDBRANCH   5   7
BRANCH   1  22
ATOM     21  C   UNL     1       1.329  12.717  19.006  0.00  0.00    +0.000 C 
ATOM     22  C   UNL     1       0.422  11.481  18.803  0.00  0.00    +0.000 C 
BRANCH  22  23
ATOM     23  C   UNL     1      -1.066  11.842  19.035  0.00  0.00    +0.000 C 
BRANCH  23  24
ATOM     24  C   UNL     1      -2.016  11.121  18.138  0.00  0.00    +0.000 A 
ATOM     25  N   UNL     1      -1.717  10.232  17.210  0.00  0.00    +0.000 NA
ATOM     26  N   UNL     1      -2.876   9.884  16.559  0.00  0.00    +0.000 NA
ATOM     27  C   UNL     1      -3.862  10.534  17.128  0.00  0.00    +0.000 A 
ATOM     28  N   UNL     1      -3.376  11.291  18.148  0.00  0.00    +0.000 N 
ATOM     29  C   UNL     1      -4.153  12.080  19.064  0.00  0.00    +0.000 C 
ENDBRANCH  23  24
ENDBRANCH  22  23
ENDBRANCH   1  22
TORSDOF 5
ENDMDL
