MODEL 1
REMARK VINA RESULT:      -9.4      0.000      0.000
REMARK  Name = 
REMARK  8 active torsions:
REMARK  status: ('A' for Active; 'I' for Inactive)
REMARK    1  A    between atoms: C_1  and  N_2
REMARK    2  A    between atoms: C_6  and  C_7
REMARK    3  A    between atoms: C_7  and  C_8
REMARK    4  A    between atoms: C_8  and  C_9
REMARK    5  A    between atoms: C_13  and  N_14
REMARK    6  A    between atoms: C_15  and  C_17
REMARK    7  A    between atoms: C_19  and  C_20
REMARK    8  A    between atoms: C_24  and  C_25
REMARK                            x       y       z     vdW  Elec       q    Type
REMARK                         _______ _______ _______ _____ _____    ______ ____
ROOT
ATOM      1  C   UNL     1       4.610   4.794  17.220  0.00  0.00    +0.000 A 
ATOM      2  C   UNL     1       3.853   3.614  17.070  0.00  0.00    +0.000 A 
ATOM      3  C   UNL     1       2.507   3.554  17.422  0.00  0.00    +0.000 A 
ATOM      4  C   UNL     1       1.874   4.680  17.939  0.00  0.00    +0.000 A 
ATOM      5  C   UNL     1       2.582   5.865  18.115  0.00  0.00    +0.000 A 
ATOM      6  C   UNL     1       3.933   5.916  17.747  0.00  0.00    +0.000 A 
ENDROOT
BRANCH   1   7
ATOM      7  C   UNL     1       6.155   4.856  16.790  0.00  0.00    +0.000 C 
ATOM      8  C   UNL     1       7.183   4.636  17.939  0.00  0.00    +0.000 C 
ATOM      9  O   UNL     1       7.769   5.937  17.752  0.00  0.00    +0.000 OA
ATOM     10  C   UNL     1       6.837   6.249  16.696  0.00  0.00    +0.000 C 
BRANCH   7  11
ATOM     11  C   UNL     1       6.411   3.915  15.597  0.00  0.00    +0.000 C 
BRANCH  11  17
ATOM     12  C   UNL     1       5.743   3.365  12.513  0.00  0.00    +0.000 C 
ATOM     13  N   UNL     1       6.701   4.284  13.066  0.00  0.00    +0.000 N 
ATOM     14  C   UNL     1       7.552   5.048  12.323  0.00  0.00    +0.000 A 
ATOM     15  N   UNL     1       8.276   5.799  13.116  0.00  0.00    +0.000 NA
ATOM     16  N   UNL     1       7.911   5.508  14.406  0.00  0.00    +0.000 NA
ATOM     17  C   UNL     1       6.977   4.577  14.381  0.00  0.00    +0.000 A 
ENDBRANCH  11  17
ENDBRANCH   7  11
ENDBRANCH   1   7
BRANCH   5  18
ATOM     18  N   UNL     1       2.004   7.039  18.636  0.00  0.00    +0.000 N 
ATOM     19  C   UNL     1       2.108   8.314  18.113  0.00  0.00    +0.000 C 
ATOM     20  O   UNL     1       2.681   8.645  17.082  0.00  0.00    +0.000 OA
ATOM     21  H   UNL     1       1.414   6.962  19.459  0.00  0.00    +0.000 HD
BRANCH  19  22
ATOM     22  C   UNL     1       1.422   9.357  18.931  0.00  0.00    +0.000 A 
ATOM     23  C   UNL     1       1.481  10.670  18.525  0.00  0.00    +0.000 A 
ATOM     24  C   UNL     1       0.857  11.583  19.339  0.00  0.00    +0.000 A 
ATOM     25  N   UNL     1       0.232  11.181  20.469  0.00  0.00    +0.000 NA
ATOM     26  C   UNL     1       0.207   9.872  20.791  0.00  0.00    +0.000 A 
ATOM     27  N   UNL     1       0.793   8.924  20.045  0.00  0.00    +0.000 NA
BRANCH  24  28
ATOM     28  C   UNL     1       0.884  13.057  19.023  0.00  0.00    +0.000 C 
ATOM     29  C   UNL     1      -0.391  13.852  18.857  0.00  0.00    +0.000 C 
ATOM     30  C   UNL     1       0.446  14.038  20.086  0.00  0.00    +0.000 C 
ENDBRANCH  24  28
BRANCH  26  31
ATOM     31  C   UNL     1      -0.508   9.462  22.052  0.00  0.00    +0.000 C 
ATOM     32  C   UNL     1       0.213   9.526  23.379  0.00  0.00    +0.000 C 
ATOM     33  C   UNL     1      -0.889  10.499  23.083  0.00  0.00    +0.000 C 
ENDBRANCH  26  31
ENDBRANCH  19  22
ENDBRANCH   5  18
TORSDOF 7
ENDMDL
MODEL 2
REMARK VINA RESULT:      -9.0      3.183     10.728
REMARK  Name = 
REMARK  8 active torsions:
REMARK  status: ('A' for Active; 'I' for Inactive)
REMARK    1  A    between atoms: C_1  and  N_2
REMARK    2  A    between atoms: C_6  and  C_7
REMARK    3  A    between atoms: C_7  and  C_8
REMARK    4  A    between atoms: C_8  and  C_9
REMARK    5  A    between atoms: C_13  and  N_14
REMARK    6  A    between atoms: C_15  and  C_17
REMARK    7  A    between atoms: C_19  and  C_20
REMARK    8  A    between atoms: C_24  and  C_25
REMARK                            x       y       z     vdW  Elec       q    Type
REMARK                         _______ _______ _______ _____ _____    ______ ____
ROOT
ATOM      1  C   UNL     1      -0.968  12.247  20.374  0.00  0.00    +0.000 A 
ATOM      2  C   UNL     1      -1.890  12.430  19.323  0.00  0.00    +0.000 A 
ATOM      3  C   UNL     1      -1.966  11.548  18.249  0.00  0.00    +0.000 A 
ATOM      4  C   UNL     1      -1.117  10.448  18.193  0.00  0.00    +0.000 A 
ATOM      5  C   UNL     1      -0.182  10.230  19.201  0.00  0.00    +0.000 A 
ATOM      6  C   UNL     1      -0.123  11.119  20.282  0.00  0.00    +0.000 A 
ENDROOT
BRANCH   1   7
ATOM      7  C   UNL     1      -0.905  13.260  21.617  0.00  0.00    +0.000 C 
ATOM      8  C   UNL     1      -1.506  14.674  21.365  0.00  0.00    +0.000 C 
ATOM      9  O   UNL     1      -0.251  15.326  21.628  0.00  0.00    +0.000 OA
ATOM     10  C   UNL     1       0.406  14.061  21.847  0.00  0.00    +0.000 C 
BRANCH   7  11
ATOM     11  C   UNL     1      -1.500  12.594  22.873  0.00  0.00    +0.000 C 
BRANCH  11  17
ATOM     12  C   UNL     1      -2.865  14.643  24.922  0.00  0.00    +0.000 C 
ATOM     13  N   UNL     1      -3.508  13.720  24.025  0.00  0.00    +0.000 N 
ATOM     14  C   UNL     1      -4.856  13.526  23.956  0.00  0.00    +0.000 A 
ATOM     15  N   UNL     1      -5.128  12.646  23.024  0.00  0.00    +0.000 NA
ATOM     16  N   UNL     1      -3.935  12.236  22.485  0.00  0.00    +0.000 NA
ATOM     17  C   UNL     1      -2.953  12.864  23.103  0.00  0.00    +0.000 A 
ENDBRANCH  11  17
ENDBRANCH   7  11
ENDBRANCH   1   7
BRANCH   5  18
ATOM     18  N   UNL     1       0.709   9.140  19.205  0.00  0.00    +0.000 N 
ATOM     19  C   UNL     1       1.770   8.935  18.344  0.00  0.00    +0.000 C 
ATOM     20  O   UNL     1       2.154   9.684  17.454  0.00  0.00    +0.000 OA
ATOM     21  H   UNL     1       0.606   8.435  19.930  0.00  0.00    +0.000 HD
BRANCH  19  22
ATOM     22  C   UNL     1       2.494   7.651  18.575  0.00  0.00    +0.000 A 
ATOM     23  C   UNL     1       3.538   7.313  17.746  0.00  0.00    +0.000 A 
ATOM     24  C   UNL     1       4.140   6.105  17.994  0.00  0.00    +0.000 A 
ATOM     25  N   UNL     1       3.706   5.314  19.001  0.00  0.00    +0.000 NA
ATOM     26  C   UNL     1       2.685   5.724  19.780  0.00  0.00    +0.000 A 
ATOM     27  N   UNL     1       2.049   6.890  19.599  0.00  0.00    +0.000 NA
BRANCH  24  28
ATOM     28  C   UNL     1       5.270   5.604  17.129  0.00  0.00    +0.000 C 
ATOM     29  C   UNL     1       5.035   4.595  16.028  0.00  0.00    +0.000 C 
ATOM     30  C   UNL     1       5.319   6.024  15.678  0.00  0.00    +0.000 C 
ENDBRANCH  24  28
BRANCH  26  31
ATOM     31  C   UNL     1       2.237   4.821  20.900  0.00  0.00    +0.000 C 
ATOM     32  C   UNL     1       1.126   3.823  20.661  0.00  0.00    +0.000 C 
ATOM     33  C   UNL     1       2.533   3.340  20.849  0.00  0.00    +0.000 C 
ENDBRANCH  26  31
ENDBRANCH  19  22
ENDBRANCH   5  18
TORSDOF 7
ENDMDL
MODEL 3
REMARK VINA RESULT:      -9.0      3.403     10.853
REMARK  Name = 
REMARK  8 active torsions:
REMARK  status: ('A' for Active; 'I' for Inactive)
REMARK    1  A    between atoms: C_1  and  N_2
REMARK    2  A    between atoms: C_6  and  C_7
REMARK    3  A    between atoms: C_7  and  C_8
REMARK    4  A    between atoms: C_8  and  C_9
REMARK    5  A    between atoms: C_13  and  N_14
REMARK    6  A    between atoms: C_15  and  C_17
REMARK    7  A    between atoms: C_19  and  C_20
REMARK    8  A    between atoms: C_24  and  C_25
REMARK                            x       y       z     vdW  Elec       q    Type
REMARK                         _______ _______ _______ _____ _____    ______ ____
ROOT
ATOM      1  C   UNL     1      -1.573  11.952  20.229  0.00  0.00    +0.000 A 
ATOM      2  C   UNL     1      -2.360  12.199  19.086  0.00  0.00    +0.000 A 
ATOM      3  C   UNL     1      -2.221  11.449  17.920  0.00  0.00    +0.000 A 
ATOM      4  C   UNL     1      -1.284  10.424  17.863  0.00  0.00    +0.000 A 
ATOM      5  C   UNL     1      -0.476  10.148  18.963  0.00  0.00    +0.000 A 
ATOM      6  C   UNL     1      -0.633  10.902  20.133  0.00  0.00    +0.000 A 
ENDROOT
BRANCH   1   7
ATOM      7  C   UNL     1      -1.759  12.809  21.573  0.00  0.00    +0.000 C 
ATOM      8  C   UNL     1      -0.487  13.552  22.079  0.00  0.00    +0.000 C 
ATOM      9  O   UNL     1      -0.487  12.837  23.328  0.00  0.00    +0.000 OA
ATOM     10  C   UNL     1      -1.646  12.072  22.936  0.00  0.00    +0.000 C 
BRANCH   7  11
ATOM     11  C   UNL     1      -2.966  13.759  21.434  0.00  0.00    +0.000 C 
BRANCH  11  17
ATOM     12  C   UNL     1      -3.862  14.814  24.322  0.00  0.00    +0.000 C 
ATOM     13  N   UNL     1      -4.496  13.817  23.502  0.00  0.00    +0.000 N 
ATOM     14  C   UNL     1      -5.589  13.093  23.879  0.00  0.00    +0.000 A 
ATOM     15  N   UNL     1      -5.943  12.291  22.905  0.00  0.00    +0.000 NA
ATOM     16  N   UNL     1      -5.054  12.474  21.876  0.00  0.00    +0.000 NA
ATOM     17  C   UNL     1      -4.164  13.377  22.242  0.00  0.00    +0.000 A 
ENDBRANCH  11  17
ENDBRANCH   7  11
ENDBRANCH   1   7
BRANCH   5  18
ATOM     18  N   UNL     1       0.494   9.127  18.972  0.00  0.00    +0.000 N 
ATOM     19  C   UNL     1       1.679   9.105  18.261  0.00  0.00    +0.000 C 
ATOM     20  O   UNL     1       2.120   9.986  17.533  0.00  0.00    +0.000 OA
ATOM     21  H   UNL     1       0.349   8.330  19.585  0.00  0.00    +0.000 HD
BRANCH  19  22
ATOM     22  C   UNL     1       2.468   7.852  18.446  0.00  0.00    +0.000 A 
ATOM     23  C   UNL     1       3.496   7.575  17.574  0.00  0.00    +0.000 A 
ATOM     24  C   UNL     1       4.160   6.392  17.781  0.00  0.00    +0.000 A 
ATOM     25  N   UNL     1       3.799   5.567  18.789  0.00  0.00    +0.000 NA
ATOM     26  C   UNL     1       2.789   5.918  19.610  0.00  0.00    +0.000 A 
ATOM     27  N   UNL     1       2.095   7.057  19.471  0.00  0.00    +0.000 NA
BRANCH  24  28
ATOM     28  C   UNL     1       5.280   5.957  16.869  0.00  0.00    +0.000 C 
ATOM     29  C   UNL     1       6.724   6.006  17.313  0.00  0.00    +0.000 C 
ATOM     30  C   UNL     1       6.030   4.684  17.191  0.00  0.00    +0.000 C 
ENDBRANCH  24  28
BRANCH  26  31
ATOM     31  C   UNL     1       2.422   4.978  20.730  0.00  0.00    +0.000 C 
ATOM     32  C   UNL     1       1.217   4.076  20.589  0.00  0.00    +0.000 C 
ATOM     33  C   UNL     1       2.596   3.487  20.561  0.00  0.00    +0.000 C 
ENDBRANCH  26  31
ENDBRANCH  19  22
ENDBRANCH   5  18
TORSDOF 7
ENDMDL
MODEL 4
REMARK VINA RESULT:      -8.9      3.580     10.146
REMARK  Name = 
REMARK  8 active torsions:
REMARK  status: ('A' for Active; 'I' for Inactive)
REMARK    1  A    between atoms: C_1  and  N_2
REMARK    2  A    between atoms: C_6  and  C_7
REMARK    3  A    between atoms: C_7  and  C_8
REMARK    4  A    between atoms: C_8  and  C_9
REMARK    5  A    between atoms: C_13  and  N_14
REMARK    6  A    between atoms: C_15  and  C_17
REMARK    7  A    between atoms: C_19  and  C_20
REMARK    8  A    between atoms: C_24  and  C_25
REMARK                            x       y       z     vdW  Elec       q    Type
REMARK                         _______ _______ _______ _____ _____    ______ ____
ROOT
ATOM      1  C   UNL     1      -1.212  10.613  17.859  0.00  0.00    +0.000 A 
ATOM      2  C   UNL     1      -0.795  11.857  18.376  0.00  0.00    +0.000 A 
ATOM      3  C   UNL     1       0.409  12.004  19.059  0.00  0.00    +0.000 A 
ATOM      4  C   UNL     1       1.238  10.903  19.248  0.00  0.00    +0.000 A 
ATOM      5  C   UNL     1       0.866   9.652  18.765  0.00  0.00    +0.000 A 
ATOM      6  C   UNL     1      -0.343   9.519  18.070  0.00  0.00    +0.000 A 
ENDROOT
BRANCH   1   7
ATOM      7  C   UNL     1      -2.592  10.462  17.055  0.00  0.00    +0.000 C 
ATOM      8  C   UNL     1      -2.565   9.476  15.849  0.00  0.00    +0.000 C 
ATOM      9  O   UNL     1      -2.904  10.512  14.910  0.00  0.00    +0.000 OA
ATOM     10  C   UNL     1      -2.920  11.508  15.954  0.00  0.00    +0.000 C 
BRANCH   7  11
ATOM     11  C   UNL     1      -3.743  10.149  18.031  0.00  0.00    +0.000 C 
BRANCH  11  17
ATOM     12  C   UNL     1      -3.823  12.608  20.082  0.00  0.00    +0.000 C 
ATOM     13  N   UNL     1      -4.797  12.247  19.087  0.00  0.00    +0.000 N 
ATOM     14  C   UNL     1      -5.985  12.890  18.904  0.00  0.00    +0.000 A 
ATOM     15  N   UNL     1      -6.633  12.343  17.906  0.00  0.00    +0.000 NA
ATOM     16  N   UNL     1      -5.868  11.306  17.437  0.00  0.00    +0.000 NA
ATOM     17  C   UNL     1      -4.770  11.229  18.163  0.00  0.00    +0.000 A 
ENDBRANCH  11  17
ENDBRANCH   7  11
ENDBRANCH   1   7
BRANCH   5  18
ATOM     18  N   UNL     1       1.656   8.497  18.924  0.00  0.00    +0.000 N 
ATOM     19  C   UNL     1       2.548   7.972  18.010  0.00  0.00    +0.000 C 
ATOM     20  O   UNL     1       2.847   8.440  16.917  0.00  0.00    +0.000 OA
ATOM     21  H   UNL     1       1.611   8.001  19.810  0.00  0.00    +0.000 HD
BRANCH  19  22
ATOM     22  C   UNL     1       3.193   6.703  18.458  0.00  0.00    +0.000 A 
ATOM     23  C   UNL     1       2.406   5.699  18.972  0.00  0.00    +0.000 A 
ATOM     24  C   UNL     1       3.065   4.572  19.395  0.00  0.00    +0.000 A 
ATOM     25  N   UNL     1       4.411   4.486  19.301  0.00  0.00    +0.000 NA
ATOM     26  C   UNL     1       5.111   5.509  18.770  0.00  0.00    +0.000 A 
ATOM     27  N   UNL     1       4.537   6.640  18.336  0.00  0.00    +0.000 NA
BRANCH  24  28
ATOM     28  C   UNL     1       2.318   3.417  20.014  0.00  0.00    +0.000 C 
ATOM     29  C   UNL     1       2.098   3.328  21.506  0.00  0.00    +0.000 C 
ATOM     30  C   UNL     1       0.950   3.667  20.605  0.00  0.00    +0.000 C 
ENDBRANCH  24  28
BRANCH  26  31
ATOM     31  C   UNL     1       6.608   5.373  18.671  0.00  0.00    +0.000 C 
ATOM     32  C   UNL     1       7.253   5.126  17.326  0.00  0.00    +0.000 C 
ATOM     33  C   UNL     1       7.429   6.452  18.004  0.00  0.00    +0.000 C 
ENDBRANCH  26  31
ENDBRANCH  19  22
ENDBRANCH   5  18
TORSDOF 7
ENDMDL
MODEL 5
REMARK VINA RESULT:      -8.9      2.424      9.329
REMARK  Name = 
REMARK  8 active torsions:
REMARK  status: ('A' for Active; 'I' for Inactive)
REMARK    1  A    between atoms: C_1  and  N_2
REMARK    2  A    between atoms: C_6  and  C_7
REMARK    3  A    between atoms: C_7  and  C_8
REMARK    4  A    between atoms: C_8  and  C_9
REMARK    5  A    between atoms: C_13  and  N_14
REMARK    6  A    between atoms: C_15  and  C_17
REMARK    7  A    between atoms: C_19  and  C_20
REMARK    8  A    between atoms: C_24  and  C_25
REMARK                            x       y       z     vdW  Elec       q    Type
REMARK                         _______ _______ _______ _____ _____    ______ ____
ROOT
ATOM      1  C   UNL     1      -0.603  10.871  19.964  0.00  0.00    +0.000 A 
ATOM      2  C   UNL     1      -0.513  11.069  21.357  0.00  0.00    +0.000 A 
ATOM      3  C   UNL     1       0.306  10.280  22.161  0.00  0.00    +0.000 A 
ATOM      4  C   UNL     1       1.064   9.262  21.593  0.00  0.00    +0.000 A 
ATOM      5  C   UNL     1       1.001   9.021  20.223  0.00  0.00    +0.000 A 
ATOM      6  C   UNL     1       0.182   9.829  19.423  0.00  0.00    +0.000 A 
ENDROOT
BRANCH   1   7
ATOM      7  C   UNL     1      -1.533  11.801  19.046  0.00  0.00    +0.000 C 
ATOM      8  C   UNL     1      -2.708  12.514  19.780  0.00  0.00    +0.000 C 
ATOM      9  O   UNL     1      -3.698  11.863  18.964  0.00  0.00    +0.000 OA
ATOM     10  C   UNL     1      -2.684  11.129  18.247  0.00  0.00    +0.000 C 
BRANCH   7  11
ATOM     11  C   UNL     1      -0.665  12.792  18.245  0.00  0.00    +0.000 C 
BRANCH  11  17
ATOM     12  C   UNL     1       2.523  12.496  18.192  0.00  0.00    +0.000 C 
ATOM     13  N   UNL     1       1.722  13.343  19.034  0.00  0.00    +0.000 N 
ATOM     14  C   UNL     1       2.220  14.134  20.027  0.00  0.00    +0.000 A 
ATOM     15  N   UNL     1       1.244  14.802  20.590  0.00  0.00    +0.000 NA
ATOM     16  N   UNL     1       0.078  14.426  19.973  0.00  0.00    +0.000 NA
ATOM     17  C   UNL     1       0.359  13.527  19.050  0.00  0.00    +0.000 A 
ENDBRANCH  11  17
ENDBRANCH   7  11
ENDBRANCH   1   7
BRANCH   5  18
ATOM     18  N   UNL     1       1.738   8.005  19.584  0.00  0.00    +0.000 N 
ATOM     19  C   UNL     1       2.313   8.065  18.329  0.00  0.00    +0.000 C 
ATOM     20  O   UNL     1       2.324   9.025  17.567  0.00  0.00    +0.000 OA
ATOM     21  H   UNL     1       1.913   7.143  20.092  0.00  0.00    +0.000 HD
BRANCH  19  22
ATOM     22  C   UNL     1       2.985   6.799  17.913  0.00  0.00    +0.000 A 
ATOM     23  C   UNL     1       4.245   6.860  17.364  0.00  0.00    +0.000 A 
ATOM     24  C   UNL     1       4.793   5.663  16.974  0.00  0.00    +0.000 A 
ATOM     25  N   UNL     1       4.106   4.510  17.133  0.00  0.00    +0.000 NA
ATOM     26  C   UNL     1       2.881   4.532  17.694  0.00  0.00    +0.000 A 
ATOM     27  N   UNL     1       2.282   5.661  18.099  0.00  0.00    +0.000 NA
BRANCH  24  28
ATOM     28  C   UNL     1       6.151   5.603  16.322  0.00  0.00    +0.000 C 
ATOM     29  C   UNL     1       7.273   4.778  16.911  0.00  0.00    +0.000 C 
ATOM     30  C   UNL     1       6.586   4.314  15.663  0.00  0.00    +0.000 C 
ENDBRANCH  24  28
BRANCH  26  31
ATOM     31  C   UNL     1       2.151   3.225  17.865  0.00  0.00    +0.000 C 
ATOM     32  C   UNL     1       2.304   2.440  19.148  0.00  0.00    +0.000 C 
ATOM     33  C   UNL     1       1.002   3.115  18.839  0.00  0.00    +0.000 C 
ENDBRANCH  26  31
ENDBRANCH  19  22
ENDBRANCH   5  18
TORSDOF 7
ENDMDL
MODEL 6
REMARK VINA RESULT:      -8.8      2.600      9.905
REMARK  Name = 
REMARK  8 active torsions:
REMARK  status: ('A' for Active; 'I' for Inactive)
REMARK    1  A    between atoms: C_1  and  N_2
REMARK    2  A    between atoms: C_6  and  C_7
REMARK    3  A    between atoms: C_7  and  C_8
REMARK    4  A    between atoms: C_8  and  C_9
REMARK    5  A    between atoms: C_13  and  N_14
REMARK    6  A    between atoms: C_15  and  C_17
REMARK    7  A    between atoms: C_19  and  C_20
REMARK    8  A    between atoms: C_24  and  C_25
REMARK                            x       y       z     vdW  Elec       q    Type
REMARK                         _______ _______ _______ _____ _____    ______ ____
ROOT
ATOM      1  C   UNL     1      -0.126  10.763  20.684  0.00  0.00    +0.000 A 
ATOM      2  C   UNL     1      -0.307  10.607  22.074  0.00  0.00    +0.000 A 
ATOM      3  C   UNL     1       0.237   9.531  22.771  0.00  0.00    +0.000 A 
ATOM      4  C   UNL     1       0.982   8.572  22.094  0.00  0.00    +0.000 A 
ATOM      5  C   UNL     1       1.181   8.676  20.720  0.00  0.00    +0.000 A 
ATOM      6  C   UNL     1       0.638   9.770  20.032  0.00  0.00    +0.000 A 
ENDROOT
BRANCH   1   7
ATOM      7  C   UNL     1      -0.739  12.019  19.897  0.00  0.00    +0.000 C 
ATOM      8  C   UNL     1      -1.851  12.808  20.649  0.00  0.00    +0.000 C 
ATOM      9  O   UNL     1      -2.825  12.540  19.624  0.00  0.00    +0.000 OA
ATOM     10  C   UNL     1      -1.875  11.760  18.869  0.00  0.00    +0.000 C 
BRANCH   7  11
ATOM     11  C   UNL     1       0.395  12.943  19.407  0.00  0.00    +0.000 C 
BRANCH  11  17
ATOM     12  C   UNL     1       0.001  16.115  19.593  0.00  0.00    +0.000 C 
ATOM     13  N   UNL     1       0.770  15.262  20.458  0.00  0.00    +0.000 N 
ATOM     14  C   UNL     1       1.534  15.706  21.497  0.00  0.00    +0.000 A 
ATOM     15  N   UNL     1       2.084  14.685  22.107  0.00  0.00    +0.000 NA
ATOM     16  N   UNL     1       1.694  13.550  21.444  0.00  0.00    +0.000 NA
ATOM     17  C   UNL     1       0.920  13.895  20.433  0.00  0.00    +0.000 A 
ENDBRANCH  11  17
ENDBRANCH   7  11
ENDBRANCH   1   7
BRANCH   5  18
ATOM     18  N   UNL     1       1.922   7.740  19.974  0.00  0.00    +0.000 N 
ATOM     19  C   UNL     1       2.262   7.830  18.638  0.00  0.00    +0.000 C 
ATOM     20  O   UNL     1       2.022   8.758  17.875  0.00  0.00    +0.000 OA
ATOM     21  H   UNL     1       2.288   6.922  20.454  0.00  0.00    +0.000 HD
BRANCH  19  22
ATOM     22  C   UNL     1       3.009   6.644  18.126  0.00  0.00    +0.000 A 
ATOM     23  C   UNL     1       2.358   5.436  18.025  0.00  0.00    +0.000 A 
ATOM     24  C   UNL     1       3.111   4.379  17.578  0.00  0.00    +0.000 A 
ATOM     25  N   UNL     1       4.415   4.548  17.266  0.00  0.00    +0.000 NA
ATOM     26  C   UNL     1       4.978   5.768  17.377  0.00  0.00    +0.000 A 
ATOM     27  N   UNL     1       4.306   6.846  17.806  0.00  0.00    +0.000 NA
BRANCH  24  28
ATOM     28  C   UNL     1       2.522   2.996  17.461  0.00  0.00    +0.000 C 
ATOM     29  C   UNL     1       2.854   1.909  18.459  0.00  0.00    +0.000 C 
ATOM     30  C   UNL     1       1.500   2.550  18.482  0.00  0.00    +0.000 C 
ENDBRANCH  24  28
BRANCH  26  31
ATOM     31  C   UNL     1       6.431   5.920  17.009  0.00  0.00    +0.000 C 
ATOM     32  C   UNL     1       7.487   5.883  18.090  0.00  0.00    +0.000 C 
ATOM     33  C   UNL     1       7.372   4.743  17.122  0.00  0.00    +0.000 C 
ENDBRANCH  26  31
ENDBRANCH  19  22
ENDBRANCH   5  18
TORSDOF 7
ENDMDL
MODEL 7
REMARK VINA RESULT:      -8.8      3.214      9.347
REMARK  Name = 
REMARK  8 active torsions:
REMARK  status: ('A' for Active; 'I' for Inactive)
REMARK    1  A    between atoms: C_1  and  N_2
REMARK    2  A    between atoms: C_6  and  C_7
REMARK    3  A    between atoms: C_7  and  C_8
REMARK    4  A    between atoms: C_8  and  C_9
REMARK    5  A    between atoms: C_13  and  N_14
REMARK    6  A    between atoms: C_15  and  C_17
REMARK    7  A    between atoms: C_19  and  C_20
REMARK    8  A    between atoms: C_24  and  C_25
REMARK                            x       y       z     vdW  Elec       q    Type
REMARK                         _______ _______ _______ _____ _____    ______ ____
ROOT
ATOM      1  C   UNL     1       0.525  12.796  19.724  0.00  0.00    +0.000 A 
ATOM      2  C   UNL     1      -0.830  12.808  19.337  0.00  0.00    +0.000 A 
ATOM      3  C   UNL     1      -1.493  11.649  18.943  0.00  0.00    +0.000 A 
ATOM      4  C   UNL     1      -0.816  10.434  18.924  0.00  0.00    +0.000 A 
ATOM      5  C   UNL     1       0.526  10.373  19.288  0.00  0.00    +0.000 A 
ATOM      6  C   UNL     1       1.179  11.544  19.693  0.00  0.00    +0.000 A 
ENDROOT
BRANCH   1   7
ATOM      7  C   UNL     1       1.272  14.135  20.197  0.00  0.00    +0.000 C 
ATOM      8  C   UNL     1       2.540  13.925  21.076  0.00  0.00    +0.000 C 
ATOM      9  O   UNL     1       1.972  14.647  22.183  0.00  0.00    +0.000 OA
ATOM     10  C   UNL     1       0.742  14.865  21.462  0.00  0.00    +0.000 C 
BRANCH   7  11
ATOM     11  C   UNL     1       1.554  15.042  18.982  0.00  0.00    +0.000 C 
BRANCH  11  17
ATOM     12  C   UNL     1       4.586  14.738  17.996  0.00  0.00    +0.000 C 
ATOM     13  N   UNL     1       4.001  15.809  18.758  0.00  0.00    +0.000 N 
ATOM     14  C   UNL     1       4.697  16.872  19.252  0.00  0.00    +0.000 A 
ATOM     15  N   UNL     1       3.878  17.685  19.873  0.00  0.00    +0.000 NA
ATOM     16  N   UNL     1       2.623  17.135  19.806  0.00  0.00    +0.000 NA
ATOM     17  C   UNL     1       2.697  15.991  19.155  0.00  0.00    +0.000 A 
ENDBRANCH  11  17
ENDBRANCH   7  11
ENDBRANCH   1   7
BRANCH   5  18
ATOM     18  N   UNL     1       1.272   9.178  19.288  0.00  0.00    +0.000 N 
ATOM     19  C   UNL     1       2.026   8.673  18.246  0.00  0.00    +0.000 C 
ATOM     20  O   UNL     1       2.217   9.193  17.153  0.00  0.00    +0.000 OA
ATOM     21  H   UNL     1       1.307   8.632  20.145  0.00  0.00    +0.000 HD
BRANCH  19  22
ATOM     22  C   UNL     1       2.656   7.353  18.544  0.00  0.00    +0.000 A 
ATOM     23  C   UNL     1       3.685   6.909  17.747  0.00  0.00    +0.000 A 
ATOM     24  C   UNL     1       4.199   5.674  18.055  0.00  0.00    +0.000 A 
ATOM     25  N   UNL     1       3.698   4.960  19.088  0.00  0.00    +0.000 NA
ATOM     26  C   UNL     1       2.698   5.472  19.832  0.00  0.00    +0.000 A 
ATOM     27  N   UNL     1       2.146   6.670  19.591  0.00  0.00    +0.000 NA
BRANCH  24  28
ATOM     28  C   UNL     1       5.304   5.061  17.232  0.00  0.00    +0.000 C 
ATOM     29  C   UNL     1       5.004   4.163  16.053  0.00  0.00    +0.000 C 
ATOM     30  C   UNL     1       5.517   5.551  15.818  0.00  0.00    +0.000 C 
ENDBRANCH  24  28
BRANCH  26  31
ATOM     31  C   UNL     1       2.173   4.652  20.982  0.00  0.00    +0.000 C 
ATOM     32  C   UNL     1       1.116   3.600  20.733  0.00  0.00    +0.000 C 
ATOM     33  C   UNL     1       2.512   3.183  21.087  0.00  0.00    +0.000 C 
ENDBRANCH  26  31
ENDBRANCH  19  22
ENDBRANCH   5  18
TORSDOF 7
ENDMDL
MODEL 8
REMARK VINA RESULT:      -8.8      2.526      9.438
REMARK  Name = 
REMARK  8 active torsions:
REMARK  status: ('A' for Active; 'I' for Inactive)
REMARK    1  A    between atoms: C_1  and  N_2
REMARK    2  A    between atoms: C_6  and  C_7
REMARK    3  A    between atoms: C_7  and  C_8
REMARK    4  A    between atoms: C_8  and  C_9
REMARK    5  A    between atoms: C_13  and  N_14
REMARK    6  A    between atoms: C_15  and  C_17
REMARK    7  A    between atoms: C_19  and  C_20
REMARK    8  A    between atoms: C_24  and  C_25
REMARK                            x       y       z     vdW  Elec       q    Type
REMARK                         _______ _______ _______ _____ _____    ______ ____
ROOT
ATOM      1  C   UNL     1      -0.466  10.981  20.110  0.00  0.00    +0.000 A 
ATOM      2  C   UNL     1      -0.506  11.050  21.517  0.00  0.00    +0.000 A 
ATOM      3  C   UNL     1       0.184  10.145  22.319  0.00  0.00    +0.000 A 
ATOM      4  C   UNL     1       0.940   9.136  21.733  0.00  0.00    +0.000 A 
ATOM      5  C   UNL     1       1.003   9.019  20.347  0.00  0.00    +0.000 A 
ATOM      6  C   UNL     1       0.313   9.943  19.551  0.00  0.00    +0.000 A 
ENDROOT
BRANCH   1   7
ATOM      7  C   UNL     1      -1.248  12.043  19.197  0.00  0.00    +0.000 C 
ATOM      8  C   UNL     1      -2.797  12.059  19.359  0.00  0.00    +0.000 C 
ATOM      9  O   UNL     1      -3.011  11.719  17.977  0.00  0.00    +0.000 OA
ATOM     10  C   UNL     1      -1.591  11.645  17.734  0.00  0.00    +0.000 C 
BRANCH   7  11
ATOM     11  C   UNL     1      -0.634  13.446  19.372  0.00  0.00    +0.000 C 
BRANCH  11  17
ATOM     12  C   UNL     1       1.497  14.405  21.562  0.00  0.00    +0.000 C 
ATOM     13  N   UNL     1       1.742  13.960  20.217  0.00  0.00    +0.000 N 
ATOM     14  C   UNL     1       2.971  13.941  19.624  0.00  0.00    +0.000 A 
ATOM     15  N   UNL     1       2.867  13.458  18.411  0.00  0.00    +0.000 NA
ATOM     16  N   UNL     1       1.543  13.175  18.191  0.00  0.00    +0.000 NA
ATOM     17  C   UNL     1       0.857  13.499  19.270  0.00  0.00    +0.000 A 
ENDBRANCH  11  17
ENDBRANCH   7  11
ENDBRANCH   1   7
BRANCH   5  18
ATOM     18  N   UNL     1       1.746   8.020  19.690  0.00  0.00    +0.000 N 
ATOM     19  C   UNL     1       2.267   8.082  18.411  0.00  0.00    +0.000 C 
ATOM     20  O   UNL     1       2.216   9.032  17.638  0.00  0.00    +0.000 OA
ATOM     21  H   UNL     1       1.969   7.170  20.200  0.00  0.00    +0.000 HD
BRANCH  19  22
ATOM     22  C   UNL     1       2.963   6.833  17.983  0.00  0.00    +0.000 A 
ATOM     23  C   UNL     1       2.277   5.641  18.017  0.00  0.00    +0.000 A 
ATOM     24  C   UNL     1       2.984   4.526  17.640  0.00  0.00    +0.000 A 
ATOM     25  N   UNL     1       4.279   4.628  17.267  0.00  0.00    +0.000 NA
ATOM     26  C   UNL     1       4.877   5.836  17.246  0.00  0.00    +0.000 A 
ATOM     27  N   UNL     1       4.250   6.968  17.599  0.00  0.00    +0.000 NA
BRANCH  24  28
ATOM     28  C   UNL     1       2.354   3.156  17.672  0.00  0.00    +0.000 C 
ATOM     29  C   UNL     1       2.493   2.252  18.875  0.00  0.00    +0.000 C 
ATOM     30  C   UNL     1       1.179   2.915  18.592  0.00  0.00    +0.000 C 
ENDBRANCH  24  28
BRANCH  26  31
ATOM     31  C   UNL     1       6.318   5.910  16.814  0.00  0.00    +0.000 C 
ATOM     32  C   UNL     1       7.412   5.490  17.769  0.00  0.00    +0.000 C 
ATOM     33  C   UNL     1       7.106   4.645  16.569  0.00  0.00    +0.000 C 
ENDBRANCH  26  31
ENDBRANCH  19  22
ENDBRANCH   5  18
TORSDOF 7
ENDMDL
MODEL 9
REMARK VINA RESULT:      -8.8      2.978      9.404
REMARK  Name = 
REMARK  8 active torsions:
REMARK  status: ('A' for Active; 'I' for Inactive)
REMARK    1  A    between atoms: C_1  and  N_2
REMARK    2  A    between atoms: C_6  and  C_7
REMARK    3  A    between atoms: C_7  and  C_8
REMARK    4  A    between atoms: C_8  and  C_9
REMARK    5  A    between atoms: C_13  and  N_14
REMARK    6  A    between atoms: C_15  and  C_17
REMARK    7  A    between atoms: C_19  and  C_20
REMARK    8  A    between atoms: C_24  and  C_25
REMARK                            x       y       z     vdW  Elec       q    Type
REMARK                         _______ _______ _______ _____ _____    ______ ____
ROOT
ATOM      1  C   UNL     1      -0.533  11.135  20.289  0.00  0.00    +0.000 A 
ATOM      2  C   UNL     1      -0.562  11.090  21.698  0.00  0.00    +0.000 A 
ATOM      3  C   UNL     1       0.132  10.121  22.418  0.00  0.00    +0.000 A 
ATOM      4  C   UNL     1       0.881   9.161  21.746  0.00  0.00    +0.000 A 
ATOM      5  C   UNL     1       0.933   9.157  20.355  0.00  0.00    +0.000 A 
ATOM      6  C   UNL     1       0.239  10.145  19.642  0.00  0.00    +0.000 A 
ENDROOT
BRANCH   1   7
ATOM      7  C   UNL     1      -1.320  12.270  19.472  0.00  0.00    +0.000 C 
ATOM      8  C   UNL     1      -0.569  12.855  18.239  0.00  0.00    +0.000 C 
ATOM      9  O   UNL     1      -0.572  14.186  18.785  0.00  0.00    +0.000 OA
ATOM     10  C   UNL     1      -1.237  13.735  19.984  0.00  0.00    +0.000 C 
BRANCH   7  11
ATOM     11  C   UNL     1      -2.734  11.777  19.108  0.00  0.00    +0.000 C 
BRANCH  11  17
ATOM     12  C   UNL     1      -5.235  12.121  17.137  0.00  0.00    +0.000 C 
ATOM     13  N   UNL     1      -4.000  11.423  16.896  0.00  0.00    +0.000 N 
ATOM     14  C   UNL     1      -3.725  10.717  15.762  0.00  0.00    +0.000 A 
ATOM     15  N   UNL     1      -2.513  10.225  15.834  0.00  0.00    +0.000 NA
ATOM     16  N   UNL     1      -1.989  10.594  17.046  0.00  0.00    +0.000 NA
ATOM     17  C   UNL     1      -2.893  11.298  17.701  0.00  0.00    +0.000 A 
ENDBRANCH  11  17
ENDBRANCH   7  11
ENDBRANCH   1   7
BRANCH   5  18
ATOM     18  N   UNL     1       1.668   8.214  19.612  0.00  0.00    +0.000 N 
ATOM     19  C   UNL     1       1.891   6.891  19.944  0.00  0.00    +0.000 C 
ATOM     20  O   UNL     1       1.453   6.290  20.918  0.00  0.00    +0.000 OA
ATOM     21  H   UNL     1       2.054   8.500  18.716  0.00  0.00    +0.000 HD
BRANCH  19  22
ATOM     22  C   UNL     1       2.758   6.164  18.971  0.00  0.00    +0.000 A 
ATOM     23  C   UNL     1       3.823   6.824  18.403  0.00  0.00    +0.000 A 
ATOM     24  C   UNL     1       4.562   6.109  17.493  0.00  0.00    +0.000 A 
ATOM     25  N   UNL     1       4.232   4.832  17.193  0.00  0.00    +0.000 NA
ATOM     26  C   UNL     1       3.181   4.251  17.805  0.00  0.00    +0.000 A 
ATOM     27  N   UNL     1       2.415   4.886  18.704  0.00  0.00    +0.000 NA
BRANCH  24  28
ATOM     28  C   UNL     1       5.730   6.733  16.773  0.00  0.00    +0.000 C 
ATOM     29  C   UNL     1       7.094   6.832  17.418  0.00  0.00    +0.000 C 
ATOM     30  C   UNL     1       6.863   5.844  16.315  0.00  0.00    +0.000 C 
ENDBRANCH  24  28
BRANCH  26  31
ATOM     31  C   UNL     1       2.852   2.824  17.452  0.00  0.00    +0.000 C 
ATOM     32  C   UNL     1       3.449   1.693  18.260  0.00  0.00    +0.000 C 
ATOM     33  C   UNL     1       1.984   1.993  18.369  0.00  0.00    +0.000 C 
ENDBRANCH  26  31
ENDBRANCH  19  22
ENDBRANCH   5  18
TORSDOF 7
ENDMDL
