MODEL 1
REMARK VINA RESULT:      -8.3      0.000      0.000
REMARK  Name = 
REMARK  9 active torsions:
REMARK  status: ('A' for Active; 'I' for Inactive)
REMARK    1  A    between atoms: C_1  and  C_2
REMARK    2  A    between atoms: C_5  and  C_6
REMARK    3  A    between atoms: N_8  and  C_9
REMARK    4  A    between atoms: C_13  and  C_14
REMARK    5  A    between atoms: C_14  and  C_15
REMARK    6  A    between atoms: C_14  and  S_16
REMARK    7  A    between atoms: S_16  and  C_17
REMARK    8  A    between atoms: N_21  and  C_22
REMARK    9  A    between atoms: C_25  and  C_26
REMARK                            x       y       z     vdW  Elec       q    Type
REMARK                         _______ _______ _______ _____ _____    ______ ____
ROOT
ATOM      1  C   UNL     1       7.935   8.070  17.978  0.00  0.00    +0.000 A 
ATOM      2  C   UNL     1       8.413   7.217  18.974  0.00  0.00    +0.000 A 
ATOM      3  C   UNL     1       7.882   5.938  19.140  0.00  0.00    +0.000 A 
ATOM      4  C   UNL     1       6.862   5.493  18.304  0.00  0.00    +0.000 A 
ATOM      5  C   UNL     1       6.346   6.324  17.296  0.00  0.00    +0.000 A 
ATOM      6  C   UNL     1       6.881   7.626  17.159  0.00  0.00    +0.000 A 
ENDROOT
BRANCH   1   9
ATOM      7  C   UNL     1       9.073  10.167  18.731  0.00  0.00    +0.000 C 
ATOM      8  O   UNL     1       9.242   9.887  19.913  0.00  0.00    +0.000 OA
ATOM      9  N   UNL     1       8.475   9.361  17.767  0.00  0.00    +0.000 N 
ATOM     10  H   UNL     1       8.512   9.725  16.819  0.00  0.00    +0.000 HD
BRANCH   7  15
ATOM     11  C   UNL     1      10.910  15.285  16.911  0.00  0.00    +0.000 C 
ATOM     12  C   UNL     1      10.415  13.944  17.373  0.00  0.00    +0.000 A 
ATOM     13  C   UNL     1      11.267  12.837  17.273  0.00  0.00    +0.000 A 
ATOM     14  C   UNL     1      10.839  11.594  17.714  0.00  0.00    +0.000 A 
ATOM     15  C   UNL     1       9.560  11.491  18.235  0.00  0.00    +0.000 A 
ATOM     16  N   UNL     1       8.702  12.534  18.332  0.00  0.00    +0.000 NA
ATOM     17  C   UNL     1       9.125  13.758  17.905  0.00  0.00    +0.000 A 
BRANCH  17  18
ATOM     18  C   UNL     1       8.130  14.884  18.097  0.00  0.00    +0.000 C 
ATOM     19  C   UNL     1       6.880  14.768  18.933  0.00  0.00    +0.000 C 
ATOM     20  C   UNL     1       8.062  15.504  19.483  0.00  0.00    +0.000 C 
ENDBRANCH  17  18
ENDBRANCH   7  15
ENDBRANCH   1   9
BRANCH   5  21
ATOM     21  C   UNL     1       5.217   5.842  16.386  0.00  0.00    +0.000 C 
ATOM     22  C   UNL     1       3.904   5.743  17.171  0.00  0.00    +0.000 C 
BRANCH  21  23
ATOM     23  S   UNL     1       5.626   4.210  15.625  0.00  0.00    +0.000 S 
BRANCH  23  24
ATOM     24  C   UNL     1       6.700   4.675  14.354  0.00  0.00    +0.000 A 
ATOM     25  N   UNL     1       7.707   5.517  14.447  0.00  0.00    +0.000 NA
ATOM     26  N   UNL     1       8.289   5.612  13.203  0.00  0.00    +0.000 NA
ATOM     27  C   UNL     1       7.624   4.824  12.392  0.00  0.00    +0.000 A 
ATOM     28  N   UNL     1       6.614   4.211  13.073  0.00  0.00    +0.000 N 
ATOM     29  C   UNL     1       5.661   3.296  12.510  0.00  0.00    +0.000 C 
ENDBRANCH  23  24
ENDBRANCH  21  23
ENDBRANCH   5  21
TORSDOF 6
ENDMDL
MODEL 2
REMARK VINA RESULT:      -8.2      6.884      9.997
REMARK  Name = 
REMARK  9 active torsions:
REMARK  status: ('A' for Active; 'I' for Inactive)
REMARK    1  A    between atoms: C_1  and  C_2
REMARK    2  A    between atoms: C_5  and  C_6
REMARK    3  A    between atoms: N_8  and  C_9
REMARK    4  A    between atoms: C_13  and  C_14
REMARK    5  A    between atoms: C_14  and  C_15
REMARK    6  A    between atoms: C_14  and  S_16
REMARK    7  A    between atoms: S_16  and  C_17
REMARK    8  A    between atoms: N_21  and  C_22
REMARK    9  A    between atoms: C_25  and  C_26
REMARK                            x       y       z     vdW  Elec       q    Type
REMARK                         _______ _______ _______ _____ _____    ______ ____
ROOT
ATOM      1  C   UNL     1       1.582   8.517  19.723  0.00  0.00    +0.000 A 
ATOM      2  C   UNL     1       1.248   8.234  21.048  0.00  0.00    +0.000 A 
ATOM      3  C   UNL     1       0.405   9.078  21.772  0.00  0.00    +0.000 A 
ATOM      4  C   UNL     1      -0.118  10.220  21.174  0.00  0.00    +0.000 A 
ATOM      5  C   UNL     1       0.201  10.545  19.845  0.00  0.00    +0.000 A 
ATOM      6  C   UNL     1       1.076   9.691  19.136  0.00  0.00    +0.000 A 
ENDROOT
BRANCH   1   9
ATOM      7  C   UNL     1       2.623   6.307  19.181  0.00  0.00    +0.000 C 
ATOM      8  O   UNL     1       2.119   5.628  20.068  0.00  0.00    +0.000 OA
ATOM      9  N   UNL     1       2.411   7.664  18.956  0.00  0.00    +0.000 N 
ATOM     10  H   UNL     1       2.840   8.032  18.111  0.00  0.00    +0.000 HD
BRANCH   7  15
ATOM     11  C   UNL     1       6.249   3.769  15.535  0.00  0.00    +0.000 C 
ATOM     12  C   UNL     1       5.298   4.450  16.477  0.00  0.00    +0.000 A 
ATOM     13  C   UNL     1       4.037   3.881  16.694  0.00  0.00    +0.000 A 
ATOM     14  C   UNL     1       3.151   4.480  17.577  0.00  0.00    +0.000 A 
ATOM     15  C   UNL     1       3.550   5.643  18.213  0.00  0.00    +0.000 A 
ATOM     16  N   UNL     1       4.753   6.232  18.016  0.00  0.00    +0.000 NA
ATOM     17  C   UNL     1       5.628   5.640  17.153  0.00  0.00    +0.000 A 
BRANCH  17  18
ATOM     18  C   UNL     1       6.972   6.327  17.029  0.00  0.00    +0.000 C 
ATOM     19  C   UNL     1       7.264   7.706  17.566  0.00  0.00    +0.000 C 
ATOM     20  C   UNL     1       7.765   6.509  18.312  0.00  0.00    +0.000 C 
ENDBRANCH  17  18
ENDBRANCH   7  15
ENDBRANCH   1   9
BRANCH   5  21
ATOM     21  C   UNL     1      -0.362  11.807  19.192  0.00  0.00    +0.000 C 
ATOM     22  C   UNL     1       0.354  13.052  19.727  0.00  0.00    +0.000 C 
BRANCH  21  23
ATOM     23  S   UNL     1      -2.181  11.948  19.476  0.00  0.00    +0.000 S 
BRANCH  23  24
ATOM     24  C   UNL     1      -2.813  11.530  17.924  0.00  0.00    +0.000 A 
ATOM     25  N   UNL     1      -2.122  11.133  16.877  0.00  0.00    +0.000 NA
ATOM     26  N   UNL     1      -3.009  10.918  15.847  0.00  0.00    +0.000 NA
ATOM     27  C   UNL     1      -4.213  11.184  16.296  0.00  0.00    +0.000 A 
ATOM     28  N   UNL     1      -4.139  11.573  17.601  0.00  0.00    +0.000 N 
ATOM     29  C   UNL     1      -5.251  11.966  18.421  0.00  0.00    +0.000 C 
ENDBRANCH  23  24
ENDBRANCH  21  23
ENDBRANCH   5  21
TORSDOF 6
ENDMDL
MODEL 3
REMARK VINA RESULT:      -8.1      5.131      7.700
REMARK  Name = 
REMARK  9 active torsions:
REMARK  status: ('A' for Active; 'I' for Inactive)
REMARK    1  A    between atoms: C_1  and  C_2
REMARK    2  A    between atoms: C_5  and  C_6
REMARK    3  A    between atoms: N_8  and  C_9
REMARK    4  A    between atoms: C_13  and  C_14
REMARK    5  A    between atoms: C_14  and  C_15
REMARK    6  A    between atoms: C_14  and  S_16
REMARK    7  A    between atoms: S_16  and  C_17
REMARK    8  A    between atoms: N_21  and  C_22
REMARK    9  A    between atoms: C_25  and  C_26
REMARK                            x       y       z     vdW  Elec       q    Type
REMARK                         _______ _______ _______ _____ _____    ______ ____
ROOT
ATOM      1  C   UNL     1       2.442   5.447  18.547  0.00  0.00    +0.000 A 
ATOM      2  C   UNL     1       1.940   4.146  18.571  0.00  0.00    +0.000 A 
ATOM      3  C   UNL     1       2.530   3.134  17.813  0.00  0.00    +0.000 A 
ATOM      4  C   UNL     1       3.637   3.415  17.019  0.00  0.00    +0.000 A 
ATOM      5  C   UNL     1       4.168   4.714  16.960  0.00  0.00    +0.000 A 
ATOM      6  C   UNL     1       3.541   5.731  17.717  0.00  0.00    +0.000 A 
ENDROOT
BRANCH   1   9
ATOM      7  C   UNL     1       1.968   7.849  19.063  0.00  0.00    +0.000 C 
ATOM      8  O   UNL     1       2.528   8.371  18.105  0.00  0.00    +0.000 OA
ATOM      9  N   UNL     1       1.882   6.486  19.329  0.00  0.00    +0.000 N 
ATOM     10  H   UNL     1       1.292   6.238  20.119  0.00  0.00    +0.000 HD
BRANCH   7  15
ATOM     11  C   UNL     1      -0.742  11.239  22.812  0.00  0.00    +0.000 C 
ATOM     12  C   UNL     1      -0.018  10.365  21.827  0.00  0.00    +0.000 A 
ATOM     13  C   UNL     1       0.586   9.186  22.283  0.00  0.00    +0.000 A 
ATOM     14  C   UNL     1       1.240   8.354  21.387  0.00  0.00    +0.000 A 
ATOM     15  C   UNL     1       1.281   8.732  20.056  0.00  0.00    +0.000 A 
ATOM     16  N   UNL     1       0.724   9.871  19.581  0.00  0.00    +0.000 NA
ATOM     17  C   UNL     1       0.075  10.687  20.459  0.00  0.00    +0.000 A 
BRANCH  17  18
ATOM     18  C   UNL     1      -0.568  11.911  19.843  0.00  0.00    +0.000 C 
ATOM     19  C   UNL     1      -0.955  12.016  18.389  0.00  0.00    +0.000 C 
ATOM     20  C   UNL     1      -2.019  11.776  19.413  0.00  0.00    +0.000 C 
ENDBRANCH  17  18
ENDBRANCH   7  15
ENDBRANCH   1   9
BRANCH   5  21
ATOM     21  C   UNL     1       5.376   5.026  16.078  0.00  0.00    +0.000 C 
ATOM     22  C   UNL     1       5.303   4.231  14.770  0.00  0.00    +0.000 C 
BRANCH  21  23
ATOM     23  S   UNL     1       6.956   4.657  16.959  0.00  0.00    +0.000 S 
BRANCH  23  24
ATOM     24  C   UNL     1       7.464   6.235  17.446  0.00  0.00    +0.000 A 
ATOM     25  N   UNL     1       7.475   7.320  16.701  0.00  0.00    +0.000 NA
ATOM     26  N   UNL     1       7.963   8.350  17.471  0.00  0.00    +0.000 NA
ATOM     27  C   UNL     1       8.231   7.867  18.661  0.00  0.00    +0.000 A 
ATOM     28  N   UNL     1       7.931   6.537  18.692  0.00  0.00    +0.000 N 
ATOM     29  C   UNL     1       8.113   5.666  19.820  0.00  0.00    +0.000 C 
ENDBRANCH  23  24
ENDBRANCH  21  23
ENDBRANCH   5  21
TORSDOF 6
ENDMDL
MODEL 4
REMARK VINA RESULT:      -8.1      5.698      7.539
REMARK  Name = 
REMARK  9 active torsions:
REMARK  status: ('A' for Active; 'I' for Inactive)
REMARK    1  A    between atoms: C_1  and  C_2
REMARK    2  A    between atoms: C_5  and  C_6
REMARK    3  A    between atoms: N_8  and  C_9
REMARK    4  A    between atoms: C_13  and  C_14
REMARK    5  A    between atoms: C_14  and  C_15
REMARK    6  A    between atoms: C_14  and  S_16
REMARK    7  A    between atoms: S_16  and  C_17
REMARK    8  A    between atoms: N_21  and  C_22
REMARK    9  A    between atoms: C_25  and  C_26
REMARK                            x       y       z     vdW  Elec       q    Type
REMARK                         _______ _______ _______ _____ _____    ______ ____
ROOT
ATOM      1  C   UNL     1       2.762   6.522  18.908  0.00  0.00    +0.000 A 
ATOM      2  C   UNL     1       2.792   5.375  19.701  0.00  0.00    +0.000 A 
ATOM      3  C   UNL     1       3.726   4.365  19.468  0.00  0.00    +0.000 A 
ATOM      4  C   UNL     1       4.648   4.494  18.433  0.00  0.00    +0.000 A 
ATOM      5  C   UNL     1       4.644   5.630  17.606  0.00  0.00    +0.000 A 
ATOM      6  C   UNL     1       3.674   6.631  17.844  0.00  0.00    +0.000 A 
ENDROOT
BRANCH   1   9
ATOM      7  C   UNL     1       1.707   8.728  18.372  0.00  0.00    +0.000 C 
ATOM      8  O   UNL     1       2.345   9.011  17.364  0.00  0.00    +0.000 OA
ATOM      9  N   UNL     1       1.845   7.576  19.141  0.00  0.00    +0.000 N 
ATOM     10  H   UNL     1       1.160   7.470  19.885  0.00  0.00    +0.000 HD
BRANCH   7  15
ATOM     11  C   UNL     1      -2.395  12.317  20.152  0.00  0.00    +0.000 C 
ATOM     12  C   UNL     1      -1.315  11.390  19.671  0.00  0.00    +0.000 A 
ATOM     13  C   UNL     1      -0.231  11.118  20.515  0.00  0.00    +0.000 A 
ATOM     14  C   UNL     1       0.766  10.248  20.101  0.00  0.00    +0.000 A 
ATOM     15  C   UNL     1       0.655   9.680  18.844  0.00  0.00    +0.000 A 
ATOM     16  N   UNL     1      -0.368   9.931  17.993  0.00  0.00    +0.000 NA
ATOM     17  C   UNL     1      -1.353  10.781  18.402  0.00  0.00    +0.000 A 
BRANCH  17  18
ATOM     18  C   UNL     1      -2.489  10.968  17.419  0.00  0.00    +0.000 C 
ATOM     19  C   UNL     1      -2.969   9.893  16.475  0.00  0.00    +0.000 C 
ATOM     20  C   UNL     1      -3.769  10.199  17.703  0.00  0.00    +0.000 C 
ENDBRANCH  17  18
ENDBRANCH   7  15
ENDBRANCH   1   9
BRANCH   5  21
ATOM     21  C   UNL     1       5.647   5.767  16.461  0.00  0.00    +0.000 C 
ATOM     22  C   UNL     1       5.152   6.794  15.437  0.00  0.00    +0.000 C 
BRANCH  21  23
ATOM     23  S   UNL     1       5.945   4.141  15.639  0.00  0.00    +0.000 S 
BRANCH  23  24
ATOM     24  C   UNL     1       6.823   4.616  14.229  0.00  0.00    +0.000 A 
ATOM     25  N   UNL     1       7.833   5.459  14.181  0.00  0.00    +0.000 NA
ATOM     26  N   UNL     1       8.229   5.562  12.867  0.00  0.00    +0.000 NA
ATOM     27  C   UNL     1       7.454   4.779  12.155  0.00  0.00    +0.000 A 
ATOM     28  N   UNL     1       6.554   4.161  12.971  0.00  0.00    +0.000 N 
ATOM     29  C   UNL     1       5.529   3.248  12.546  0.00  0.00    +0.000 C 
ENDBRANCH  23  24
ENDBRANCH  21  23
ENDBRANCH   5  21
TORSDOF 6
ENDMDL
MODEL 5
REMARK VINA RESULT:      -8.1      5.716      7.679
REMARK  Name = 
REMARK  9 active torsions:
REMARK  status: ('A' for Active; 'I' for Inactive)
REMARK    1  A    between atoms: C_1  and  C_2
REMARK    2  A    between atoms: C_5  and  C_6
REMARK    3  A    between atoms: N_8  and  C_9
REMARK    4  A    between atoms: C_13  and  C_14
REMARK    5  A    between atoms: C_14  and  C_15
REMARK    6  A    between atoms: C_14  and  S_16
REMARK    7  A    between atoms: S_16  and  C_17
REMARK    8  A    between atoms: N_21  and  C_22
REMARK    9  A    between atoms: C_25  and  C_26
REMARK                            x       y       z     vdW  Elec       q    Type
REMARK                         _______ _______ _______ _____ _____    ______ ____
ROOT
ATOM      1  C   UNL     1       2.394   6.899  19.217  0.00  0.00    +0.000 A 
ATOM      2  C   UNL     1       2.358   5.763  20.026  0.00  0.00    +0.000 A 
ATOM      3  C   UNL     1       3.262   4.718  19.839  0.00  0.00    +0.000 A 
ATOM      4  C   UNL     1       4.221   4.798  18.834  0.00  0.00    +0.000 A 
ATOM      5  C   UNL     1       4.286   5.920  17.991  0.00  0.00    +0.000 A 
ATOM      6  C   UNL     1       3.345   6.959  18.181  0.00  0.00    +0.000 A 
ENDROOT
BRANCH   1   9
ATOM      7  C   UNL     1       1.246   8.634  20.606  0.00  0.00    +0.000 C 
ATOM      8  O   UNL     1       1.746   8.377  21.696  0.00  0.00    +0.000 OA
ATOM      9  N   UNL     1       1.509   7.987  19.403  0.00  0.00    +0.000 N 
ATOM     10  H   UNL     1       1.072   8.405  18.585  0.00  0.00    +0.000 HD
BRANCH   7  15
ATOM     11  C   UNL     1      -2.581  12.887  20.227  0.00  0.00    +0.000 C 
ATOM     12  C   UNL     1      -1.567  11.783  20.313  0.00  0.00    +0.000 A 
ATOM     13  C   UNL     1      -0.892  11.576  21.523  0.00  0.00    +0.000 A 
ATOM     14  C   UNL     1       0.032  10.548  21.632  0.00  0.00    +0.000 A 
ATOM     15  C   UNL     1       0.265   9.759  20.518  0.00  0.00    +0.000 A 
ATOM     16  N   UNL     1      -0.355   9.939  19.328  0.00  0.00    +0.000 NA
ATOM     17  C   UNL     1      -1.269  10.945  19.222  0.00  0.00    +0.000 A 
BRANCH  17  18
ATOM     18  C   UNL     1      -1.959  11.047  17.877  0.00  0.00    +0.000 C 
ATOM     19  C   UNL     1      -1.991   9.931  16.862  0.00  0.00    +0.000 C 
ATOM     20  C   UNL     1      -3.209  10.204  17.687  0.00  0.00    +0.000 C 
ENDBRANCH  17  18
ENDBRANCH   7  15
ENDBRANCH   1   9
BRANCH   5  21
ATOM     21  C   UNL     1       5.330   6.003  16.879  0.00  0.00    +0.000 C 
ATOM     22  C   UNL     1       4.902   7.025  15.820  0.00  0.00    +0.000 C 
BRANCH  21  23
ATOM     23  S   UNL     1       5.602   4.353  16.096  0.00  0.00    +0.000 S 
BRANCH  23  24
ATOM     24  C   UNL     1       6.656   4.755  14.787  0.00  0.00    +0.000 A 
ATOM     25  N   UNL     1       7.712   5.538  14.843  0.00  0.00    +0.000 NA
ATOM     26  N   UNL     1       8.255   5.598  13.580  0.00  0.00    +0.000 NA
ATOM     27  C   UNL     1       7.519   4.848  12.794  0.00  0.00    +0.000 A 
ATOM     28  N   UNL     1       6.500   4.295  13.511  0.00  0.00    +0.000 N 
ATOM     29  C   UNL     1       5.477   3.434  12.985  0.00  0.00    +0.000 C 
ENDBRANCH  23  24
ENDBRANCH  21  23
ENDBRANCH   5  21
TORSDOF 6
ENDMDL
MODEL 6
REMARK VINA RESULT:      -8.0      5.664      7.453
REMARK  Name = 
REMARK  9 active torsions:
REMARK  status: ('A' for Active; 'I' for Inactive)
REMARK    1  A    between atoms: C_1  and  C_2
REMARK    2  A    between atoms: C_5  and  C_6
REMARK    3  A    between atoms: N_8  and  C_9
REMARK    4  A    between atoms: C_13  and  C_14
REMARK    5  A    between atoms: C_14  and  C_15
REMARK    6  A    between atoms: C_14  and  S_16
REMARK    7  A    between atoms: S_16  and  C_17
REMARK    8  A    between atoms: N_21  and  C_22
REMARK    9  A    between atoms: C_25  and  C_26
REMARK                            x       y       z     vdW  Elec       q    Type
REMARK                         _______ _______ _______ _____ _____    ______ ____
ROOT
ATOM      1  C   UNL     1       3.088   5.588  20.122  0.00  0.00    +0.000 A 
ATOM      2  C   UNL     1       2.667   4.261  20.221  0.00  0.00    +0.000 A 
ATOM      3  C   UNL     1       3.469   3.217  19.761  0.00  0.00    +0.000 A 
ATOM      4  C   UNL     1       4.711   3.489  19.195  0.00  0.00    +0.000 A 
ATOM      5  C   UNL     1       5.167   4.812  19.067  0.00  0.00    +0.000 A 
ATOM      6  C   UNL     1       4.330   5.858  19.518  0.00  0.00    +0.000 A 
ENDROOT
BRANCH   1   9
ATOM      7  C   UNL     1       1.890   7.771  19.872  0.00  0.00    +0.000 C 
ATOM      8  O   UNL     1       2.116   7.985  18.686  0.00  0.00    +0.000 OA
ATOM      9  N   UNL     1       2.309   6.665  20.607  0.00  0.00    +0.000 N 
ATOM     10  H   UNL     1       1.942   6.614  21.553  0.00  0.00    +0.000 HD
BRANCH   7  15
ATOM     11  C   UNL     1      -1.314  11.575  22.726  0.00  0.00    +0.000 C 
ATOM     12  C   UNL     1      -0.460  10.593  21.975  0.00  0.00    +0.000 A 
ATOM     13  C   UNL     1       0.085   9.503  22.666  0.00  0.00    +0.000 A 
ATOM     14  C   UNL     1       0.858   8.572  21.989  0.00  0.00    +0.000 A 
ATOM     15  C   UNL     1       1.073   8.764  20.635  0.00  0.00    +0.000 A 
ATOM     16  N   UNL     1       0.577   9.813  19.936  0.00  0.00    +0.000 NA
ATOM     17  C   UNL     1      -0.189  10.725  20.600  0.00  0.00    +0.000 A 
BRANCH  17  18
ATOM     18  C   UNL     1      -0.752  11.837  19.741  0.00  0.00    +0.000 C 
ATOM     19  C   UNL     1      -1.049  11.694  18.268  0.00  0.00    +0.000 C 
ATOM     20  C   UNL     1      -2.179  11.663  19.249  0.00  0.00    +0.000 C 
ENDBRANCH  17  18
ENDBRANCH   7  15
ENDBRANCH   1   9
BRANCH   5  21
ATOM     21  C   UNL     1       6.525   5.113  18.434  0.00  0.00    +0.000 C 
ATOM     22  C   UNL     1       7.525   5.567  19.503  0.00  0.00    +0.000 C 
BRANCH  21  23
ATOM     23  S   UNL     1       6.374   6.399  17.117  0.00  0.00    +0.000 S 
BRANCH  23  24
ATOM     24  C   UNL     1       6.527   5.451  15.681  0.00  0.00    +0.000 A 
ATOM     25  N   UNL     1       7.537   5.462  14.838  0.00  0.00    +0.000 NA
ATOM     26  N   UNL     1       7.250   4.571  13.829  0.00  0.00    +0.000 NA
ATOM     27  C   UNL     1       6.078   4.041  14.088  0.00  0.00    +0.000 A 
ATOM     28  N   UNL     1       5.585   4.564  15.246  0.00  0.00    +0.000 N 
ATOM     29  C   UNL     1       4.315   4.241  15.835  0.00  0.00    +0.000 C 
ENDBRANCH  23  24
ENDBRANCH  21  23
ENDBRANCH   5  21
TORSDOF 6
ENDMDL
MODEL 7
REMARK VINA RESULT:      -7.9      8.283     11.948
REMARK  Name = 
REMARK  9 active torsions:
REMARK  status: ('A' for Active; 'I' for Inactive)
REMARK    1  A    between atoms: C_1  and  C_2
REMARK    2  A    between atoms: C_5  and  C_6
REMARK    3  A    between atoms: N_8  and  C_9
REMARK    4  A    between atoms: C_13  and  C_14
REMARK    5  A    between atoms: C_14  and  C_15
REMARK    6  A    between atoms: C_14  and  S_16
REMARK    7  A    between atoms: S_16  and  C_17
REMARK    8  A    between atoms: N_21  and  C_22
REMARK    9  A    between atoms: C_25  and  C_26
REMARK                            x       y       z     vdW  Elec       q    Type
REMARK                         _______ _______ _______ _____ _____    ______ ____
ROOT
ATOM      1  C   UNL     1       0.903   9.118  20.874  0.00  0.00    +0.000 A 
ATOM      2  C   UNL     1       0.885   8.867  22.247  0.00  0.00    +0.000 A 
ATOM      3  C   UNL     1       0.064   9.603  23.101  0.00  0.00    +0.000 A 
ATOM      4  C   UNL     1      -0.754  10.605  22.588  0.00  0.00    +0.000 A 
ATOM      5  C   UNL     1      -0.759  10.896  21.214  0.00  0.00    +0.000 A 
ATOM      6  C   UNL     1       0.098  10.154  20.368  0.00  0.00    +0.000 A 
ENDROOT
BRANCH   1   9
ATOM      7  C   UNL     1       1.931   6.995  20.038  0.00  0.00    +0.000 C 
ATOM      8  O   UNL     1       1.468   6.214  20.862  0.00  0.00    +0.000 OA
ATOM      9  N   UNL     1       1.703   8.367  19.980  0.00  0.00    +0.000 N 
ATOM     10  H   UNL     1       2.095   8.834  19.167  0.00  0.00    +0.000 HD
BRANCH   7  15
ATOM     11  C   UNL     1       5.271   4.859  15.896  0.00  0.00    +0.000 C 
ATOM     12  C   UNL     1       4.410   5.413  16.995  0.00  0.00    +0.000 A 
ATOM     13  C   UNL     1       4.188   6.795  17.049  0.00  0.00    +0.000 A 
ATOM     14  C   UNL     1       3.379   7.326  18.042  0.00  0.00    +0.000 A 
ATOM     15  C   UNL     1       2.820   6.456  18.963  0.00  0.00    +0.000 A 
ATOM     16  N   UNL     1       3.025   5.118  18.953  0.00  0.00    +0.000 NA
ATOM     17  C   UNL     1       3.815   4.594  17.973  0.00  0.00    +0.000 A 
BRANCH  17  18
ATOM     18  C   UNL     1       3.951   3.086  17.995  0.00  0.00    +0.000 C 
ATOM     19  C   UNL     1       3.193   2.187  18.940  0.00  0.00    +0.000 C 
ATOM     20  C   UNL     1       2.752   2.286  17.513  0.00  0.00    +0.000 C 
ENDBRANCH  17  18
ENDBRANCH   7  15
ENDBRANCH   1   9
BRANCH   5  21
ATOM     21  C   UNL     1      -1.648  12.004  20.652  0.00  0.00    +0.000 C 
ATOM     22  C   UNL     1      -1.032  12.587  19.375  0.00  0.00    +0.000 C 
BRANCH  21  23
ATOM     23  S   UNL     1      -1.912  13.341  21.897  0.00  0.00    +0.000 S 
BRANCH  23  24
ATOM     24  C   UNL     1      -3.519  13.006  22.436  0.00  0.00    +0.000 A 
ATOM     25  N   UNL     1      -3.860  12.332  23.515  0.00  0.00    +0.000 NA
ATOM     26  N   UNL     1      -5.235  12.288  23.563  0.00  0.00    +0.000 NA
ATOM     27  C   UNL     1      -5.691  12.937  22.517  0.00  0.00    +0.000 A 
ATOM     28  N   UNL     1      -4.646  13.408  21.779  0.00  0.00    +0.000 N 
ATOM     29  C   UNL     1      -4.755  14.147  20.552  0.00  0.00    +0.000 C 
ENDBRANCH  23  24
ENDBRANCH  21  23
ENDBRANCH   5  21
TORSDOF 6
ENDMDL
MODEL 8
REMARK VINA RESULT:      -7.9      6.695     11.381
REMARK  Name = 
REMARK  9 active torsions:
REMARK  status: ('A' for Active; 'I' for Inactive)
REMARK    1  A    between atoms: C_1  and  C_2
REMARK    2  A    between atoms: C_5  and  C_6
REMARK    3  A    between atoms: N_8  and  C_9
REMARK    4  A    between atoms: C_13  and  C_14
REMARK    5  A    between atoms: C_14  and  C_15
REMARK    6  A    between atoms: C_14  and  S_16
REMARK    7  A    between atoms: S_16  and  C_17
REMARK    8  A    between atoms: N_21  and  C_22
REMARK    9  A    between atoms: C_25  and  C_26
REMARK                            x       y       z     vdW  Elec       q    Type
REMARK                         _______ _______ _______ _____ _____    ______ ____
ROOT
ATOM      1  C   UNL     1       0.720  10.318  18.536  0.00  0.00    +0.000 A 
ATOM      2  C   UNL     1      -0.669  10.415  18.456  0.00  0.00    +0.000 A 
ATOM      3  C   UNL     1      -1.318  11.631  18.668  0.00  0.00    +0.000 A 
ATOM      4  C   UNL     1      -0.579  12.773  18.963  0.00  0.00    +0.000 A 
ATOM      5  C   UNL     1       0.821  12.716  19.061  0.00  0.00    +0.000 A 
ATOM      6  C   UNL     1       1.459  11.469  18.867  0.00  0.00    +0.000 A 
ENDROOT
BRANCH   1   9
ATOM      7  C   UNL     1       1.815   8.188  19.262  0.00  0.00    +0.000 C 
ATOM      8  O   UNL     1       1.633   8.275  20.472  0.00  0.00    +0.000 OA
ATOM      9  N   UNL     1       1.407   9.104  18.297  0.00  0.00    +0.000 N 
ATOM     10  H   UNL     1       1.561   8.813  17.335  0.00  0.00    +0.000 HD
BRANCH   7  15
ATOM     11  C   UNL     1       4.447   3.523  17.215  0.00  0.00    +0.000 C 
ATOM     12  C   UNL     1       3.766   4.742  17.769  0.00  0.00    +0.000 A 
ATOM     13  C   UNL     1       4.113   6.001  17.262  0.00  0.00    +0.000 A 
ATOM     14  C   UNL     1       3.482   7.137  17.743  0.00  0.00    +0.000 A 
ATOM     15  C   UNL     1       2.524   6.983  18.731  0.00  0.00    +0.000 A 
ATOM     16  N   UNL     1       2.174   5.786  19.257  0.00  0.00    +0.000 NA
ATOM     17  C   UNL     1       2.789   4.667  18.780  0.00  0.00    +0.000 A 
BRANCH  17  18
ATOM     18  C   UNL     1       2.304   3.363  19.378  0.00  0.00    +0.000 C 
ATOM     19  C   UNL     1       1.039   3.228  20.189  0.00  0.00    +0.000 C 
ATOM     20  C   UNL     1       1.052   2.757  18.768  0.00  0.00    +0.000 C 
ENDBRANCH  17  18
ENDBRANCH   7  15
ENDBRANCH   1   9
BRANCH   5  21
ATOM     21  C   UNL     1       1.633  13.967  19.397  0.00  0.00    +0.000 C 
ATOM     22  C   UNL     1       2.497  13.725  20.640  0.00  0.00    +0.000 C 
BRANCH  21  23
ATOM     23  S   UNL     1       0.531  15.424  19.663  0.00  0.00    +0.000 S 
BRANCH  23  24
ATOM     24  C   UNL     1       1.121  16.532  18.476  0.00  0.00    +0.000 A 
ATOM     25  N   UNL     1       2.344  16.585  17.993  0.00  0.00    +0.000 NA
ATOM     26  N   UNL     1       2.390  17.618  17.085  0.00  0.00    +0.000 NA
ATOM     27  C   UNL     1       1.197  18.161  17.039  0.00  0.00    +0.000 A 
ATOM     28  N   UNL     1       0.363  17.509  17.898  0.00  0.00    +0.000 N 
ATOM     29  C   UNL     1      -1.015  17.836  18.136  0.00  0.00    +0.000 C 
ENDBRANCH  23  24
ENDBRANCH  21  23
ENDBRANCH   5  21
TORSDOF 6
ENDMDL
MODEL 9
REMARK VINA RESULT:      -7.9      7.361     10.779
REMARK  Name = 
REMARK  9 active torsions:
REMARK  status: ('A' for Active; 'I' for Inactive)
REMARK    1  A    between atoms: C_1  and  C_2
REMARK    2  A    between atoms: C_5  and  C_6
REMARK    3  A    between atoms: N_8  and  C_9
REMARK    4  A    between atoms: C_13  and  C_14
REMARK    5  A    between atoms: C_14  and  C_15
REMARK    6  A    between atoms: C_14  and  S_16
REMARK    7  A    between atoms: S_16  and  C_17
REMARK    8  A    between atoms: N_21  and  C_22
REMARK    9  A    between atoms: C_25  and  C_26
REMARK                            x       y       z     vdW  Elec       q    Type
REMARK                         _______ _______ _______ _____ _____    ______ ____
ROOT
ATOM      1  C   UNL     1       0.599   8.981  21.077  0.00  0.00    +0.000 A 
ATOM      2  C   UNL     1       0.395   9.376  22.400  0.00  0.00    +0.000 A 
ATOM      3  C   UNL     1      -0.211  10.596  22.699  0.00  0.00    +0.000 A 
ATOM      4  C   UNL     1      -0.625  11.439  21.672  0.00  0.00    +0.000 A 
ATOM      5  C   UNL     1      -0.430  11.082  20.328  0.00  0.00    +0.000 A 
ATOM      6  C   UNL     1       0.208   9.852  20.045  0.00  0.00    +0.000 A 
ENDROOT
BRANCH   1   9
ATOM      7  C   UNL     1       2.053   7.496  19.684  0.00  0.00    +0.000 C 
ATOM      8  O   UNL     1       2.464   8.322  18.877  0.00  0.00    +0.000 OA
ATOM      9  N   UNL     1       1.184   7.736  20.744  0.00  0.00    +0.000 N 
ATOM     10  H   UNL     1       1.034   6.945  21.365  0.00  0.00    +0.000 HD
BRANCH   7  15
ATOM     11  C   UNL     1       3.951   2.108  19.187  0.00  0.00    +0.000 C 
ATOM     12  C   UNL     1       3.441   3.516  19.302  0.00  0.00    +0.000 A 
ATOM     13  C   UNL     1       2.696   3.877  20.431  0.00  0.00    +0.000 A 
ATOM     14  C   UNL     1       2.235   5.177  20.568  0.00  0.00    +0.000 A 
ATOM     15  C   UNL     1       2.525   6.082  19.560  0.00  0.00    +0.000 A 
ATOM     16  N   UNL     1       3.227   5.766  18.447  0.00  0.00    +0.000 NA
ATOM     17  C   UNL     1       3.687   4.489  18.315  0.00  0.00    +0.000 A 
BRANCH  17  18
ATOM     18  C   UNL     1       4.511   4.229  17.071  0.00  0.00    +0.000 C 
ATOM     19  C   UNL     1       5.134   5.317  16.231  0.00  0.00    +0.000 C 
ATOM     20  C   UNL     1       5.998   4.526  17.163  0.00  0.00    +0.000 C 
ENDBRANCH  17  18
ENDBRANCH   7  15
ENDBRANCH   1   9
BRANCH   5  21
ATOM     21  C   UNL     1      -0.872  12.013  19.199  0.00  0.00    +0.000 C 
ATOM     22  C   UNL     1      -0.359  13.436  19.448  0.00  0.00    +0.000 C 
BRANCH  21  23
ATOM     23  S   UNL     1      -2.710  12.022  19.026  0.00  0.00    +0.000 S 
BRANCH  23  24
ATOM     24  C   UNL     1      -2.923  11.249  17.496  0.00  0.00    +0.000 A 
ATOM     25  N   UNL     1      -2.033  10.522  16.854  0.00  0.00    +0.000 NA
ATOM     26  N   UNL     1      -2.604  10.108  15.672  0.00  0.00    +0.000 NA
ATOM     27  C   UNL     1      -3.824  10.591  15.630  0.00  0.00    +0.000 A 
ATOM     28  N   UNL     1      -4.070  11.315  16.758  0.00  0.00    +0.000 N 
ATOM     29  C   UNL     1      -5.290  12.013  17.055  0.00  0.00    +0.000 C 
ENDBRANCH  23  24
ENDBRANCH  21  23
ENDBRANCH   5  21
TORSDOF 6
ENDMDL
