MODEL 1
REMARK VINA RESULT:      -9.5      0.000      0.000
REMARK  Name = 
REMARK  10 active torsions:
REMARK  status: ('A' for Active; 'I' for Inactive)
REMARK    1  A    between atoms: C_1  and  C_2
REMARK    2  A    between atoms: C_2  and  C_3
REMARK    3  A    between atoms: C_2  and  N_34
REMARK    4  A    between atoms: C_7  and  C_8
REMARK    5  A    between atoms: N_14  and  C_15
REMARK    6  A    between atoms: C_19  and  C_20
REMARK    7  A    between atoms: C_20  and  C_21
REMARK    8  A    between atoms: C_21  and  C_22
REMARK    9  A    between atoms: N_26  and  C_27
REMARK   10  A    between atoms: C_37  and  C_38
REMARK                            x       y       z     vdW  Elec       q    Type
REMARK                         _______ _______ _______ _____ _____    ______ ____
ROOT
ATOM      1  C   UNL     1      -0.348  11.269  19.477  0.00  0.00    +0.000 A 
ATOM      2  C   UNL     1       0.360  10.352  18.701  0.00  0.00    +0.000 A 
ATOM      3  C   UNL     1       0.920   9.261  19.321  0.00  0.00    +0.000 A 
ATOM      4  C   UNL     1       0.737   8.944  20.657  0.00  0.00    +0.000 A 
ATOM      5  C   UNL     1      -0.043   9.783  21.449  0.00  0.00    +0.000 A 
ATOM      6  C   UNL     1      -0.546  10.976  20.849  0.00  0.00    +0.000 A 
ATOM      7  C   UNL     1       1.519   7.699  20.967  0.00  0.00    +0.000 C 
ATOM      8  N   UNL     1       2.206   7.410  19.706  0.00  0.00    +0.000 N 
ATOM      9  C   UNL     1       1.857   8.329  18.720  0.00  0.00    +0.000 C 
ATOM     10  O   UNL     1       2.225   8.470  17.570  0.00  0.00    +0.000 OA
ENDROOT
BRANCH   8  11
ATOM     11  C   UNL     1       3.075   6.305  19.511  0.00  0.00    +0.000 A 
ATOM     12  C   UNL     1       2.690   5.012  19.892  0.00  0.00    +0.000 A 
ATOM     13  C   UNL     1       3.549   3.927  19.749  0.00  0.00    +0.000 A 
ATOM     14  C   UNL     1       4.820   4.124  19.233  0.00  0.00    +0.000 A 
ATOM     15  C   UNL     1       5.273   5.399  18.843  0.00  0.00    +0.000 A 
ATOM     16  C   UNL     1       4.355   6.470  18.966  0.00  0.00    +0.000 A 
BRANCH  15  17
ATOM     17  C   UNL     1       6.778   5.617  18.352  0.00  0.00    +0.000 C 
ATOM     18  C   UNL     1       7.218   7.032  17.877  0.00  0.00    +0.000 C 
ATOM     19  O   UNL     1       8.426   6.949  18.686  0.00  0.00    +0.000 OA
ATOM     20  C   UNL     1       7.793   5.927  19.494  0.00  0.00    +0.000 C 
BRANCH  17  21
ATOM     21  C   UNL     1       7.265   4.470  17.448  0.00  0.00    +0.000 C 
BRANCH  21  22
ATOM     22  C   UNL     1       6.907   4.649  16.010  0.00  0.00    +0.000 A 
ATOM     23  N   UNL     1       7.647   5.249  15.098  0.00  0.00    +0.000 NA
ATOM     24  N   UNL     1       7.003   5.156  13.888  0.00  0.00    +0.000 NA
ATOM     25  C   UNL     1       5.884   4.503  14.083  0.00  0.00    +0.000 A 
ATOM     26  N   UNL     1       5.773   4.176  15.399  0.00  0.00    +0.000 N 
ATOM     27  C   UNL     1       4.673   3.459  15.988  0.00  0.00    +0.000 C 
ENDBRANCH  21  22
ENDBRANCH  17  21
ENDBRANCH  15  17
ENDBRANCH   8  11
BRANCH   5  28
ATOM     28  C   UNL     1      -0.343   9.471  22.893  0.00  0.00    +0.000 C 
ATOM     29  F   UNL     1       0.774   9.356  23.663  0.00  0.00    +0.000 F 
ATOM     30  F   UNL     1      -1.111  10.420  23.490  0.00  0.00    +0.000 F 
ATOM     31  F   UNL     1      -1.013   8.294  23.042  0.00  0.00    +0.000 F 
ENDBRANCH   5  28
BRANCH   1  33
ATOM     32  C   UNL     1      -1.607  12.262  17.608  0.00  0.00    +0.000 C 
ATOM     33  C   UNL     1      -0.693  12.603  18.802  0.00  0.00    +0.000 C 
BRANCH  33  34
ATOM     34  N   UNL     1       0.422  13.481  18.386  0.00  0.00    +0.000 NA
ATOM     35  C   UNL     1       0.065  14.918  18.490  0.00  0.00    +0.000 C 
ATOM     36  C   UNL     1      -0.027  15.456  19.926  0.00  0.00    +0.000 C 
ATOM     37  C   UNL     1       1.198  15.107  20.771  0.00  0.00    +0.000 C 
ATOM     38  C   UNL     1       0.927  15.350  22.256  0.00  0.00    +0.000 C 
ATOM     39  F   UNL     1       2.207  15.954  20.397  0.00  0.00    +0.000 F 
ATOM     40  C   UNL     1       1.689  13.677  20.556  0.00  0.00    +0.000 C 
ATOM     41  C   UNL     1       1.703  13.289  19.081  0.00  0.00    +0.000 C 
ENDBRANCH  33  34
ENDBRANCH   1  33
TORSDOF 7
ENDMDL
MODEL 2
REMARK VINA RESULT:      -9.3      0.941      1.017
REMARK  Name = 
REMARK  10 active torsions:
REMARK  status: ('A' for Active; 'I' for Inactive)
REMARK    1  A    between atoms: C_1  and  C_2
REMARK    2  A    between atoms: C_2  and  C_3
REMARK    3  A    between atoms: C_2  and  N_34
REMARK    4  A    between atoms: C_7  and  C_8
REMARK    5  A    between atoms: N_14  and  C_15
REMARK    6  A    between atoms: C_19  and  C_20
REMARK    7  A    between atoms: C_20  and  C_21
REMARK    8  A    between atoms: C_21  and  C_22
REMARK    9  A    between atoms: N_26  and  C_27
REMARK   10  A    between atoms: C_37  and  C_38
REMARK                            x       y       z     vdW  Elec       q    Type
REMARK                         _______ _______ _______ _____ _____    ______ ____
ROOT
ATOM      1  C   UNL     1       0.136  11.930  19.782  0.00  0.00    +0.000 A 
ATOM      2  C   UNL     1       0.734  11.118  18.820  0.00  0.00    +0.000 A 
ATOM      3  C   UNL     1       1.123   9.850  19.180  0.00  0.00    +0.000 A 
ATOM      4  C   UNL     1       0.862   9.275  20.413  0.00  0.00    +0.000 A 
ATOM      5  C   UNL     1       0.181  10.018  21.374  0.00  0.00    +0.000 A 
ATOM      6  C   UNL     1      -0.138  11.372  21.055  0.00  0.00    +0.000 A 
ATOM      7  C   UNL     1       1.460   7.896  20.436  0.00  0.00    +0.000 C 
ATOM      8  N   UNL     1       2.136   7.800  19.140  0.00  0.00    +0.000 N 
ATOM      9  C   UNL     1       1.942   8.953  18.384  0.00  0.00    +0.000 C 
ATOM     10  O   UNL     1       2.358   9.292  17.294  0.00  0.00    +0.000 OA
ENDROOT
BRANCH   8  11
ATOM     11  C   UNL     1       2.852   6.656  18.701  0.00  0.00    +0.000 A 
ATOM     12  C   UNL     1       2.206   5.423  18.537  0.00  0.00    +0.000 A 
ATOM     13  C   UNL     1       2.904   4.283  18.153  0.00  0.00    +0.000 A 
ATOM     14  C   UNL     1       4.271   4.357  17.940  0.00  0.00    +0.000 A 
ATOM     15  C   UNL     1       4.983   5.563  18.100  0.00  0.00    +0.000 A 
ATOM     16  C   UNL     1       4.229   6.709  18.452  0.00  0.00    +0.000 A 
BRANCH  15  17
ATOM     17  C   UNL     1       6.573   5.598  17.954  0.00  0.00    +0.000 C 
ATOM     18  C   UNL     1       7.274   6.960  17.680  0.00  0.00    +0.000 C 
ATOM     19  O   UNL     1       8.258   6.684  18.718  0.00  0.00    +0.000 OA
ATOM     20  C   UNL     1       7.345   5.723  19.303  0.00  0.00    +0.000 C 
BRANCH  17  21
ATOM     21  C   UNL     1       7.103   4.435  17.096  0.00  0.00    +0.000 C 
BRANCH  21  22
ATOM     22  C   UNL     1       7.134   4.734  15.634  0.00  0.00    +0.000 A 
ATOM     23  N   UNL     1       7.982   5.542  15.028  0.00  0.00    +0.000 NA
ATOM     24  N   UNL     1       7.725   5.506  13.678  0.00  0.00    +0.000 NA
ATOM     25  C   UNL     1       6.727   4.679  13.486  0.00  0.00    +0.000 A 
ATOM     26  N   UNL     1       6.313   4.181  14.683  0.00  0.00    +0.000 N 
ATOM     27  C   UNL     1       5.235   3.247  14.867  0.00  0.00    +0.000 C 
ENDBRANCH  21  22
ENDBRANCH  17  21
ENDBRANCH  15  17
ENDBRANCH   8  11
BRANCH   5  28
ATOM     28  C   UNL     1      -0.199   9.439  22.713  0.00  0.00    +0.000 C 
ATOM     29  F   UNL     1       0.872   9.188  23.515  0.00  0.00    +0.000 F 
ATOM     30  F   UNL     1      -1.016  10.256  23.428  0.00  0.00    +0.000 F 
ATOM     31  F   UNL     1      -0.857   8.252  22.598  0.00  0.00    +0.000 F 
ENDBRANCH   5  28
BRANCH   1  33
ATOM     32  C   UNL     1      -0.744  13.464  18.068  0.00  0.00    +0.000 C 
ATOM     33  C   UNL     1      -0.006  13.414  19.421  0.00  0.00    +0.000 C 
BRANCH  33  34
ATOM     34  N   UNL     1       1.218  14.244  19.392  0.00  0.00    +0.000 NA
ATOM     35  C   UNL     1       0.918  15.665  19.091  0.00  0.00    +0.000 C 
ATOM     36  C   UNL     1       0.237  16.437  20.231  0.00  0.00    +0.000 C 
ATOM     37  C   UNL     1       0.957  16.275  21.570  0.00  0.00    +0.000 C 
ATOM     38  C   UNL     1       0.081  16.758  22.726  0.00  0.00    +0.000 C 
ATOM     39  F   UNL     1       2.066  17.076  21.537  0.00  0.00    +0.000 F 
ATOM     40  C   UNL     1       1.426  14.845  21.831  0.00  0.00    +0.000 C 
ATOM     41  C   UNL     1       2.061  14.213  20.596  0.00  0.00    +0.000 C 
ENDBRANCH  33  34
ENDBRANCH   1  33
TORSDOF 7
ENDMDL
MODEL 3
REMARK VINA RESULT:      -9.3      1.926      3.019
REMARK  Name = 
REMARK  10 active torsions:
REMARK  status: ('A' for Active; 'I' for Inactive)
REMARK    1  A    between atoms: C_1  and  C_2
REMARK    2  A    between atoms: C_2  and  C_3
REMARK    3  A    between atoms: C_2  and  N_34
REMARK    4  A    between atoms: C_7  and  C_8
REMARK    5  A    between atoms: N_14  and  C_15
REMARK    6  A    between atoms: C_19  and  C_20
REMARK    7  A    between atoms: C_20  and  C_21
REMARK    8  A    between atoms: C_21  and  C_22
REMARK    9  A    between atoms: N_26  and  C_27
REMARK   10  A    between atoms: C_37  and  C_38
REMARK                            x       y       z     vdW  Elec       q    Type
REMARK                         _______ _______ _______ _____ _____    ______ ____
ROOT
ATOM      1  C   UNL     1       0.876  11.858  19.514  0.00  0.00    +0.000 A 
ATOM      2  C   UNL     1       1.311  10.942  18.558  0.00  0.00    +0.000 A 
ATOM      3  C   UNL     1       1.502   9.635  18.939  0.00  0.00    +0.000 A 
ATOM      4  C   UNL     1       1.185   9.134  20.191  0.00  0.00    +0.000 A 
ATOM      5  C   UNL     1       0.657   9.996  21.149  0.00  0.00    +0.000 A 
ATOM      6  C   UNL     1       0.551  11.377  20.806  0.00  0.00    +0.000 A 
ATOM      7  C   UNL     1       1.554   7.677  20.233  0.00  0.00    +0.000 C 
ATOM      8  N   UNL     1       2.172   7.449  18.924  0.00  0.00    +0.000 N 
ATOM      9  C   UNL     1       2.145   8.603  18.146  0.00  0.00    +0.000 C 
ATOM     10  O   UNL     1       2.581   8.850  17.038  0.00  0.00    +0.000 OA
ENDROOT
BRANCH   8  11
ATOM     11  C   UNL     1       2.684   6.197  18.496  0.00  0.00    +0.000 A 
ATOM     12  C   UNL     1       2.251   5.002  19.089  0.00  0.00    +0.000 A 
ATOM     13  C   UNL     1       2.778   3.772  18.712  0.00  0.00    +0.000 A 
ATOM     14  C   UNL     1       3.763   3.718  17.739  0.00  0.00    +0.000 A 
ATOM     15  C   UNL     1       4.251   4.882  17.113  0.00  0.00    +0.000 A 
ATOM     16  C   UNL     1       3.660   6.111  17.496  0.00  0.00    +0.000 A 
BRANCH  15  17
ATOM     17  C   UNL     1       5.462   4.804  16.073  0.00  0.00    +0.000 C 
ATOM     18  C   UNL     1       6.089   3.417  15.750  0.00  0.00    +0.000 C 
ATOM     19  O   UNL     1       6.041   3.706  14.323  0.00  0.00    +0.000 OA
ATOM     20  C   UNL     1       5.027   4.709  14.579  0.00  0.00    +0.000 C 
BRANCH  17  21
ATOM     21  C   UNL     1       6.494   5.923  16.300  0.00  0.00    +0.000 C 
BRANCH  21  22
ATOM     22  C   UNL     1       7.158   5.863  17.635  0.00  0.00    +0.000 A 
ATOM     23  N   UNL     1       7.277   4.790  18.393  0.00  0.00    +0.000 NA
ATOM     24  N   UNL     1       8.000   5.127  19.511  0.00  0.00    +0.000 NA
ATOM     25  C   UNL     1       8.308   6.397  19.417  0.00  0.00    +0.000 A 
ATOM     26  N   UNL     1       7.791   6.906  18.265  0.00  0.00    +0.000 N 
ATOM     27  C   UNL     1       7.921   8.269  17.826  0.00  0.00    +0.000 C 
ENDBRANCH  21  22
ENDBRANCH  17  21
ENDBRANCH  15  17
ENDBRANCH   8  11
BRANCH   5  28
ATOM     28  C   UNL     1       0.226   9.512  22.511  0.00  0.00    +0.000 C 
ATOM     29  F   UNL     1      -0.365  10.479  23.264  0.00  0.00    +0.000 F 
ATOM     30  F   UNL     1      -0.668   8.490  22.448  0.00  0.00    +0.000 F 
ATOM     31  F   UNL     1       1.271   9.056  23.255  0.00  0.00    +0.000 F 
ENDBRANCH   5  28
BRANCH   1  33
ATOM     32  C   UNL     1       2.130  13.453  18.118  0.00  0.00    +0.000 C 
ATOM     33  C   UNL     1       0.965  13.339  19.122  0.00  0.00    +0.000 C 
BRANCH  33  34
ATOM     34  N   UNL     1       1.091  14.340  20.203  0.00  0.00    +0.000 NA
ATOM     35  C   UNL     1       1.938  15.489  19.799  0.00  0.00    +0.000 C 
ATOM     36  C   UNL     1       1.290  16.442  18.783  0.00  0.00    +0.000 C 
ATOM     37  C   UNL     1      -0.115  16.882  19.194  0.00  0.00    +0.000 C 
ATOM     38  C   UNL     1      -0.850  17.534  18.023  0.00  0.00    +0.000 C 
ATOM     39  F   UNL     1       0.023  17.833  20.169  0.00  0.00    +0.000 F 
ATOM     40  C   UNL     1      -0.956  15.745  19.771  0.00  0.00    +0.000 C 
ATOM     41  C   UNL     1      -0.163  14.880  20.746  0.00  0.00    +0.000 C 
ENDBRANCH  33  34
ENDBRANCH   1  33
TORSDOF 7
ENDMDL
MODEL 4
REMARK VINA RESULT:      -9.3      1.500      2.050
REMARK  Name = 
REMARK  10 active torsions:
REMARK  status: ('A' for Active; 'I' for Inactive)
REMARK    1  A    between atoms: C_1  and  C_2
REMARK    2  A    between atoms: C_2  and  C_3
REMARK    3  A    between atoms: C_2  and  N_34
REMARK    4  A    between atoms: C_7  and  C_8
REMARK    5  A    between atoms: N_14  and  C_15
REMARK    6  A    between atoms: C_19  and  C_20
REMARK    7  A    between atoms: C_20  and  C_21
REMARK    8  A    between atoms: C_21  and  C_22
REMARK    9  A    between atoms: N_26  and  C_27
REMARK   10  A    between atoms: C_37  and  C_38
REMARK                            x       y       z     vdW  Elec       q    Type
REMARK                         _______ _______ _______ _____ _____    ______ ____
ROOT
ATOM      1  C   UNL     1       0.788  11.934  19.580  0.00  0.00    +0.000 A 
ATOM      2  C   UNL     1       1.223  11.053  18.590  0.00  0.00    +0.000 A 
ATOM      3  C   UNL     1       1.409   9.732  18.923  0.00  0.00    +0.000 A 
ATOM      4  C   UNL     1       1.087   9.184  20.153  0.00  0.00    +0.000 A 
ATOM      5  C   UNL     1       0.558  10.011  21.142  0.00  0.00    +0.000 A 
ATOM      6  C   UNL     1       0.457  11.405  20.851  0.00  0.00    +0.000 A 
ATOM      7  C   UNL     1       1.452   7.727  20.141  0.00  0.00    +0.000 C 
ATOM      8  N   UNL     1       2.074   7.546  18.827  0.00  0.00    +0.000 N 
ATOM      9  C   UNL     1       2.053   8.729  18.093  0.00  0.00    +0.000 C 
ATOM     10  O   UNL     1       2.493   9.016  16.997  0.00  0.00    +0.000 OA
ENDROOT
BRANCH   8  11
ATOM     11  C   UNL     1       2.583   6.309  18.353  0.00  0.00    +0.000 A 
ATOM     12  C   UNL     1       1.826   5.134  18.453  0.00  0.00    +0.000 A 
ATOM     13  C   UNL     1       2.331   3.907  18.036  0.00  0.00    +0.000 A 
ATOM     14  C   UNL     1       3.616   3.835  17.523  0.00  0.00    +0.000 A 
ATOM     15  C   UNL     1       4.434   4.976  17.407  0.00  0.00    +0.000 A 
ATOM     16  C   UNL     1       3.868   6.212  17.804  0.00  0.00    +0.000 A 
BRANCH  15  17
ATOM     17  C   UNL     1       5.948   4.849  16.913  0.00  0.00    +0.000 C 
ATOM     18  C   UNL     1       6.822   6.134  16.827  0.00  0.00    +0.000 C 
ATOM     19  O   UNL     1       7.916   5.459  17.512  0.00  0.00    +0.000 OA
ATOM     20  C   UNL     1       6.968   4.496  18.037  0.00  0.00    +0.000 C 
BRANCH  17  21
ATOM     21  C   UNL     1       6.085   3.913  15.699  0.00  0.00    +0.000 C 
BRANCH  21  22
ATOM     22  C   UNL     1       6.805   4.529  14.545  0.00  0.00    +0.000 A 
ATOM     23  N   UNL     1       7.766   5.428  14.624  0.00  0.00    +0.000 NA
ATOM     24  N   UNL     1       8.211   5.700  13.353  0.00  0.00    +0.000 NA
ATOM     25  C   UNL     1       7.513   4.964  12.522  0.00  0.00    +0.000 A 
ATOM     26  N   UNL     1       6.609   4.223  13.221  0.00  0.00    +0.000 N 
ATOM     27  C   UNL     1       5.667   3.302  12.646  0.00  0.00    +0.000 C 
ENDBRANCH  21  22
ENDBRANCH  17  21
ENDBRANCH  15  17
ENDBRANCH   8  11
BRANCH   5  28
ATOM     28  C   UNL     1       0.121   9.477  22.483  0.00  0.00    +0.000 C 
ATOM     29  F   UNL     1       1.145   8.964  23.219  0.00  0.00    +0.000 F 
ATOM     30  F   UNL     1      -0.461  10.425  23.263  0.00  0.00    +0.000 F 
ATOM     31  F   UNL     1      -0.789   8.469  22.369  0.00  0.00    +0.000 F 
ENDBRANCH   5  28
BRANCH   1  33
ATOM     32  C   UNL     1       2.090  13.585  18.299  0.00  0.00    +0.000 C 
ATOM     33  C   UNL     1       0.882  13.428  19.244  0.00  0.00    +0.000 C 
BRANCH  33  34
ATOM     34  N   UNL     1       0.951  14.390  20.365  0.00  0.00    +0.000 NA
ATOM     35  C   UNL     1       1.791  15.568  20.033  0.00  0.00    +0.000 C 
ATOM     36  C   UNL     1       1.162  16.546  19.029  0.00  0.00    +0.000 C 
ATOM     37  C   UNL     1      -0.264  16.947  19.405  0.00  0.00    +0.000 C 
ATOM     38  C   UNL     1      -0.969  17.629  18.232  0.00  0.00    +0.000 C 
ATOM     39  F   UNL     1      -0.178  17.864  20.418  0.00  0.00    +0.000 F 
ATOM     40  C   UNL     1      -1.104  15.776  19.910  0.00  0.00    +0.000 C 
ATOM     41  C   UNL     1      -0.331  14.889  20.881  0.00  0.00    +0.000 C 
ENDBRANCH  33  34
ENDBRANCH   1  33
TORSDOF 7
ENDMDL
MODEL 5
REMARK VINA RESULT:      -8.8      1.742      2.574
REMARK  Name = 
REMARK  10 active torsions:
REMARK  status: ('A' for Active; 'I' for Inactive)
REMARK    1  A    between atoms: C_1  and  C_2
REMARK    2  A    between atoms: C_2  and  C_3
REMARK    3  A    between atoms: C_2  and  N_34
REMARK    4  A    between atoms: C_7  and  C_8
REMARK    5  A    between atoms: N_14  and  C_15
REMARK    6  A    between atoms: C_19  and  C_20
REMARK    7  A    between atoms: C_20  and  C_21
REMARK    8  A    between atoms: C_21  and  C_22
REMARK    9  A    between atoms: N_26  and  C_27
REMARK   10  A    between atoms: C_37  and  C_38
REMARK                            x       y       z     vdW  Elec       q    Type
REMARK                         _______ _______ _______ _____ _____    ______ ____
ROOT
ATOM      1  C   UNL     1       0.452  11.759  19.701  0.00  0.00    +0.000 A 
ATOM      2  C   UNL     1       0.979  10.845  18.790  0.00  0.00    +0.000 A 
ATOM      3  C   UNL     1       1.279   9.577  19.230  0.00  0.00    +0.000 A 
ATOM      4  C   UNL     1       0.990   9.104  20.499  0.00  0.00    +0.000 A 
ATOM      5  C   UNL     1       0.375   9.956  21.413  0.00  0.00    +0.000 A 
ATOM      6  C   UNL     1       0.152  11.306  21.009  0.00  0.00    +0.000 A 
ATOM      7  C   UNL     1       1.486   7.689  20.609  0.00  0.00    +0.000 C 
ATOM      8  N   UNL     1       2.139   7.461  19.318  0.00  0.00    +0.000 N 
ATOM      9  C   UNL     1       2.022   8.573  18.489  0.00  0.00    +0.000 C 
ATOM     10  O   UNL     1       2.450   8.810  17.376  0.00  0.00    +0.000 OA
ENDROOT
BRANCH   8  11
ATOM     11  C   UNL     1       2.765   6.241  18.950  0.00  0.00    +0.000 A 
ATOM     12  C   UNL     1       2.608   5.088  19.732  0.00  0.00    +0.000 A 
ATOM     13  C   UNL     1       3.253   3.899  19.409  0.00  0.00    +0.000 A 
ATOM     14  C   UNL     1       4.083   3.849  18.301  0.00  0.00    +0.000 A 
ATOM     15  C   UNL     1       4.294   4.975  17.480  0.00  0.00    +0.000 A 
ATOM     16  C   UNL     1       3.587   6.155  17.819  0.00  0.00    +0.000 A 
BRANCH  15  17
ATOM     17  C   UNL     1       5.338   4.922  16.272  0.00  0.00    +0.000 C 
ATOM     18  C   UNL     1       4.900   4.275  14.927  0.00  0.00    +0.000 C 
ATOM     19  O   UNL     1       5.443   5.405  14.184  0.00  0.00    +0.000 OA
ATOM     20  C   UNL     1       5.372   6.207  15.389  0.00  0.00    +0.000 C 
BRANCH  17  21
ATOM     21  C   UNL     1       6.745   4.511  16.740  0.00  0.00    +0.000 C 
BRANCH  21  22
ATOM     22  C   UNL     1       7.150   5.130  18.037  0.00  0.00    +0.000 A 
ATOM     23  N   UNL     1       7.196   4.519  19.205  0.00  0.00    +0.000 NA
ATOM     24  N   UNL     1       7.672   5.406  20.140  0.00  0.00    +0.000 NA
ATOM     25  C   UNL     1       7.906   6.541  19.527  0.00  0.00    +0.000 A 
ATOM     26  N   UNL     1       7.581   6.422  18.210  0.00  0.00    +0.000 N 
ATOM     27  C   UNL     1       7.700   7.464  17.227  0.00  0.00    +0.000 C 
ENDBRANCH  21  22
ENDBRANCH  17  21
ENDBRANCH  15  17
ENDBRANCH   8  11
BRANCH   5  28
ATOM     28  C   UNL     1      -0.031   9.494  22.790  0.00  0.00    +0.000 C 
ATOM     29  F   UNL     1      -0.811   8.379  22.776  0.00  0.00    +0.000 F 
ATOM     30  F   UNL     1       1.032   9.195  23.581  0.00  0.00    +0.000 F 
ATOM     31  F   UNL     1      -0.750  10.436  23.463  0.00  0.00    +0.000 F 
ENDBRANCH   5  28
BRANCH   1  33
ATOM     32  C   UNL     1      -0.530  13.275  18.027  0.00  0.00    +0.000 C 
ATOM     33  C   UNL     1       0.415  13.223  19.245  0.00  0.00    +0.000 C 
BRANCH  33  34
ATOM     34  N   UNL     1       1.700  13.894  18.952  0.00  0.00    +0.000 NA
ATOM     35  C   UNL     1       1.525  15.347  18.706  0.00  0.00    +0.000 C 
ATOM     36  C   UNL     1       1.199  16.178  19.956  0.00  0.00    +0.000 C 
ATOM     37  C   UNL     1       2.156  15.905  21.117  0.00  0.00    +0.000 C 
ATOM     38  C   UNL     1       1.608  16.474  22.425  0.00  0.00    +0.000 C 
ATOM     39  F   UNL     1       3.325  16.563  20.845  0.00  0.00    +0.000 F 
ATOM     40  C   UNL     1       2.486  14.424  21.288  0.00  0.00    +0.000 C 
ATOM     41  C   UNL     1       2.765  13.738  19.954  0.00  0.00    +0.000 C 
ENDBRANCH  33  34
ENDBRANCH   1  33
TORSDOF 7
ENDMDL
MODEL 6
REMARK VINA RESULT:      -8.7      1.473      1.809
REMARK  Name = 
REMARK  10 active torsions:
REMARK  status: ('A' for Active; 'I' for Inactive)
REMARK    1  A    between atoms: C_1  and  C_2
REMARK    2  A    between atoms: C_2  and  C_3
REMARK    3  A    between atoms: C_2  and  N_34
REMARK    4  A    between atoms: C_7  and  C_8
REMARK    5  A    between atoms: N_14  and  C_15
REMARK    6  A    between atoms: C_19  and  C_20
REMARK    7  A    between atoms: C_20  and  C_21
REMARK    8  A    between atoms: C_21  and  C_22
REMARK    9  A    between atoms: N_26  and  C_27
REMARK   10  A    between atoms: C_37  and  C_38
REMARK                            x       y       z     vdW  Elec       q    Type
REMARK                         _______ _______ _______ _____ _____    ______ ____
ROOT
ATOM      1  C   UNL     1       0.458  12.176  20.198  0.00  0.00    +0.000 A 
ATOM      2  C   UNL     1       0.910  11.412  19.122  0.00  0.00    +0.000 A 
ATOM      3  C   UNL     1       1.161  10.076  19.325  0.00  0.00    +0.000 A 
ATOM      4  C   UNL     1       0.890   9.402  20.505  0.00  0.00    +0.000 A 
ATOM      5  C   UNL     1       0.347  10.108  21.576  0.00  0.00    +0.000 A 
ATOM      6  C   UNL     1       0.178  11.516  21.419  0.00  0.00    +0.000 A 
ATOM      7  C   UNL     1       1.319   7.970  20.349  0.00  0.00    +0.000 C 
ATOM      8  N   UNL     1       1.918   7.941  19.013  0.00  0.00    +0.000 N 
ATOM      9  C   UNL     1       1.829   9.185  18.394  0.00  0.00    +0.000 C 
ATOM     10  O   UNL     1       2.232   9.593  17.322  0.00  0.00    +0.000 OA
ENDROOT
BRANCH   8  11
ATOM     11  C   UNL     1       2.472   6.779  18.416  0.00  0.00    +0.000 A 
ATOM     12  C   UNL     1       1.733   5.590  18.338  0.00  0.00    +0.000 A 
ATOM     13  C   UNL     1       2.279   4.430  17.798  0.00  0.00    +0.000 A 
ATOM     14  C   UNL     1       3.586   4.438  17.339  0.00  0.00    +0.000 A 
ATOM     15  C   UNL     1       4.387   5.596  17.400  0.00  0.00    +0.000 A 
ATOM     16  C   UNL     1       3.781   6.766  17.919  0.00  0.00    +0.000 A 
BRANCH  15  17
ATOM     17  C   UNL     1       5.923   5.551  16.964  0.00  0.00    +0.000 C 
ATOM     18  C   UNL     1       6.623   6.873  16.533  0.00  0.00    +0.000 C 
ATOM     19  O   UNL     1       7.767   6.565  17.380  0.00  0.00    +0.000 OA
ATOM     20  C   UNL     1       6.935   5.659  18.145  0.00  0.00    +0.000 C 
BRANCH  17  21
ATOM     21  C   UNL     1       6.232   4.350  16.052  0.00  0.00    +0.000 C 
BRANCH  21  22
ATOM     22  C   UNL     1       6.882   4.728  14.763  0.00  0.00    +0.000 A 
ATOM     23  N   UNL     1       8.004   5.410  14.633  0.00  0.00    +0.000 NA
ATOM     24  N   UNL     1       8.303   5.502  13.295  0.00  0.00    +0.000 NA
ATOM     25  C   UNL     1       7.359   4.877  12.634  0.00  0.00    +0.000 A 
ATOM     26  N   UNL     1       6.439   4.387  13.509  0.00  0.00    +0.000 N 
ATOM     27  C   UNL     1       5.259   3.648  13.149  0.00  0.00    +0.000 C 
ENDBRANCH  21  22
ENDBRANCH  17  21
ENDBRANCH  15  17
ENDBRANCH   8  11
BRANCH   5  28
ATOM     28  C   UNL     1      -0.037   9.432  22.868  0.00  0.00    +0.000 C 
ATOM     29  F   UNL     1      -0.819  10.206  23.669  0.00  0.00    +0.000 F 
ATOM     30  F   UNL     1      -0.729   8.279  22.674  0.00  0.00    +0.000 F 
ATOM     31  F   UNL     1       1.047   9.100  23.623  0.00  0.00    +0.000 F 
ENDBRANCH   5  28
BRANCH   1  33
ATOM     32  C   UNL     1      -0.940  14.199  20.344  0.00  0.00    +0.000 C 
ATOM     33  C   UNL     1       0.478  13.697  20.002  0.00  0.00    +0.000 C 
BRANCH  33  34
ATOM     34  N   UNL     1       0.931  14.226  18.697  0.00  0.00    +0.000 NA
ATOM     35  C   UNL     1       0.482  15.623  18.478  0.00  0.00    +0.000 C 
ATOM     36  C   UNL     1       1.207  16.675  19.330  0.00  0.00    +0.000 C 
ATOM     37  C   UNL     1       2.729  16.546  19.264  0.00  0.00    +0.000 C 
ATOM     38  C   UNL     1       3.397  17.365  20.368  0.00  0.00    +0.000 C 
ATOM     39  F   UNL     1       3.132  17.073  18.066  0.00  0.00    +0.000 F 
ATOM     40  C   UNL     1       3.212  15.099  19.320  0.00  0.00    +0.000 C 
ATOM     41  C   UNL     1       2.377  14.178  18.436  0.00  0.00    +0.000 C 
ENDBRANCH  33  34
ENDBRANCH   1  33
TORSDOF 7
ENDMDL
MODEL 7
REMARK VINA RESULT:      -8.6      3.360      9.564
REMARK  Name = 
REMARK  10 active torsions:
REMARK  status: ('A' for Active; 'I' for Inactive)
REMARK    1  A    between atoms: C_1  and  C_2
REMARK    2  A    between atoms: C_2  and  C_3
REMARK    3  A    between atoms: C_2  and  N_34
REMARK    4  A    between atoms: C_7  and  C_8
REMARK    5  A    between atoms: N_14  and  C_15
REMARK    6  A    between atoms: C_19  and  C_20
REMARK    7  A    between atoms: C_20  and  C_21
REMARK    8  A    between atoms: C_21  and  C_22
REMARK    9  A    between atoms: N_26  and  C_27
REMARK   10  A    between atoms: C_37  and  C_38
REMARK                            x       y       z     vdW  Elec       q    Type
REMARK                         _______ _______ _______ _____ _____    ______ ____
ROOT
ATOM      1  C   UNL     1       3.713   5.041  18.131  0.00  0.00    +0.000 A 
ATOM      2  C   UNL     1       3.409   6.394  18.274  0.00  0.00    +0.000 A 
ATOM      3  C   UNL     1       2.556   6.773  19.283  0.00  0.00    +0.000 A 
ATOM      4  C   UNL     1       2.058   5.912  20.247  0.00  0.00    +0.000 A 
ATOM      5  C   UNL     1       2.414   4.566  20.199  0.00  0.00    +0.000 A 
ATOM      6  C   UNL     1       3.213   4.135  19.098  0.00  0.00    +0.000 A 
ATOM      7  C   UNL     1       1.149   6.687  21.160  0.00  0.00    +0.000 C 
ATOM      8  N   UNL     1       1.133   8.025  20.563  0.00  0.00    +0.000 N 
ATOM      9  C   UNL     1       1.966   8.089  19.449  0.00  0.00    +0.000 C 
ATOM     10  O   UNL     1       2.202   8.982  18.658  0.00  0.00    +0.000 OA
ENDROOT
BRANCH   8  11
ATOM     11  C   UNL     1       0.399   9.119  21.088  0.00  0.00    +0.000 A 
ATOM     12  C   UNL     1       0.061   9.172  22.448  0.00  0.00    +0.000 A 
ATOM     13  C   UNL     1      -0.698  10.215  22.967  0.00  0.00    +0.000 A 
ATOM     14  C   UNL     1      -1.146  11.221  22.126  0.00  0.00    +0.000 A 
ATOM     15  C   UNL     1      -0.851  11.222  20.748  0.00  0.00    +0.000 A 
ATOM     16  C   UNL     1      -0.043  10.164  20.266  0.00  0.00    +0.000 A 
BRANCH  15  17
ATOM     17  C   UNL     1      -1.469  12.334  19.781  0.00  0.00    +0.000 C 
ATOM     18  C   UNL     1      -1.302  13.835  20.156  0.00  0.00    +0.000 C 
ATOM     19  O   UNL     1      -0.882  14.147  18.797  0.00  0.00    +0.000 OA
ATOM     20  C   UNL     1      -0.540  12.753  18.601  0.00  0.00    +0.000 C 
BRANCH  17  21
ATOM     21  C   UNL     1      -2.880  11.960  19.295  0.00  0.00    +0.000 C 
BRANCH  21  22
ATOM     22  C   UNL     1      -2.905  11.373  17.922  0.00  0.00    +0.000 A 
ATOM     23  N   UNL     1      -1.951  10.645  17.374  0.00  0.00    +0.000 NA
ATOM     24  N   UNL     1      -2.372  10.244  16.130  0.00  0.00    +0.000 NA
ATOM     25  C   UNL     1      -3.573  10.735  15.940  0.00  0.00    +0.000 A 
ATOM     26  N   UNL     1      -3.944  11.461  17.030  0.00  0.00    +0.000 N 
ATOM     27  C   UNL     1      -5.196  12.153  17.181  0.00  0.00    +0.000 C 
ENDBRANCH  21  22
ENDBRANCH  17  21
ENDBRANCH  15  17
ENDBRANCH   8  11
BRANCH   5  28
ATOM     28  C   UNL     1       1.967   3.582  21.250  0.00  0.00    +0.000 C 
ATOM     29  F   UNL     1       2.300   3.957  22.516  0.00  0.00    +0.000 F 
ATOM     30  F   UNL     1       0.621   3.395  21.259  0.00  0.00    +0.000 F 
ATOM     31  F   UNL     1       2.519   2.349  21.076  0.00  0.00    +0.000 F 
ENDBRANCH   5  28
BRANCH   1  33
ATOM     32  C   UNL     1       4.721   3.132  16.945  0.00  0.00    +0.000 C 
ATOM     33  C   UNL     1       4.418   4.640  16.829  0.00  0.00    +0.000 C 
BRANCH  33  34
ATOM     34  N   UNL     1       5.624   5.397  16.428  0.00  0.00    +0.000 NA
ATOM     35  C   UNL     1       6.800   4.511  16.244  0.00  0.00    +0.000 C 
ATOM     36  C   UNL     1       6.751   3.625  14.990  0.00  0.00    +0.000 C 
ATOM     37  C   UNL     1       6.422   4.411  13.721  0.00  0.00    +0.000 C 
ATOM     38  C   UNL     1       6.046   3.471  12.576  0.00  0.00    +0.000 C 
ATOM     39  F   UNL     1       7.558   5.076  13.346  0.00  0.00    +0.000 F 
ATOM     40  C   UNL     1       5.323   5.452  13.926  0.00  0.00    +0.000 C 
ATOM     41  C   UNL     1       5.503   6.232  15.224  0.00  0.00    +0.000 C 
ENDBRANCH  33  34
ENDBRANCH   1  33
TORSDOF 7
ENDMDL
MODEL 8
REMARK VINA RESULT:      -8.2      3.139      9.023
REMARK  Name = 
REMARK  10 active torsions:
REMARK  status: ('A' for Active; 'I' for Inactive)
REMARK    1  A    between atoms: C_1  and  C_2
REMARK    2  A    between atoms: C_2  and  C_3
REMARK    3  A    between atoms: C_2  and  N_34
REMARK    4  A    between atoms: C_7  and  C_8
REMARK    5  A    between atoms: N_14  and  C_15
REMARK    6  A    between atoms: C_19  and  C_20
REMARK    7  A    between atoms: C_20  and  C_21
REMARK    8  A    between atoms: C_21  and  C_22
REMARK    9  A    between atoms: N_26  and  C_27
REMARK   10  A    between atoms: C_37  and  C_38
REMARK                            x       y       z     vdW  Elec       q    Type
REMARK                         _______ _______ _______ _____ _____    ______ ____
ROOT
ATOM      1  C   UNL     1       3.640   4.706  18.080  0.00  0.00    +0.000 A 
ATOM      2  C   UNL     1       3.353   6.068  18.152  0.00  0.00    +0.000 A 
ATOM      3  C   UNL     1       2.582   6.523  19.195  0.00  0.00    +0.000 A 
ATOM      4  C   UNL     1       2.156   5.736  20.252  0.00  0.00    +0.000 A 
ATOM      5  C   UNL     1       2.502   4.386  20.269  0.00  0.00    +0.000 A 
ATOM      6  C   UNL     1       3.212   3.872  19.143  0.00  0.00    +0.000 A 
ATOM      7  C   UNL     1       1.324   6.580  21.176  0.00  0.00    +0.000 C 
ATOM      8  N   UNL     1       1.268   7.873  20.491  0.00  0.00    +0.000 N 
ATOM      9  C   UNL     1       2.013   7.853  19.315  0.00  0.00    +0.000 C 
ATOM     10  O   UNL     1       2.190   8.687  18.448  0.00  0.00    +0.000 OA
ENDROOT
BRANCH   8  11
ATOM     11  C   UNL     1       0.582   9.008  20.994  0.00  0.00    +0.000 A 
ATOM     12  C   UNL     1       0.332   9.147  22.367  0.00  0.00    +0.000 A 
ATOM     13  C   UNL     1      -0.380  10.231  22.869  0.00  0.00    +0.000 A 
ATOM     14  C   UNL     1      -0.870  11.191  21.999  0.00  0.00    +0.000 A 
ATOM     15  C   UNL     1      -0.665  11.105  20.607  0.00  0.00    +0.000 A 
ATOM     16  C   UNL     1       0.099  10.008  20.140  0.00  0.00    +0.000 A 
BRANCH  15  17
ATOM     17  C   UNL     1      -1.331  12.166  19.615  0.00  0.00    +0.000 C 
ATOM     18  C   UNL     1      -1.146  13.684  19.902  0.00  0.00    +0.000 C 
ATOM     19  O   UNL     1      -0.796  13.925  18.509  0.00  0.00    +0.000 OA
ATOM     20  C   UNL     1      -0.463  12.521  18.370  0.00  0.00    +0.000 C 
BRANCH  17  21
ATOM     21  C   UNL     1      -2.765  11.770  19.221  0.00  0.00    +0.000 C 
BRANCH  21  22
ATOM     22  C   UNL     1      -2.867  11.168  17.859  0.00  0.00    +0.000 A 
ATOM     23  N   UNL     1      -2.000  10.335  17.314  0.00  0.00    +0.000 NA
ATOM     24  N   UNL     1      -2.475   9.961  16.080  0.00  0.00    +0.000 NA
ATOM     25  C   UNL     1      -3.620  10.571  15.894  0.00  0.00    +0.000 A 
ATOM     26  N   UNL     1      -3.901  11.349  16.975  0.00  0.00    +0.000 N 
ATOM     27  C   UNL     1      -5.072  12.170  17.127  0.00  0.00    +0.000 C 
ENDBRANCH  21  22
ENDBRANCH  17  21
ENDBRANCH  15  17
ENDBRANCH   8  11
BRANCH   5  28
ATOM     28  C   UNL     1       2.133   3.480  21.417  0.00  0.00    +0.000 C 
ATOM     29  F   UNL     1       2.436   4.004  22.636  0.00  0.00    +0.000 F 
ATOM     30  F   UNL     1       0.806   3.191  21.455  0.00  0.00    +0.000 F 
ATOM     31  F   UNL     1       2.780   2.282  21.362  0.00  0.00    +0.000 F 
ENDBRANCH   5  28
BRANCH   1  33
ATOM     32  C   UNL     1       3.551   2.866  16.445  0.00  0.00    +0.000 C 
ATOM     33  C   UNL     1       4.240   4.210  16.758  0.00  0.00    +0.000 C 
BRANCH  33  34
ATOM     34  N   UNL     1       5.711   4.090  16.663  0.00  0.00    +0.000 NA
ATOM     35  C   UNL     1       6.268   4.934  15.578  0.00  0.00    +0.000 C 
ATOM     36  C   UNL     1       6.255   6.444  15.863  0.00  0.00    +0.000 C 
ATOM     37  C   UNL     1       6.853   6.795  17.225  0.00  0.00    +0.000 C 
ATOM     38  C   UNL     1       6.515   8.234  17.618  0.00  0.00    +0.000 C 
ATOM     39  F   UNL     1       8.214   6.714  17.108  0.00  0.00    +0.000 F 
ATOM     40  C   UNL     1       6.425   5.836  18.335  0.00  0.00    +0.000 C 
ATOM     41  C   UNL     1       6.473   4.379  17.886  0.00  0.00    +0.000 C 
ENDBRANCH  33  34
ENDBRANCH   1  33
TORSDOF 7
ENDMDL
MODEL 9
REMARK VINA RESULT:      -8.2      4.008      5.516
REMARK  Name = 
REMARK  10 active torsions:
REMARK  status: ('A' for Active; 'I' for Inactive)
REMARK    1  A    between atoms: C_1  and  C_2
REMARK    2  A    between atoms: C_2  and  C_3
REMARK    3  A    between atoms: C_2  and  N_34
REMARK    4  A    between atoms: C_7  and  C_8
REMARK    5  A    between atoms: N_14  and  C_15
REMARK    6  A    between atoms: C_19  and  C_20
REMARK    7  A    between atoms: C_20  and  C_21
REMARK    8  A    between atoms: C_21  and  C_22
REMARK    9  A    between atoms: N_26  and  C_27
REMARK   10  A    between atoms: C_37  and  C_38
REMARK                            x       y       z     vdW  Elec       q    Type
REMARK                         _______ _______ _______ _____ _____    ______ ____
ROOT
ATOM      1  C   UNL     1      -2.295  13.122  21.155  0.00  0.00    +0.000 A 
ATOM      2  C   UNL     1      -1.009  12.585  21.193  0.00  0.00    +0.000 A 
ATOM      3  C   UNL     1      -0.676  11.613  20.279  0.00  0.00    +0.000 A 
ATOM      4  C   UNL     1      -1.498  11.203  19.242  0.00  0.00    +0.000 A 
ATOM      5  C   UNL     1      -2.757  11.784  19.109  0.00  0.00    +0.000 A 
ATOM      6  C   UNL     1      -3.162  12.718  20.110  0.00  0.00    +0.000 A 
ATOM      7  C   UNL     1      -0.798  10.117  18.475  0.00  0.00    +0.000 C 
ATOM      8  N   UNL     1       0.440   9.916  19.231  0.00  0.00    +0.000 N 
ATOM      9  C   UNL     1       0.526  10.799  20.303  0.00  0.00    +0.000 C 
ATOM     10  O   UNL     1       1.352  10.934  21.185  0.00  0.00    +0.000 OA
ENDROOT
BRANCH   8  11
ATOM     11  C   UNL     1       1.441   8.973  18.878  0.00  0.00    +0.000 A 
ATOM     12  C   UNL     1       2.313   9.217  17.807  0.00  0.00    +0.000 A 
ATOM     13  C   UNL     1       3.267   8.281  17.421  0.00  0.00    +0.000 A 
ATOM     14  C   UNL     1       3.354   7.074  18.095  0.00  0.00    +0.000 A 
ATOM     15  C   UNL     1       2.500   6.762  19.171  0.00  0.00    +0.000 A 
ATOM     16  C   UNL     1       1.570   7.756  19.559  0.00  0.00    +0.000 A 
BRANCH  15  17
ATOM     17  C   UNL     1       2.549   5.322  19.862  0.00  0.00    +0.000 C 
ATOM     18  C   UNL     1       1.864   5.126  21.245  0.00  0.00    +0.000 C 
ATOM     19  O   UNL     1       1.222   3.906  20.777  0.00  0.00    +0.000 OA
ATOM     20  C   UNL     1       1.417   4.349  19.411  0.00  0.00    +0.000 C 
BRANCH  17  21
ATOM     21  C   UNL     1       3.940   4.673  19.751  0.00  0.00    +0.000 C 
BRANCH  21  22
ATOM     22  C   UNL     1       3.925   3.333  19.092  0.00  0.00    +0.000 A 
ATOM     23  N   UNL     1       3.795   2.172  19.703  0.00  0.00    +0.000 NA
ATOM     24  N   UNL     1       3.769   1.181  18.751  0.00  0.00    +0.000 NA
ATOM     25  C   UNL     1       3.885   1.755  17.578  0.00  0.00    +0.000 A 
ATOM     26  N   UNL     1       3.999   3.102  17.741  0.00  0.00    +0.000 N 
ATOM     27  C   UNL     1       4.149   4.058  16.677  0.00  0.00    +0.000 C 
ENDBRANCH  21  22
ENDBRANCH  17  21
ENDBRANCH  15  17
ENDBRANCH   8  11
BRANCH   5  28
ATOM     28  C   UNL     1      -3.682  11.439  17.969  0.00  0.00    +0.000 C 
ATOM     29  F   UNL     1      -4.087  10.140  17.977  0.00  0.00    +0.000 F 
ATOM     30  F   UNL     1      -4.818  12.184  17.968  0.00  0.00    +0.000 F 
ATOM     31  F   UNL     1      -3.100  11.634  16.752  0.00  0.00    +0.000 F 
ENDBRANCH   5  28
BRANCH   1  33
ATOM     32  C   UNL     1      -1.517  13.944  23.342  0.00  0.00    +0.000 C 
ATOM     33  C   UNL     1      -2.709  13.972  22.364  0.00  0.00    +0.000 C 
BRANCH  33  34
ATOM     34  N   UNL     1      -3.973  13.634  23.053  0.00  0.00    +0.000 NA
ATOM     35  C   UNL     1      -4.007  14.160  24.440  0.00  0.00    +0.000 C 
ATOM     36  C   UNL     1      -4.176  15.683  24.548  0.00  0.00    +0.000 C 
ATOM     37  C   UNL     1      -5.336  16.213  23.705  0.00  0.00    +0.000 C 
ATOM     38  C   UNL     1      -5.261  17.733  23.563  0.00  0.00    +0.000 C 
ATOM     39  F   UNL     1      -6.494  15.923  24.376  0.00  0.00    +0.000 F 
ATOM     40  C   UNL     1      -5.424  15.563  22.326  0.00  0.00    +0.000 C 
ATOM     41  C   UNL     1      -5.215  14.053  22.388  0.00  0.00    +0.000 C 
ENDBRANCH  33  34
ENDBRANCH   1  33
TORSDOF 7
ENDMDL
