MODEL 1
REMARK VINA RESULT:     -10.5      0.000      0.000
REMARK  Name = 
REMARK  10 active torsions:
REMARK  status: ('A' for Active; 'I' for Inactive)
REMARK    1  A    between atoms: C_1  and  C_2
REMARK    2  A    between atoms: N_4  and  C_5
REMARK    3  A    between atoms: C_5  and  C_6
REMARK    4  A    between atoms: C_10  and  C_11
REMARK    5  A    between atoms: N_17  and  C_18
REMARK    6  A    between atoms: C_22  and  C_23
REMARK    7  A    between atoms: C_23  and  C_24
REMARK    8  A    between atoms: C_24  and  C_25
REMARK    9  A    between atoms: N_29  and  C_30
REMARK   10  A    between atoms: C_38  and  C_39
REMARK                            x       y       z     vdW  Elec       q    Type
REMARK                         _______ _______ _______ _____ _____    ______ ____
ROOT
ATOM      1  C   UNL     1      -0.456  11.254  19.269  0.00  0.00    +0.000 A 
ATOM      2  C   UNL     1       0.487  10.516  18.546  0.00  0.00    +0.000 A 
ATOM      3  C   UNL     1       1.097   9.459  19.186  0.00  0.00    +0.000 A 
ATOM      4  C   UNL     1       0.833   9.112  20.506  0.00  0.00    +0.000 A 
ATOM      5  C   UNL     1      -0.041   9.875  21.275  0.00  0.00    +0.000 A 
ATOM      6  C   UNL     1      -0.701  10.944  20.629  0.00  0.00    +0.000 A 
ATOM      7  C   UNL     1       1.579   7.855  20.833  0.00  0.00    +0.000 C 
ATOM      8  N   UNL     1       2.283   7.545  19.593  0.00  0.00    +0.000 N 
ATOM      9  C   UNL     1       2.037   8.499  18.609  0.00  0.00    +0.000 C 
ATOM     10  O   UNL     1       2.432   8.596  17.461  0.00  0.00    +0.000 OA
ENDROOT
BRANCH   8  11
ATOM     11  C   UNL     1       3.074   6.382  19.438  0.00  0.00    +0.000 A 
ATOM     12  C   UNL     1       2.613   5.124  19.832  0.00  0.00    +0.000 A 
ATOM     13  C   UNL     1       3.404   3.991  19.662  0.00  0.00    +0.000 A 
ATOM     14  C   UNL     1       4.692   4.113  19.147  0.00  0.00    +0.000 A 
ATOM     15  C   UNL     1       5.230   5.363  18.795  0.00  0.00    +0.000 A 
ATOM     16  C   UNL     1       4.368   6.473  18.905  0.00  0.00    +0.000 A 
BRANCH  15  17
ATOM     17  C   UNL     1       6.760   5.539  18.364  0.00  0.00    +0.000 C 
ATOM     18  C   UNL     1       7.251   6.940  17.888  0.00  0.00    +0.000 C 
ATOM     19  O   UNL     1       8.420   6.845  18.750  0.00  0.00    +0.000 OA
ATOM     20  C   UNL     1       7.736   5.842  19.540  0.00  0.00    +0.000 C 
BRANCH  17  21
ATOM     21  C   UNL     1       7.243   4.387  17.467  0.00  0.00    +0.000 C 
BRANCH  21  22
ATOM     22  C   UNL     1       6.913   4.581  16.023  0.00  0.00    +0.000 A 
ATOM     23  N   UNL     1       7.649   5.229  15.140  0.00  0.00    +0.000 NA
ATOM     24  N   UNL     1       7.029   5.149  13.916  0.00  0.00    +0.000 NA
ATOM     25  C   UNL     1       5.930   4.454  14.073  0.00  0.00    +0.000 A 
ATOM     26  N   UNL     1       5.803   4.097  15.381  0.00  0.00    +0.000 N 
ATOM     27  C   UNL     1       4.706   3.347  15.933  0.00  0.00    +0.000 C 
ENDBRANCH  21  22
ENDBRANCH  17  21
ENDBRANCH  15  17
ENDBRANCH   8  11
BRANCH   5  28
ATOM     28  C   UNL     1      -0.296   9.583  22.733  0.00  0.00    +0.000 C 
ATOM     29  F   UNL     1      -1.028  10.547  23.361  0.00  0.00    +0.000 F 
ATOM     30  F   UNL     1      -0.985   8.424  22.913  0.00  0.00    +0.000 F 
ATOM     31  F   UNL     1       0.851   9.462  23.453  0.00  0.00    +0.000 F 
ENDBRANCH   5  28
BRANCH   1  32
ATOM     32  C   UNL     1      -1.227  12.339  18.549  0.00  0.00    +0.000 C 
BRANCH  32  36
ATOM     33  C   UNL     1      -3.381  10.658  15.012  0.00  0.00    +0.000 C 
ATOM     34  C   UNL     1      -3.281   9.979  16.375  0.00  0.00    +0.000 C 
ATOM     35  C   UNL     1      -2.089  10.494  17.207  0.00  0.00    +0.000 C 
ATOM     36  N   UNL     1      -2.352  11.842  17.749  0.00  0.00    +0.000 NA
ATOM     37  C   UNL     1      -3.547  11.730  18.612  0.00  0.00    +0.000 C 
ATOM     38  C   UNL     1      -4.782  11.208  17.852  0.00  0.00    +0.000 C 
ATOM     39  C   UNL     1      -5.457  12.287  17.014  0.00  0.00    +0.000 C 
ATOM     40  O   UNL     1      -4.521  10.015  17.096  0.00  0.00    +0.000 OA
ENDBRANCH  32  36
ENDBRANCH   1  32
TORSDOF 7
ENDMDL
MODEL 2
REMARK VINA RESULT:      -9.8      1.027      1.785
REMARK  Name = 
REMARK  10 active torsions:
REMARK  status: ('A' for Active; 'I' for Inactive)
REMARK    1  A    between atoms: C_1  and  C_2
REMARK    2  A    between atoms: N_4  and  C_5
REMARK    3  A    between atoms: C_5  and  C_6
REMARK    4  A    between atoms: C_10  and  C_11
REMARK    5  A    between atoms: N_17  and  C_18
REMARK    6  A    between atoms: C_22  and  C_23
REMARK    7  A    between atoms: C_23  and  C_24
REMARK    8  A    between atoms: C_24  and  C_25
REMARK    9  A    between atoms: N_29  and  C_30
REMARK   10  A    between atoms: C_38  and  C_39
REMARK                            x       y       z     vdW  Elec       q    Type
REMARK                         _______ _______ _______ _____ _____    ______ ____
ROOT
ATOM      1  C   UNL     1      -0.798  10.891  19.068  0.00  0.00    +0.000 A 
ATOM      2  C   UNL     1       0.151  10.157  18.348  0.00  0.00    +0.000 A 
ATOM      3  C   UNL     1       0.881   9.212  19.036  0.00  0.00    +0.000 A 
ATOM      4  C   UNL     1       0.732   8.975  20.397  0.00  0.00    +0.000 A 
ATOM      5  C   UNL     1      -0.147   9.744  21.155  0.00  0.00    +0.000 A 
ATOM      6  C   UNL     1      -0.929  10.696  20.464  0.00  0.00    +0.000 A 
ATOM      7  C   UNL     1       1.593   7.812  20.783  0.00  0.00    +0.000 C 
ATOM      8  N   UNL     1       2.237   7.435  19.528  0.00  0.00    +0.000 N 
ATOM      9  C   UNL     1       1.854   8.270  18.482  0.00  0.00    +0.000 C 
ATOM     10  O   UNL     1       2.164   8.285  17.304  0.00  0.00    +0.000 OA
ENDROOT
BRANCH   8  11
ATOM     11  C   UNL     1       3.104   6.322  19.422  0.00  0.00    +0.000 A 
ATOM     12  C   UNL     1       2.743   5.064  19.907  0.00  0.00    +0.000 A 
ATOM     13  C   UNL     1       3.608   3.979  19.785  0.00  0.00    +0.000 A 
ATOM     14  C   UNL     1       4.870   4.156  19.226  0.00  0.00    +0.000 A 
ATOM     15  C   UNL     1       5.310   5.416  18.781  0.00  0.00    +0.000 A 
ATOM     16  C   UNL     1       4.374   6.468  18.846  0.00  0.00    +0.000 A 
BRANCH  15  17
ATOM     17  C   UNL     1       6.812   5.669  18.294  0.00  0.00    +0.000 C 
ATOM     18  C   UNL     1       7.200   7.078  17.752  0.00  0.00    +0.000 C 
ATOM     19  O   UNL     1       8.398   7.088  18.579  0.00  0.00    +0.000 OA
ATOM     20  C   UNL     1       7.801   6.075  19.426  0.00  0.00    +0.000 C 
BRANCH  17  21
ATOM     21  C   UNL     1       7.340   4.515  17.425  0.00  0.00    +0.000 C 
BRANCH  21  22
ATOM     22  C   UNL     1       6.964   4.639  15.984  0.00  0.00    +0.000 A 
ATOM     23  N   UNL     1       7.673   5.242  15.048  0.00  0.00    +0.000 NA
ATOM     24  N   UNL     1       7.016   5.104  13.849  0.00  0.00    +0.000 NA
ATOM     25  C   UNL     1       5.922   4.420  14.074  0.00  0.00    +0.000 A 
ATOM     26  N   UNL     1       5.835   4.126  15.400  0.00  0.00    +0.000 N 
ATOM     27  C   UNL     1       4.755   3.407  16.022  0.00  0.00    +0.000 C 
ENDBRANCH  21  22
ENDBRANCH  17  21
ENDBRANCH  15  17
ENDBRANCH   8  11
BRANCH   5  28
ATOM     28  C   UNL     1      -0.283   9.576  22.648  0.00  0.00    +0.000 C 
ATOM     29  F   UNL     1       0.911   9.452  23.293  0.00  0.00    +0.000 F 
ATOM     30  F   UNL     1      -0.906  10.636  23.231  0.00  0.00    +0.000 F 
ATOM     31  F   UNL     1      -1.004   8.475  22.989  0.00  0.00    +0.000 F 
ENDBRANCH   5  28
BRANCH   1  32
ATOM     32  C   UNL     1      -1.696  11.845  18.310  0.00  0.00    +0.000 C 
BRANCH  32  36
ATOM     33  C   UNL     1      -4.964  12.362  21.316  0.00  0.00    +0.000 C 
ATOM     34  C   UNL     1      -4.746  13.261  20.102  0.00  0.00    +0.000 C 
ATOM     35  C   UNL     1      -3.304  13.186  19.562  0.00  0.00    +0.000 C 
ATOM     36  N   UNL     1      -3.064  11.923  18.836  0.00  0.00    +0.000 NA
ATOM     37  C   UNL     1      -4.019  11.891  17.707  0.00  0.00    +0.000 C 
ATOM     38  C   UNL     1      -5.487  11.974  18.169  0.00  0.00    +0.000 C 
ATOM     39  C   UNL     1      -6.017  10.643  18.688  0.00  0.00    +0.000 C 
ATOM     40  O   UNL     1      -5.734  13.052  19.083  0.00  0.00    +0.000 OA
ENDBRANCH  32  36
ENDBRANCH   1  32
TORSDOF 7
ENDMDL
MODEL 3
REMARK VINA RESULT:      -9.7      2.710      4.019
REMARK  Name = 
REMARK  10 active torsions:
REMARK  status: ('A' for Active; 'I' for Inactive)
REMARK    1  A    between atoms: C_1  and  C_2
REMARK    2  A    between atoms: N_4  and  C_5
REMARK    3  A    between atoms: C_5  and  C_6
REMARK    4  A    between atoms: C_10  and  C_11
REMARK    5  A    between atoms: N_17  and  C_18
REMARK    6  A    between atoms: C_22  and  C_23
REMARK    7  A    between atoms: C_23  and  C_24
REMARK    8  A    between atoms: C_24  and  C_25
REMARK    9  A    between atoms: N_29  and  C_30
REMARK   10  A    between atoms: C_38  and  C_39
REMARK                            x       y       z     vdW  Elec       q    Type
REMARK                         _______ _______ _______ _____ _____    ______ ____
ROOT
ATOM      1  C   UNL     1       0.183  11.542  19.422  0.00  0.00    +0.000 A 
ATOM      2  C   UNL     1       1.010  10.737  18.632  0.00  0.00    +0.000 A 
ATOM      3  C   UNL     1       1.390   9.516  19.145  0.00  0.00    +0.000 A 
ATOM      4  C   UNL     1       1.008   9.065  20.403  0.00  0.00    +0.000 A 
ATOM      5  C   UNL     1       0.251   9.876  21.244  0.00  0.00    +0.000 A 
ATOM      6  C   UNL     1      -0.175  11.119  20.725  0.00  0.00    +0.000 A 
ATOM      7  C   UNL     1       1.500   7.662  20.583  0.00  0.00    +0.000 C 
ATOM      8  N   UNL     1       2.193   7.381  19.330  0.00  0.00    +0.000 N 
ATOM      9  C   UNL     1       2.168   8.476  18.471  0.00  0.00    +0.000 C 
ATOM     10  O   UNL     1       2.625   8.638  17.354  0.00  0.00    +0.000 OA
ENDROOT
BRANCH   8  11
ATOM     11  C   UNL     1       2.768   6.120  19.044  0.00  0.00    +0.000 A 
ATOM     12  C   UNL     1       2.521   5.003  19.845  0.00  0.00    +0.000 A 
ATOM     13  C   UNL     1       3.090   3.770  19.542  0.00  0.00    +0.000 A 
ATOM     14  C   UNL     1       3.962   3.652  18.463  0.00  0.00    +0.000 A 
ATOM     15  C   UNL     1       4.297   4.759  17.662  0.00  0.00    +0.000 A 
ATOM     16  C   UNL     1       3.635   5.969  17.953  0.00  0.00    +0.000 A 
BRANCH  15  17
ATOM     17  C   UNL     1       5.422   4.678  16.529  0.00  0.00    +0.000 C 
ATOM     18  C   UNL     1       5.227   3.683  15.345  0.00  0.00    +0.000 C 
ATOM     19  O   UNL     1       5.581   4.722  14.388  0.00  0.00    +0.000 OA
ATOM     20  C   UNL     1       5.268   5.725  15.385  0.00  0.00    +0.000 C 
BRANCH  17  21
ATOM     21  C   UNL     1       6.840   4.647  17.123  0.00  0.00    +0.000 C 
BRANCH  21  22
ATOM     22  C   UNL     1       7.372   6.003  17.459  0.00  0.00    +0.000 A 
ATOM     23  N   UNL     1       7.450   7.030  16.634  0.00  0.00    +0.000 NA
ATOM     24  N   UNL     1       7.952   8.106  17.326  0.00  0.00    +0.000 NA
ATOM     25  C   UNL     1       8.169   7.717  18.558  0.00  0.00    +0.000 A 
ATOM     26  N   UNL     1       7.843   6.401  18.683  0.00  0.00    +0.000 N 
ATOM     27  C   UNL     1       7.973   5.625  19.887  0.00  0.00    +0.000 C 
ENDBRANCH  21  22
ENDBRANCH  17  21
ENDBRANCH  15  17
ENDBRANCH   8  11
BRANCH   5  28
ATOM     28  C   UNL     1      -0.118   9.461  22.646  0.00  0.00    +0.000 C 
ATOM     29  F   UNL     1      -0.844   8.309  22.699  0.00  0.00    +0.000 F 
ATOM     30  F   UNL     1       0.977   9.242  23.423  0.00  0.00    +0.000 F 
ATOM     31  F   UNL     1      -0.863  10.398  23.292  0.00  0.00    +0.000 F 
ENDBRANCH   5  28
BRANCH   1  32
ATOM     32  C   UNL     1      -0.347  12.830  18.830  0.00  0.00    +0.000 C 
BRANCH  32  36
ATOM     33  C   UNL     1       2.688  15.698  20.426  0.00  0.00    +0.000 C 
ATOM     34  C   UNL     1       1.710  16.004  19.296  0.00  0.00    +0.000 C 
ATOM     35  C   UNL     1       1.171  14.728  18.617  0.00  0.00    +0.000 C 
ATOM     36  N   UNL     1       0.179  14.042  19.469  0.00  0.00    +0.000 NA
ATOM     37  C   UNL     1      -0.931  14.995  19.685  0.00  0.00    +0.000 C 
ATOM     38  C   UNL     1      -0.468  16.306  20.351  0.00  0.00    +0.000 C 
ATOM     39  C   UNL     1      -0.265  16.162  21.855  0.00  0.00    +0.000 C 
ATOM     40  O   UNL     1       0.667  16.901  19.703  0.00  0.00    +0.000 OA
ENDBRANCH  32  36
ENDBRANCH   1  32
TORSDOF 7
ENDMDL
MODEL 4
REMARK VINA RESULT:      -9.5      2.823      4.422
REMARK  Name = 
REMARK  10 active torsions:
REMARK  status: ('A' for Active; 'I' for Inactive)
REMARK    1  A    between atoms: C_1  and  C_2
REMARK    2  A    between atoms: N_4  and  C_5
REMARK    3  A    between atoms: C_5  and  C_6
REMARK    4  A    between atoms: C_10  and  C_11
REMARK    5  A    between atoms: N_17  and  C_18
REMARK    6  A    between atoms: C_22  and  C_23
REMARK    7  A    between atoms: C_23  and  C_24
REMARK    8  A    between atoms: C_24  and  C_25
REMARK    9  A    between atoms: N_29  and  C_30
REMARK   10  A    between atoms: C_38  and  C_39
REMARK                            x       y       z     vdW  Elec       q    Type
REMARK                         _______ _______ _______ _____ _____    ______ ____
ROOT
ATOM      1  C   UNL     1       0.684  11.594  19.232  0.00  0.00    +0.000 A 
ATOM      2  C   UNL     1       1.435  10.759  18.398  0.00  0.00    +0.000 A 
ATOM      3  C   UNL     1       1.706   9.485  18.849  0.00  0.00    +0.000 A 
ATOM      4  C   UNL     1       1.290   9.010  20.086  0.00  0.00    +0.000 A 
ATOM      5  C   UNL     1       0.610   9.843  20.970  0.00  0.00    +0.000 A 
ATOM      6  C   UNL     1       0.293  11.142  20.515  0.00  0.00    +0.000 A 
ATOM      7  C   UNL     1       1.657   7.562  20.196  0.00  0.00    +0.000 C 
ATOM      8  N   UNL     1       2.319   7.282  18.925  0.00  0.00    +0.000 N 
ATOM      9  C   UNL     1       2.388   8.415  18.120  0.00  0.00    +0.000 C 
ATOM     10  O   UNL     1       2.855   8.591  17.009  0.00  0.00    +0.000 OA
ENDROOT
BRANCH   8  11
ATOM     11  C   UNL     1       2.779   5.991  18.575  0.00  0.00    +0.000 A 
ATOM     12  C   UNL     1       2.280   4.842  19.192  0.00  0.00    +0.000 A 
ATOM     13  C   UNL     1       2.741   3.580  18.827  0.00  0.00    +0.000 A 
ATOM     14  C   UNL     1       3.752   3.456  17.878  0.00  0.00    +0.000 A 
ATOM     15  C   UNL     1       4.337   4.584  17.273  0.00  0.00    +0.000 A 
ATOM     16  C   UNL     1       3.784   5.836  17.609  0.00  0.00    +0.000 A 
BRANCH  15  17
ATOM     17  C   UNL     1       5.609   4.468  16.311  0.00  0.00    +0.000 C 
ATOM     18  C   UNL     1       5.595   3.405  15.171  0.00  0.00    +0.000 C 
ATOM     19  O   UNL     1       6.062   4.397  14.214  0.00  0.00    +0.000 OA
ATOM     20  C   UNL     1       5.597   5.446  15.099  0.00  0.00    +0.000 C 
BRANCH  17  21
ATOM     21  C   UNL     1       6.931   4.503  17.096  0.00  0.00    +0.000 C 
BRANCH  21  22
ATOM     22  C   UNL     1       7.399   5.888  17.407  0.00  0.00    +0.000 A 
ATOM     23  N   UNL     1       7.478   6.889  16.551  0.00  0.00    +0.000 NA
ATOM     24  N   UNL     1       7.909   8.006  17.228  0.00  0.00    +0.000 NA
ATOM     25  C   UNL     1       8.082   7.667  18.481  0.00  0.00    +0.000 A 
ATOM     26  N   UNL     1       7.797   6.344  18.637  0.00  0.00    +0.000 N 
ATOM     27  C   UNL     1       7.899   5.614  19.872  0.00  0.00    +0.000 C 
ENDBRANCH  21  22
ENDBRANCH  17  21
ENDBRANCH  15  17
ENDBRANCH   8  11
BRANCH   5  28
ATOM     28  C   UNL     1       0.209   9.394  22.354  0.00  0.00    +0.000 C 
ATOM     29  F   UNL     1      -0.669   8.351  22.355  0.00  0.00    +0.000 F 
ATOM     30  F   UNL     1       1.275   8.978  23.089  0.00  0.00    +0.000 F 
ATOM     31  F   UNL     1      -0.389  10.381  23.073  0.00  0.00    +0.000 F 
ENDBRANCH   5  28
BRANCH   1  32
ATOM     32  C   UNL     1       0.268  12.951  18.706  0.00  0.00    +0.000 C 
BRANCH  32  36
ATOM     33  C   UNL     1       2.191  16.340  20.897  0.00  0.00    +0.000 C 
ATOM     34  C   UNL     1       2.861  15.002  20.600  0.00  0.00    +0.000 C 
ATOM     35  C   UNL     1       1.843  13.878  20.322  0.00  0.00    +0.000 C 
ATOM     36  N   UNL     1       1.234  14.021  18.985  0.00  0.00    +0.000 NA
ATOM     37  C   UNL     1       2.336  13.944  18.003  0.00  0.00    +0.000 C 
ATOM     38  C   UNL     1       3.405  15.033  18.223  0.00  0.00    +0.000 C 
ATOM     39  C   UNL     1       2.982  16.393  17.681  0.00  0.00    +0.000 C 
ATOM     40  O   UNL     1       3.866  15.108  19.581  0.00  0.00    +0.000 OA
ENDBRANCH  32  36
ENDBRANCH   1  32
TORSDOF 7
ENDMDL
MODEL 5
REMARK VINA RESULT:      -9.5      4.170     10.912
REMARK  Name = 
REMARK  10 active torsions:
REMARK  status: ('A' for Active; 'I' for Inactive)
REMARK    1  A    between atoms: C_1  and  C_2
REMARK    2  A    between atoms: N_4  and  C_5
REMARK    3  A    between atoms: C_5  and  C_6
REMARK    4  A    between atoms: C_10  and  C_11
REMARK    5  A    between atoms: N_17  and  C_18
REMARK    6  A    between atoms: C_22  and  C_23
REMARK    7  A    between atoms: C_23  and  C_24
REMARK    8  A    between atoms: C_24  and  C_25
REMARK    9  A    between atoms: N_29  and  C_30
REMARK   10  A    between atoms: C_38  and  C_39
REMARK                            x       y       z     vdW  Elec       q    Type
REMARK                         _______ _______ _______ _____ _____    ______ ____
ROOT
ATOM      1  C   UNL     1       1.149   9.496  18.310  0.00  0.00    +0.000 A 
ATOM      2  C   UNL     1       1.132  10.322  19.438  0.00  0.00    +0.000 A 
ATOM      3  C   UNL     1      -0.053  10.955  19.746  0.00  0.00    +0.000 A 
ATOM      4  C   UNL     1      -1.208  10.824  18.985  0.00  0.00    +0.000 A 
ATOM      5  C   UNL     1      -1.200  10.072  17.813  0.00  0.00    +0.000 A 
ATOM      6  C   UNL     1      -0.004   9.390  17.496  0.00  0.00    +0.000 A 
ATOM      7  C   UNL     1      -2.325  11.549  19.671  0.00  0.00    +0.000 C 
ATOM      8  N   UNL     1      -1.689  12.099  20.865  0.00  0.00    +0.000 N 
ATOM      9  C   UNL     1      -0.334  11.786  20.918  0.00  0.00    +0.000 C 
ATOM     10  O   UNL     1       0.527  12.055  21.735  0.00  0.00    +0.000 OA
ENDROOT
BRANCH   8  11
ATOM     11  C   UNL     1      -2.409  12.819  21.847  0.00  0.00    +0.000 A 
ATOM     12  C   UNL     1      -1.759  13.550  22.843  0.00  0.00    +0.000 A 
ATOM     13  C   UNL     1      -2.487  14.259  23.796  0.00  0.00    +0.000 A 
ATOM     14  C   UNL     1      -3.878  14.198  23.796  0.00  0.00    +0.000 A 
ATOM     15  C   UNL     1      -4.582  13.424  22.855  0.00  0.00    +0.000 A 
ATOM     16  C   UNL     1      -3.811  12.790  21.859  0.00  0.00    +0.000 A 
BRANCH  15  17
ATOM     17  C   UNL     1      -6.163  13.208  22.945  0.00  0.00    +0.000 C 
ATOM     18  C   UNL     1      -6.723  12.157  23.951  0.00  0.00    +0.000 C 
ATOM     19  O   UNL     1      -7.711  13.113  24.430  0.00  0.00    +0.000 OA
ATOM     20  C   UNL     1      -6.899  14.191  23.904  0.00  0.00    +0.000 C 
BRANCH  17  21
ATOM     21  C   UNL     1      -6.816  13.130  21.554  0.00  0.00    +0.000 C 
BRANCH  21  22
ATOM     22  C   UNL     1      -7.080  11.730  21.103  0.00  0.00    +0.000 A 
ATOM     23  N   UNL     1      -7.810  10.835  21.741  0.00  0.00    +0.000 NA
ATOM     24  N   UNL     1      -7.849   9.687  20.986  0.00  0.00    +0.000 NA
ATOM     25  C   UNL     1      -7.146   9.903  19.902  0.00  0.00    +0.000 A 
ATOM     26  N   UNL     1      -6.625  11.161  19.942  0.00  0.00    +0.000 N 
ATOM     27  C   UNL     1      -5.778  11.740  18.934  0.00  0.00    +0.000 C 
ENDBRANCH  21  22
ENDBRANCH  17  21
ENDBRANCH  15  17
ENDBRANCH   8  11
BRANCH   5  28
ATOM     28  C   UNL     1      -2.407   9.967  16.914  0.00  0.00    +0.000 C 
ATOM     29  F   UNL     1      -3.481   9.380  17.512  0.00  0.00    +0.000 F 
ATOM     30  F   UNL     1      -2.841  11.185  16.492  0.00  0.00    +0.000 F 
ATOM     31  F   UNL     1      -2.163   9.239  15.792  0.00  0.00    +0.000 F 
ENDBRANCH   5  28
BRANCH   1  32
ATOM     32  C   UNL     1       2.401   8.696  18.023  0.00  0.00    +0.000 C 
BRANCH  32  36
ATOM     33  C   UNL     1       1.963   4.288  17.415  0.00  0.00    +0.000 C 
ATOM     34  C   UNL     1       3.178   4.965  18.043  0.00  0.00    +0.000 C 
ATOM     35  C   UNL     1       3.292   6.454  17.658  0.00  0.00    +0.000 C 
ATOM     36  N   UNL     1       2.297   7.275  18.376  0.00  0.00    +0.000 NA
ATOM     37  C   UNL     1       2.573   7.114  19.820  0.00  0.00    +0.000 C 
ATOM     38  C   UNL     1       2.489   5.645  20.281  0.00  0.00    +0.000 C 
ATOM     39  C   UNL     1       1.054   5.170  20.476  0.00  0.00    +0.000 C 
ATOM     40  O   UNL     1       3.253   4.749  19.460  0.00  0.00    +0.000 OA
ENDBRANCH  32  36
ENDBRANCH   1  32
TORSDOF 7
ENDMDL
MODEL 6
REMARK VINA RESULT:      -9.4      2.669      4.006
REMARK  Name = 
REMARK  10 active torsions:
REMARK  status: ('A' for Active; 'I' for Inactive)
REMARK    1  A    between atoms: C_1  and  C_2
REMARK    2  A    between atoms: N_4  and  C_5
REMARK    3  A    between atoms: C_5  and  C_6
REMARK    4  A    between atoms: C_10  and  C_11
REMARK    5  A    between atoms: N_17  and  C_18
REMARK    6  A    between atoms: C_22  and  C_23
REMARK    7  A    between atoms: C_23  and  C_24
REMARK    8  A    between atoms: C_24  and  C_25
REMARK    9  A    between atoms: N_29  and  C_30
REMARK   10  A    between atoms: C_38  and  C_39
REMARK                            x       y       z     vdW  Elec       q    Type
REMARK                         _______ _______ _______ _____ _____    ______ ____
ROOT
ATOM      1  C   UNL     1       0.537  11.826  19.502  0.00  0.00    +0.000 A 
ATOM      2  C   UNL     1       1.285  11.069  18.594  0.00  0.00    +0.000 A 
ATOM      3  C   UNL     1       1.534   9.753  18.914  0.00  0.00    +0.000 A 
ATOM      4  C   UNL     1       1.098   9.159  20.092  0.00  0.00    +0.000 A 
ATOM      5  C   UNL     1       0.419   9.906  21.051  0.00  0.00    +0.000 A 
ATOM      6  C   UNL     1       0.126  11.250  20.729  0.00  0.00    +0.000 A 
ATOM      7  C   UNL     1       1.443   7.702  20.055  0.00  0.00    +0.000 C 
ATOM      8  N   UNL     1       2.115   7.544  18.769  0.00  0.00    +0.000 N 
ATOM      9  C   UNL     1       2.208   8.753  18.086  0.00  0.00    +0.000 C 
ATOM     10  O   UNL     1       2.690   9.035  17.003  0.00  0.00    +0.000 OA
ENDROOT
BRANCH   8  11
ATOM     11  C   UNL     1       2.561   6.289  18.293  0.00  0.00    +0.000 A 
ATOM     12  C   UNL     1       1.773   5.141  18.400  0.00  0.00    +0.000 A 
ATOM     13  C   UNL     1       2.228   3.917  17.917  0.00  0.00    +0.000 A 
ATOM     14  C   UNL     1       3.505   3.816  17.372  0.00  0.00    +0.000 A 
ATOM     15  C   UNL     1       4.366   4.926  17.299  0.00  0.00    +0.000 A 
ATOM     16  C   UNL     1       3.836   6.162  17.722  0.00  0.00    +0.000 A 
BRANCH  15  17
ATOM     17  C   UNL     1       5.889   4.790  16.833  0.00  0.00    +0.000 C 
ATOM     18  C   UNL     1       6.765   6.077  16.743  0.00  0.00    +0.000 C 
ATOM     19  O   UNL     1       7.845   5.416  17.461  0.00  0.00    +0.000 OA
ATOM     20  C   UNL     1       6.891   4.456  17.979  0.00  0.00    +0.000 C 
BRANCH  17  21
ATOM     21  C   UNL     1       6.041   3.862  15.616  0.00  0.00    +0.000 C 
BRANCH  21  22
ATOM     22  C   UNL     1       6.781   4.491  14.480  0.00  0.00    +0.000 A 
ATOM     23  N   UNL     1       7.717   5.415  14.583  0.00  0.00    +0.000 NA
ATOM     24  N   UNL     1       8.184   5.703  13.323  0.00  0.00    +0.000 NA
ATOM     25  C   UNL     1       7.526   4.950  12.476  0.00  0.00    +0.000 A 
ATOM     26  N   UNL     1       6.621   4.191  13.153  0.00  0.00    +0.000 N 
ATOM     27  C   UNL     1       5.704   3.261  12.551  0.00  0.00    +0.000 C 
ENDBRANCH  21  22
ENDBRANCH  17  21
ENDBRANCH  15  17
ENDBRANCH   8  11
BRANCH   5  28
ATOM     28  C   UNL     1      -0.003   9.324  22.377  0.00  0.00    +0.000 C 
ATOM     29  F   UNL     1      -0.712  10.193  23.152  0.00  0.00    +0.000 F 
ATOM     30  F   UNL     1      -0.798   8.231  22.229  0.00  0.00    +0.000 F 
ATOM     31  F   UNL     1       1.053   8.928  23.136  0.00  0.00    +0.000 F 
ENDBRANCH   5  28
BRANCH   1  32
ATOM     32  C   UNL     1       0.146  13.236  19.115  0.00  0.00    +0.000 C 
BRANCH  32  36
ATOM     33  C   UNL     1       2.549  16.642  20.729  0.00  0.00    +0.000 C 
ATOM     34  C   UNL     1       3.042  15.202  20.620  0.00  0.00    +0.000 C 
ATOM     35  C   UNL     1       1.886  14.185  20.537  0.00  0.00    +0.000 C 
ATOM     36  N   UNL     1       1.243  14.206  19.208  0.00  0.00    +0.000 NA
ATOM     37  C   UNL     1       2.287  13.852  18.222  0.00  0.00    +0.000 C 
ATOM     38  C   UNL     1       3.486  14.820  18.253  0.00  0.00    +0.000 C 
ATOM     39  C   UNL     1       3.205  16.128  17.523  0.00  0.00    +0.000 C 
ATOM     40  O   UNL     1       4.009  15.034  19.573  0.00  0.00    +0.000 OA
ENDBRANCH  32  36
ENDBRANCH   1  32
TORSDOF 7
ENDMDL
MODEL 7
REMARK VINA RESULT:      -9.2      2.449      3.688
REMARK  Name = 
REMARK  10 active torsions:
REMARK  status: ('A' for Active; 'I' for Inactive)
REMARK    1  A    between atoms: C_1  and  C_2
REMARK    2  A    between atoms: N_4  and  C_5
REMARK    3  A    between atoms: C_5  and  C_6
REMARK    4  A    between atoms: C_10  and  C_11
REMARK    5  A    between atoms: N_17  and  C_18
REMARK    6  A    between atoms: C_22  and  C_23
REMARK    7  A    between atoms: C_23  and  C_24
REMARK    8  A    between atoms: C_24  and  C_25
REMARK    9  A    between atoms: N_29  and  C_30
REMARK   10  A    between atoms: C_38  and  C_39
REMARK                            x       y       z     vdW  Elec       q    Type
REMARK                         _______ _______ _______ _____ _____    ______ ____
ROOT
ATOM      1  C   UNL     1      -0.197  11.762  19.465  0.00  0.00    +0.000 A 
ATOM      2  C   UNL     1       0.613  11.029  18.591  0.00  0.00    +0.000 A 
ATOM      3  C   UNL     1       1.108   9.824  19.040  0.00  0.00    +0.000 A 
ATOM      4  C   UNL     1       0.857   9.323  20.312  0.00  0.00    +0.000 A 
ATOM      5  C   UNL     1       0.120  10.066  21.231  0.00  0.00    +0.000 A 
ATOM      6  C   UNL     1      -0.422  11.290  20.780  0.00  0.00    +0.000 A 
ATOM      7  C   UNL     1       1.447   7.950  20.416  0.00  0.00    +0.000 C 
ATOM      8  N   UNL     1       2.053   7.741  19.105  0.00  0.00    +0.000 N 
ATOM      9  C   UNL     1       1.892   8.851  18.280  0.00  0.00    +0.000 C 
ATOM     10  O   UNL     1       2.248   9.066  17.135  0.00  0.00    +0.000 OA
ENDROOT
BRANCH   8  11
ATOM     11  C   UNL     1       2.681   6.526  18.742  0.00  0.00    +0.000 A 
ATOM     12  C   UNL     1       2.257   5.300  19.258  0.00  0.00    +0.000 A 
ATOM     13  C   UNL     1       2.883   4.114  18.881  0.00  0.00    +0.000 A 
ATOM     14  C   UNL     1       3.980   4.149  18.025  0.00  0.00    +0.000 A 
ATOM     15  C   UNL     1       4.490   5.362  17.528  0.00  0.00    +0.000 A 
ATOM     16  C   UNL     1       3.777   6.530  17.867  0.00  0.00    +0.000 A 
BRANCH  15  17
ATOM     17  C   UNL     1       5.845   5.432  16.683  0.00  0.00    +0.000 C 
ATOM     18  C   UNL     1       7.120   6.027  17.355  0.00  0.00    +0.000 C 
ATOM     19  O   UNL     1       7.917   4.904  16.884  0.00  0.00    +0.000 OA
ATOM     20  C   UNL     1       6.702   4.131  16.722  0.00  0.00    +0.000 C 
BRANCH  17  21
ATOM     21  C   UNL     1       5.610   5.951  15.254  0.00  0.00    +0.000 C 
BRANCH  21  22
ATOM     22  C   UNL     1       5.829   4.911  14.203  0.00  0.00    +0.000 A 
ATOM     23  N   UNL     1       4.986   3.950  13.878  0.00  0.00    +0.000 NA
ATOM     24  N   UNL     1       5.529   3.229  12.841  0.00  0.00    +0.000 NA
ATOM     25  C   UNL     1       6.689   3.764  12.552  0.00  0.00    +0.000 A 
ATOM     26  N   UNL     1       6.931   4.806  13.394  0.00  0.00    +0.000 N 
ATOM     27  C   UNL     1       8.119   5.616  13.391  0.00  0.00    +0.000 C 
ENDBRANCH  21  22
ENDBRANCH  17  21
ENDBRANCH  15  17
ENDBRANCH   8  11
BRANCH   5  28
ATOM     28  C   UNL     1      -0.109   9.598  22.647  0.00  0.00    +0.000 C 
ATOM     29  F   UNL     1      -0.756  10.512  23.424  0.00  0.00    +0.000 F 
ATOM     30  F   UNL     1      -0.867   8.470  22.699  0.00  0.00    +0.000 F 
ATOM     31  F   UNL     1       1.049   9.310  23.298  0.00  0.00    +0.000 F 
ENDBRANCH   5  28
BRANCH   1  32
ATOM     32  C   UNL     1      -0.850  13.027  18.951  0.00  0.00    +0.000 C 
BRANCH  32  36
ATOM     33  C   UNL     1       0.476  17.217  18.134  0.00  0.00    +0.000 C 
ATOM     34  C   UNL     1       0.494  16.548  19.506  0.00  0.00    +0.000 C 
ATOM     35  C   UNL     1      -0.471  15.349  19.593  0.00  0.00    +0.000 C 
ATOM     36  N   UNL     1       0.057  14.177  18.867  0.00  0.00    +0.000 NA
ATOM     37  C   UNL     1       1.344  13.824  19.503  0.00  0.00    +0.000 C 
ATOM     38  C   UNL     1       2.363  14.981  19.466  0.00  0.00    +0.000 C 
ATOM     39  C   UNL     1       3.042  15.124  18.109  0.00  0.00    +0.000 C 
ATOM     40  O   UNL     1       1.824  16.226  19.938  0.00  0.00    +0.000 OA
ENDBRANCH  32  36
ENDBRANCH   1  32
TORSDOF 7
ENDMDL
MODEL 8
REMARK VINA RESULT:      -9.2      2.955      4.315
REMARK  Name = 
REMARK  10 active torsions:
REMARK  status: ('A' for Active; 'I' for Inactive)
REMARK    1  A    between atoms: C_1  and  C_2
REMARK    2  A    between atoms: N_4  and  C_5
REMARK    3  A    between atoms: C_5  and  C_6
REMARK    4  A    between atoms: C_10  and  C_11
REMARK    5  A    between atoms: N_17  and  C_18
REMARK    6  A    between atoms: C_22  and  C_23
REMARK    7  A    between atoms: C_23  and  C_24
REMARK    8  A    between atoms: C_24  and  C_25
REMARK    9  A    between atoms: N_29  and  C_30
REMARK   10  A    between atoms: C_38  and  C_39
REMARK                            x       y       z     vdW  Elec       q    Type
REMARK                         _______ _______ _______ _____ _____    ______ ____
ROOT
ATOM      1  C   UNL     1       0.118  11.838  19.671  0.00  0.00    +0.000 A 
ATOM      2  C   UNL     1       0.836  11.069  18.750  0.00  0.00    +0.000 A 
ATOM      3  C   UNL     1       1.210   9.799  19.134  0.00  0.00    +0.000 A 
ATOM      4  C   UNL     1       0.926   9.267  20.386  0.00  0.00    +0.000 A 
ATOM      5  C   UNL     1       0.283  10.037  21.351  0.00  0.00    +0.000 A 
ATOM      6  C   UNL     1      -0.138  11.330  20.967  0.00  0.00    +0.000 A 
ATOM      7  C   UNL     1       1.374   7.838  20.417  0.00  0.00    +0.000 C 
ATOM      8  N   UNL     1       1.938   7.630  19.086  0.00  0.00    +0.000 N 
ATOM      9  C   UNL     1       1.880   8.788  18.316  0.00  0.00    +0.000 C 
ATOM     10  O   UNL     1       2.240   9.020  17.176  0.00  0.00    +0.000 OA
ENDROOT
BRANCH   8  11
ATOM     11  C   UNL     1       2.432   6.376  18.657  0.00  0.00    +0.000 A 
ATOM     12  C   UNL     1       1.973   5.179  19.209  0.00  0.00    +0.000 A 
ATOM     13  C   UNL     1       2.467   3.955  18.767  0.00  0.00    +0.000 A 
ATOM     14  C   UNL     1       3.470   3.917  17.802  0.00  0.00    +0.000 A 
ATOM     15  C   UNL     1       4.015   5.095  17.259  0.00  0.00    +0.000 A 
ATOM     16  C   UNL     1       3.430   6.308  17.674  0.00  0.00    +0.000 A 
BRANCH  15  17
ATOM     17  C   UNL     1       5.279   5.073  16.281  0.00  0.00    +0.000 C 
ATOM     18  C   UNL     1       6.032   3.727  16.053  0.00  0.00    +0.000 C 
ATOM     19  O   UNL     1       6.028   3.946  14.614  0.00  0.00    +0.000 OA
ATOM     20  C   UNL     1       4.931   4.879  14.775  0.00  0.00    +0.000 C 
BRANCH  17  21
ATOM     21  C   UNL     1       6.222   6.264  16.528  0.00  0.00    +0.000 C 
BRANCH  21  22
ATOM     22  C   UNL     1       7.037   6.126  17.772  0.00  0.00    +0.000 A 
ATOM     23  N   UNL     1       7.129   5.044  18.522  0.00  0.00    +0.000 NA
ATOM     24  N   UNL     1       8.007   5.300  19.548  0.00  0.00    +0.000 NA
ATOM     25  C   UNL     1       8.435   6.530  19.405  0.00  0.00    +0.000 A 
ATOM     26  N   UNL     1       7.837   7.095  18.320  0.00  0.00    +0.000 N 
ATOM     27  C   UNL     1       8.044   8.445  17.868  0.00  0.00    +0.000 C 
ENDBRANCH  21  22
ENDBRANCH  17  21
ENDBRANCH  15  17
ENDBRANCH   8  11
BRANCH   5  28
ATOM     28  C   UNL     1       0.025   9.528  22.748  0.00  0.00    +0.000 C 
ATOM     29  F   UNL     1      -0.625  10.425  23.542  0.00  0.00    +0.000 F 
ATOM     30  F   UNL     1      -0.743   8.406  22.754  0.00  0.00    +0.000 F 
ATOM     31  F   UNL     1       1.170   9.210  23.410  0.00  0.00    +0.000 F 
ENDBRANCH   5  28
BRANCH   1  32
ATOM     32  C   UNL     1      -0.410  13.186  19.227  0.00  0.00    +0.000 C 
BRANCH  32  36
ATOM     33  C   UNL     1       2.760  16.328  18.981  0.00  0.00    +0.000 C 
ATOM     34  C   UNL     1       1.265  16.606  19.116  0.00  0.00    +0.000 C 
ATOM     35  C   UNL     1       0.398  15.416  18.659  0.00  0.00    +0.000 C 
ATOM     36  N   UNL     1       0.419  14.321  19.648  0.00  0.00    +0.000 NA
ATOM     37  C   UNL     1      -0.122  14.873  20.909  0.00  0.00    +0.000 C 
ATOM     38  C   UNL     1       0.688  16.078  21.426  0.00  0.00    +0.000 C 
ATOM     39  C   UNL     1       1.975  15.664  22.130  0.00  0.00    +0.000 C 
ATOM     40  O   UNL     1       0.914  17.081  20.424  0.00  0.00    +0.000 OA
ENDBRANCH  32  36
ENDBRANCH   1  32
TORSDOF 7
ENDMDL
MODEL 9
REMARK VINA RESULT:      -9.1      2.816      4.383
REMARK  Name = 
REMARK  10 active torsions:
REMARK  status: ('A' for Active; 'I' for Inactive)
REMARK    1  A    between atoms: C_1  and  C_2
REMARK    2  A    between atoms: N_4  and  C_5
REMARK    3  A    between atoms: C_5  and  C_6
REMARK    4  A    between atoms: C_10  and  C_11
REMARK    5  A    between atoms: N_17  and  C_18
REMARK    6  A    between atoms: C_22  and  C_23
REMARK    7  A    between atoms: C_23  and  C_24
REMARK    8  A    between atoms: C_24  and  C_25
REMARK    9  A    between atoms: N_29  and  C_30
REMARK   10  A    between atoms: C_38  and  C_39
REMARK                            x       y       z     vdW  Elec       q    Type
REMARK                         _______ _______ _______ _____ _____    ______ ____
ROOT
ATOM      1  C   UNL     1       0.164  11.753  19.542  0.00  0.00    +0.000 A 
ATOM      2  C   UNL     1       0.917  10.972  18.659  0.00  0.00    +0.000 A 
ATOM      3  C   UNL     1       1.279   9.709  19.075  0.00  0.00    +0.000 A 
ATOM      4  C   UNL     1       0.951   9.194  20.323  0.00  0.00    +0.000 A 
ATOM      5  C   UNL     1       0.271   9.976  21.253  0.00  0.00    +0.000 A 
ATOM      6  C   UNL     1      -0.138  11.263  20.835  0.00  0.00    +0.000 A 
ATOM      7  C   UNL     1       1.399   7.767  20.390  0.00  0.00    +0.000 C 
ATOM      8  N   UNL     1       2.012   7.542  19.085  0.00  0.00    +0.000 N 
ATOM      9  C   UNL     1       1.980   8.689  18.296  0.00  0.00    +0.000 C 
ATOM     10  O   UNL     1       2.382   8.905  17.167  0.00  0.00    +0.000 OA
ENDROOT
BRANCH   8  11
ATOM     11  C   UNL     1       2.524   6.283  18.692  0.00  0.00    +0.000 A 
ATOM     12  C   UNL     1       2.124   5.101  19.318  0.00  0.00    +0.000 A 
ATOM     13  C   UNL     1       2.634   3.871  18.910  0.00  0.00    +0.000 A 
ATOM     14  C   UNL     1       3.596   3.816  17.906  0.00  0.00    +0.000 A 
ATOM     15  C   UNL     1       4.084   4.981  17.286  0.00  0.00    +0.000 A 
ATOM     16  C   UNL     1       3.481   6.196  17.670  0.00  0.00    +0.000 A 
BRANCH  15  17
ATOM     17  C   UNL     1       5.306   4.948  16.256  0.00  0.00    +0.000 C 
ATOM     18  C   UNL     1       6.031   3.594  15.992  0.00  0.00    +0.000 C 
ATOM     19  O   UNL     1       5.970   3.819  14.555  0.00  0.00    +0.000 OA
ATOM     20  C   UNL     1       4.892   4.764  14.765  0.00  0.00    +0.000 C 
BRANCH  17  21
ATOM     21  C   UNL     1       6.272   6.126  16.467  0.00  0.00    +0.000 C 
BRANCH  21  22
ATOM     22  C   UNL     1       7.058   6.027  17.735  0.00  0.00    +0.000 A 
ATOM     23  N   UNL     1       7.146   4.964  18.510  0.00  0.00    +0.000 NA
ATOM     24  N   UNL     1       7.994   5.255  19.552  0.00  0.00    +0.000 NA
ATOM     25  C   UNL     1       8.407   6.488  19.393  0.00  0.00    +0.000 A 
ATOM     26  N   UNL     1       7.829   7.020  18.281  0.00  0.00    +0.000 N 
ATOM     27  C   UNL     1       8.028   8.362  17.805  0.00  0.00    +0.000 C 
ENDBRANCH  21  22
ENDBRANCH  17  21
ENDBRANCH  15  17
ENDBRANCH   8  11
BRANCH   5  28
ATOM     28  C   UNL     1      -0.037   9.487  22.647  0.00  0.00    +0.000 C 
ATOM     29  F   UNL     1      -0.741  10.382  23.395  0.00  0.00    +0.000 F 
ATOM     30  F   UNL     1      -0.781   8.348  22.640  0.00  0.00    +0.000 F 
ATOM     31  F   UNL     1       1.084   9.207  23.363  0.00  0.00    +0.000 F 
ENDBRANCH   5  28
BRANCH   1  32
ATOM     32  C   UNL     1      -0.349  13.093  19.060  0.00  0.00    +0.000 C 
BRANCH  32  36
ATOM     33  C   UNL     1       1.126  16.509  21.537  0.00  0.00    +0.000 C 
ATOM     34  C   UNL     1       1.938  15.261  21.201  0.00  0.00    +0.000 C 
ATOM     35  C   UNL     1       1.049  14.065  20.807  0.00  0.00    +0.000 C 
ATOM     36  N   UNL     1       0.492  14.231  19.449  0.00  0.00    +0.000 NA
ATOM     37  C   UNL     1       1.642  14.320  18.524  0.00  0.00    +0.000 C 
ATOM     38  C   UNL     1       2.588  15.490  18.862  0.00  0.00    +0.000 C 
ATOM     39  C   UNL     1       2.059  16.833  18.375  0.00  0.00    +0.000 C 
ATOM     40  O   UNL     1       2.974  15.525  20.244  0.00  0.00    +0.000 OA
ENDBRANCH  32  36
ENDBRANCH   1  32
TORSDOF 7
ENDMDL
