MODEL 1
REMARK VINA RESULT:      -8.1      0.000      0.000
REMARK  Name = 
REMARK  7 active torsions:
REMARK  status: ('A' for Active; 'I' for Inactive)
REMARK    1  A    between atoms: C_1  and  C_2
REMARK    2  A    between atoms: C_2  and  S_3
REMARK    3  A    between atoms: C_2  and  C_10
REMARK    4  A    between atoms: S_3  and  C_4
REMARK    5  A    between atoms: N_8  and  C_9
REMARK    6  A    between atoms: C_14  and  N_15
REMARK    7  A    between atoms: C_18  and  C_19
REMARK                            x       y       z     vdW  Elec       q    Type
REMARK                         _______ _______ _______ _____ _____    ______ ____
ROOT
ATOM      1  C   UNL     1      -1.180  11.562  21.959  0.00  0.00    +0.000 A 
ATOM      2  C   UNL     1      -1.128  10.790  23.134  0.00  0.00    +0.000 A 
ATOM      3  C   UNL     1      -0.353   9.630  23.210  0.00  0.00    +0.000 A 
ATOM      4  C   UNL     1       0.376   9.201  22.104  0.00  0.00    +0.000 A 
ATOM      5  C   UNL     1       0.346   9.949  20.922  0.00  0.00    +0.000 A 
ATOM      6  C   UNL     1      -0.411  11.132  20.859  0.00  0.00    +0.000 A 
ENDROOT
BRANCH   5   7
ATOM      7  N   UNL     1       1.052   9.497  19.778  0.00  0.00    +0.000 N 
ATOM      8  N   UNL     1       1.004  10.164  18.594  0.00  0.00    +0.000 NA
ATOM      9  C   UNL     1       1.719   9.367  17.803  0.00  0.00    +0.000 A 
ATOM     10  C   UNL     1       2.184   8.235  18.508  0.00  0.00    +0.000 A 
ATOM     11  N   UNL     1       1.780   8.349  19.784  0.00  0.00    +0.000 NA
BRANCH  10  12
ATOM     12  C   UNL     1       2.947   7.087  18.017  0.00  0.00    +0.000 A 
ATOM     13  C   UNL     1       4.165   7.263  17.343  0.00  0.00    +0.000 A 
ATOM     14  C   UNL     1       4.869   6.162  16.839  0.00  0.00    +0.000 A 
ATOM     15  C   UNL     1       4.360   4.878  17.006  0.00  0.00    +0.000 A 
ATOM     16 CL   UNL     1       5.217   3.531  16.370  0.00  0.00    +0.000 Cl
ATOM     17  C   UNL     1       3.158   4.680  17.681  0.00  0.00    +0.000 A 
ATOM     18  C   UNL     1       2.456   5.781  18.184  0.00  0.00    +0.000 A 
ENDBRANCH  10  12
ENDBRANCH   5   7
BRANCH   1  20
ATOM     19  C   UNL     1      -1.465  13.861  20.866  0.00  0.00    +0.000 C 
ATOM     20  C   UNL     1      -2.056  12.815  21.819  0.00  0.00    +0.000 C 
BRANCH  20  21
ATOM     21  S   UNL     1      -2.324  13.522  23.503  0.00  0.00    +0.000 S 
BRANCH  21  22
ATOM     22  C   UNL     1      -3.953  13.107  23.888  0.00  0.00    +0.000 A 
ATOM     23  N   UNL     1      -4.396  12.017  24.470  0.00  0.00    +0.000 NA
ATOM     24  N   UNL     1      -5.772  12.046  24.433  0.00  0.00    +0.000 NA
ATOM     25  C   UNL     1      -6.128  13.173  23.859  0.00  0.00    +0.000 A 
ATOM     26  N   UNL     1      -5.015  13.895  23.546  0.00  0.00    +0.000 N 
ATOM     27  C   UNL     1      -4.999  15.224  22.997  0.00  0.00    +0.000 C 
ENDBRANCH  21  22
ENDBRANCH  20  21
ENDBRANCH   1  20
TORSDOF 5
ENDMDL
MODEL 2
REMARK VINA RESULT:      -8.1      8.038     10.182
REMARK  Name = 
REMARK  7 active torsions:
REMARK  status: ('A' for Active; 'I' for Inactive)
REMARK    1  A    between atoms: C_1  and  C_2
REMARK    2  A    between atoms: C_2  and  S_3
REMARK    3  A    between atoms: C_2  and  C_10
REMARK    4  A    between atoms: S_3  and  C_4
REMARK    5  A    between atoms: N_8  and  C_9
REMARK    6  A    between atoms: C_14  and  N_15
REMARK    7  A    between atoms: C_18  and  C_19
REMARK                            x       y       z     vdW  Elec       q    Type
REMARK                         _______ _______ _______ _____ _____    ______ ____
ROOT
ATOM      1  C   UNL     1       4.271   5.172  17.066  0.00  0.00    +0.000 A 
ATOM      2  C   UNL     1       4.698   4.430  15.949  0.00  0.00    +0.000 A 
ATOM      3  C   UNL     1       5.992   4.562  15.440  0.00  0.00    +0.000 A 
ATOM      4  C   UNL     1       6.887   5.455  16.022  0.00  0.00    +0.000 A 
ATOM      5  C   UNL     1       6.491   6.206  17.134  0.00  0.00    +0.000 A 
ATOM      6  C   UNL     1       5.198   6.049  17.663  0.00  0.00    +0.000 A 
ENDROOT
BRANCH   5   7
ATOM      7  N   UNL     1       7.382   7.150  17.707  0.00  0.00    +0.000 N 
ATOM      8  N   UNL     1       8.089   6.877  18.836  0.00  0.00    +0.000 NA
ATOM      9  C   UNL     1       8.709   8.034  19.056  0.00  0.00    +0.000 A 
ATOM     10  C   UNL     1       8.372   8.986  18.070  0.00  0.00    +0.000 A 
ATOM     11  N   UNL     1       7.549   8.396  17.190  0.00  0.00    +0.000 NA
BRANCH  10  12
ATOM     12  C   UNL     1       8.775  10.390  17.962  0.00  0.00    +0.000 A 
ATOM     13  C   UNL     1      10.071  10.799  18.308  0.00  0.00    +0.000 A 
ATOM     14  C   UNL     1      10.436  12.149  18.243  0.00  0.00    +0.000 A 
ATOM     15  C   UNL     1       9.507  13.099  17.829  0.00  0.00    +0.000 A 
ATOM     16 CL   UNL     1       9.953  14.758  17.767  0.00  0.00    +0.000 Cl
ATOM     17  C   UNL     1       8.218  12.713  17.470  0.00  0.00    +0.000 A 
ATOM     18  C   UNL     1       7.855  11.364  17.537  0.00  0.00    +0.000 A 
ENDBRANCH  10  12
ENDBRANCH   5   7
BRANCH   1  20
ATOM     19  C   UNL     1       2.696   5.767  18.996  0.00  0.00    +0.000 C 
ATOM     20  C   UNL     1       2.844   5.092  17.627  0.00  0.00    +0.000 C 
BRANCH  20  21
ATOM     21  S   UNL     1       2.352   3.315  17.702  0.00  0.00    +0.000 S 
BRANCH  21  22
ATOM     22  C   UNL     1       2.056   3.024  19.376  0.00  0.00    +0.000 A 
ATOM     23  N   UNL     1       0.918   3.109  20.025  0.00  0.00    +0.000 NA
ATOM     24  N   UNL     1       1.182   2.943  21.367  0.00  0.00    +0.000 NA
ATOM     25  C   UNL     1       2.472   2.726  21.491  0.00  0.00    +0.000 A 
ATOM     26  N   UNL     1       3.053   2.718  20.259  0.00  0.00    +0.000 N 
ATOM     27  C   UNL     1       4.431   2.416  19.978  0.00  0.00    +0.000 C 
ENDBRANCH  21  22
ENDBRANCH  20  21
ENDBRANCH   1  20
TORSDOF 5
ENDMDL
MODEL 3
REMARK VINA RESULT:      -8.1      4.672     10.293
REMARK  Name = 
REMARK  7 active torsions:
REMARK  status: ('A' for Active; 'I' for Inactive)
REMARK    1  A    between atoms: C_1  and  C_2
REMARK    2  A    between atoms: C_2  and  S_3
REMARK    3  A    between atoms: C_2  and  C_10
REMARK    4  A    between atoms: S_3  and  C_4
REMARK    5  A    between atoms: N_8  and  C_9
REMARK    6  A    between atoms: C_14  and  N_15
REMARK    7  A    between atoms: C_18  and  C_19
REMARK                            x       y       z     vdW  Elec       q    Type
REMARK                         _______ _______ _______ _____ _____    ______ ____
ROOT
ATOM      1  C   UNL     1       2.345   7.605  19.177  0.00  0.00    +0.000 A 
ATOM      2  C   UNL     1       2.119   8.235  17.939  0.00  0.00    +0.000 A 
ATOM      3  C   UNL     1       1.326   9.380  17.839  0.00  0.00    +0.000 A 
ATOM      4  C   UNL     1       0.720   9.914  18.973  0.00  0.00    +0.000 A 
ATOM      5  C   UNL     1       0.926   9.310  20.218  0.00  0.00    +0.000 A 
ATOM      6  C   UNL     1       1.750   8.176  20.320  0.00  0.00    +0.000 A 
ENDROOT
BRANCH   5   7
ATOM      7  N   UNL     1       0.279   9.823  21.371  0.00  0.00    +0.000 N 
ATOM      8  N   UNL     1       0.116   9.076  22.496  0.00  0.00    +0.000 NA
ATOM      9  C   UNL     1      -0.593   9.897  23.268  0.00  0.00    +0.000 A 
ATOM     10  C   UNL     1      -0.853  11.117  22.608  0.00  0.00    +0.000 A 
ATOM     11  N   UNL     1      -0.257  11.072  21.406  0.00  0.00    +0.000 NA
BRANCH  10  12
ATOM     12  C   UNL     1      -1.639  12.266  23.061  0.00  0.00    +0.000 A 
ATOM     13  C   UNL     1      -1.052  13.531  23.211  0.00  0.00    +0.000 A 
ATOM     14  C   UNL     1      -1.799  14.616  23.685  0.00  0.00    +0.000 A 
ATOM     15  C   UNL     1      -3.141  14.443  24.012  0.00  0.00    +0.000 A 
ATOM     16 CL   UNL     1      -4.052  15.771  24.611  0.00  0.00    +0.000 Cl
ATOM     17  C   UNL     1      -3.747  13.198  23.861  0.00  0.00    +0.000 A 
ATOM     18  C   UNL     1      -2.998  12.116  23.387  0.00  0.00    +0.000 A 
ENDBRANCH  10  12
ENDBRANCH   5   7
BRANCH   1  20
ATOM     19  C   UNL     1       3.920   5.935  18.042  0.00  0.00    +0.000 C 
ATOM     20  C   UNL     1       3.169   6.318  19.323  0.00  0.00    +0.000 C 
BRANCH  20  21
ATOM     21  S   UNL     1       2.036   4.965  19.862  0.00  0.00    +0.000 S 
BRANCH  21  22
ATOM     22  C   UNL     1       2.370   3.668  18.775  0.00  0.00    +0.000 A 
ATOM     23  N   UNL     1       1.763   3.377  17.649  0.00  0.00    +0.000 NA
ATOM     24  N   UNL     1       2.258   2.174  17.199  0.00  0.00    +0.000 NA
ATOM     25  C   UNL     1       3.180   1.784  18.049  0.00  0.00    +0.000 A 
ATOM     26  N   UNL     1       3.319   2.719  19.030  0.00  0.00    +0.000 N 
ATOM     27  C   UNL     1       4.297   2.696  20.085  0.00  0.00    +0.000 C 
ENDBRANCH  21  22
ENDBRANCH  20  21
ENDBRANCH   1  20
TORSDOF 5
ENDMDL
MODEL 4
REMARK VINA RESULT:      -7.9      4.606     10.065
REMARK  Name = 
REMARK  7 active torsions:
REMARK  status: ('A' for Active; 'I' for Inactive)
REMARK    1  A    between atoms: C_1  and  C_2
REMARK    2  A    between atoms: C_2  and  S_3
REMARK    3  A    between atoms: C_2  and  C_10
REMARK    4  A    between atoms: S_3  and  C_4
REMARK    5  A    between atoms: N_8  and  C_9
REMARK    6  A    between atoms: C_14  and  N_15
REMARK    7  A    between atoms: C_18  and  C_19
REMARK                            x       y       z     vdW  Elec       q    Type
REMARK                         _______ _______ _______ _____ _____    ______ ____
ROOT
ATOM      1  C   UNL     1       2.282   7.705  19.134  0.00  0.00    +0.000 A 
ATOM      2  C   UNL     1       2.176   8.450  17.945  0.00  0.00    +0.000 A 
ATOM      3  C   UNL     1       1.474   9.657  17.902  0.00  0.00    +0.000 A 
ATOM      4  C   UNL     1       0.842  10.141  19.044  0.00  0.00    +0.000 A 
ATOM      5  C   UNL     1       0.930   9.423  20.241  0.00  0.00    +0.000 A 
ATOM      6  C   UNL     1       1.662   8.224  20.289  0.00  0.00    +0.000 A 
ENDROOT
BRANCH   5   7
ATOM      7  N   UNL     1       0.254   9.888  21.399  0.00  0.00    +0.000 N 
ATOM      8  N   UNL     1       0.066   9.095  22.488  0.00  0.00    +0.000 NA
ATOM      9  C   UNL     1      -0.663   9.883  23.276  0.00  0.00    +0.000 A 
ATOM     10  C   UNL     1      -0.910  11.129  22.660  0.00  0.00    +0.000 A 
ATOM     11  N   UNL     1      -0.285  11.133  21.472  0.00  0.00    +0.000 NA
BRANCH  10  12
ATOM     12  C   UNL     1      -1.709  12.257  23.140  0.00  0.00    +0.000 A 
ATOM     13  C   UNL     1      -3.049  12.085  23.518  0.00  0.00    +0.000 A 
ATOM     14  C   UNL     1      -3.820  13.177  23.936  0.00  0.00    +0.000 A 
ATOM     15  C   UNL     1      -3.256  14.448  23.980  0.00  0.00    +0.000 A 
ATOM     16 CL   UNL     1      -4.211  15.789  24.476  0.00  0.00    +0.000 Cl
ATOM     17  C   UNL     1      -1.924  14.639  23.619  0.00  0.00    +0.000 A 
ATOM     18  C   UNL     1      -1.156  13.548  23.201  0.00  0.00    +0.000 A 
ENDBRANCH  10  12
ENDBRANCH   5   7
BRANCH   1  20
ATOM     19  C   UNL     1       3.065   5.624  17.863  0.00  0.00    +0.000 C 
ATOM     20  C   UNL     1       3.002   6.351  19.212  0.00  0.00    +0.000 C 
BRANCH  20  21
ATOM     21  S   UNL     1       2.155   5.320  20.487  0.00  0.00    +0.000 S 
BRANCH  21  22
ATOM     22  C   UNL     1       1.802   3.840  19.675  0.00  0.00    +0.000 A 
ATOM     23  N   UNL     1       0.667   3.462  19.135  0.00  0.00    +0.000 NA
ATOM     24  N   UNL     1       0.803   2.149  18.740  0.00  0.00    +0.000 NA
ATOM     25  C   UNL     1       2.031   1.777  19.021  0.00  0.00    +0.000 A 
ATOM     26  N   UNL     1       2.710   2.826  19.564  0.00  0.00    +0.000 N 
ATOM     27  C   UNL     1       4.107   2.837  19.910  0.00  0.00    +0.000 C 
ENDBRANCH  21  22
ENDBRANCH  20  21
ENDBRANCH   1  20
TORSDOF 5
ENDMDL
MODEL 5
REMARK VINA RESULT:      -7.8      5.548     10.391
REMARK  Name = 
REMARK  7 active torsions:
REMARK  status: ('A' for Active; 'I' for Inactive)
REMARK    1  A    between atoms: C_1  and  C_2
REMARK    2  A    between atoms: C_2  and  S_3
REMARK    3  A    between atoms: C_2  and  C_10
REMARK    4  A    between atoms: S_3  and  C_4
REMARK    5  A    between atoms: N_8  and  C_9
REMARK    6  A    between atoms: C_14  and  N_15
REMARK    7  A    between atoms: C_18  and  C_19
REMARK                            x       y       z     vdW  Elec       q    Type
REMARK                         _______ _______ _______ _____ _____    ______ ____
ROOT
ATOM      1  C   UNL     1       4.158   4.819  16.817  0.00  0.00    +0.000 A 
ATOM      2  C   UNL     1       3.500   3.577  16.884  0.00  0.00    +0.000 A 
ATOM      3  C   UNL     1       2.401   3.380  17.724  0.00  0.00    +0.000 A 
ATOM      4  C   UNL     1       1.943   4.416  18.534  0.00  0.00    +0.000 A 
ATOM      5  C   UNL     1       2.577   5.662  18.488  0.00  0.00    +0.000 A 
ATOM      6  C   UNL     1       3.664   5.866  17.620  0.00  0.00    +0.000 A 
ENDROOT
BRANCH   5   7
ATOM      7  N   UNL     1       2.144   6.710  19.341  0.00  0.00    +0.000 N 
ATOM      8  N   UNL     1       1.845   6.495  20.650  0.00  0.00    +0.000 NA
ATOM      9  C   UNL     1       1.416   7.695  21.033  0.00  0.00    +0.000 A 
ATOM     10  C   UNL     1       1.455   8.614  19.962  0.00  0.00    +0.000 A 
ATOM     11  N   UNL     1       1.959   7.979  18.891  0.00  0.00    +0.000 NA
BRANCH  10  12
ATOM     12  C   UNL     1       1.022  10.012  19.924  0.00  0.00    +0.000 A 
ATOM     13  C   UNL     1       0.651  10.686  21.097  0.00  0.00    +0.000 A 
ATOM     14  C   UNL     1       0.197  12.010  21.048  0.00  0.00    +0.000 A 
ATOM     15  C   UNL     1       0.113  12.669  19.826  0.00  0.00    +0.000 A 
ATOM     16 CL   UNL     1      -0.462  14.288  19.767  0.00  0.00    +0.000 Cl
ATOM     17  C   UNL     1       0.487  12.022  18.650  0.00  0.00    +0.000 A 
ATOM     18  C   UNL     1       0.940  10.700  18.701  0.00  0.00    +0.000 A 
ENDBRANCH  10  12
ENDBRANCH   5   7
BRANCH   1  20
ATOM     19  C   UNL     1       5.427   4.192  14.682  0.00  0.00    +0.000 C 
ATOM     20  C   UNL     1       5.398   5.062  15.945  0.00  0.00    +0.000 C 
BRANCH  20  21
ATOM     21  S   UNL     1       6.897   4.782  16.983  0.00  0.00    +0.000 S 
BRANCH  21  22
ATOM     22  C   UNL     1       7.373   6.362  17.484  0.00  0.00    +0.000 A 
ATOM     23  N   UNL     1       7.296   7.484  16.808  0.00  0.00    +0.000 NA
ATOM     24  N   UNL     1       7.933   8.463  17.539  0.00  0.00    +0.000 NA
ATOM     25  C   UNL     1       8.348   7.914  18.658  0.00  0.00    +0.000 A 
ATOM     26  N   UNL     1       7.973   6.604  18.688  0.00  0.00    +0.000 N 
ATOM     27  C   UNL     1       8.159   5.699  19.790  0.00  0.00    +0.000 C 
ENDBRANCH  21  22
ENDBRANCH  20  21
ENDBRANCH   1  20
TORSDOF 5
ENDMDL
MODEL 6
REMARK VINA RESULT:      -7.8      3.912      4.959
REMARK  Name = 
REMARK  7 active torsions:
REMARK  status: ('A' for Active; 'I' for Inactive)
REMARK    1  A    between atoms: C_1  and  C_2
REMARK    2  A    between atoms: C_2  and  S_3
REMARK    3  A    between atoms: C_2  and  C_10
REMARK    4  A    between atoms: S_3  and  C_4
REMARK    5  A    between atoms: N_8  and  C_9
REMARK    6  A    between atoms: C_14  and  N_15
REMARK    7  A    between atoms: C_18  and  C_19
REMARK                            x       y       z     vdW  Elec       q    Type
REMARK                         _______ _______ _______ _____ _____    ______ ____
ROOT
ATOM      1  C   UNL     1       0.311  10.856  20.473  0.00  0.00    +0.000 A 
ATOM      2  C   UNL     1      -0.119  10.796  21.811  0.00  0.00    +0.000 A 
ATOM      3  C   UNL     1       0.090   9.657  22.592  0.00  0.00    +0.000 A 
ATOM      4  C   UNL     1       0.715   8.539  22.048  0.00  0.00    +0.000 A 
ATOM      5  C   UNL     1       1.154   8.569  20.720  0.00  0.00    +0.000 A 
ATOM      6  C   UNL     1       0.970   9.727  19.946  0.00  0.00    +0.000 A 
ENDROOT
BRANCH   5   7
ATOM      7  N   UNL     1       1.755   7.419  20.145  0.00  0.00    +0.000 N 
ATOM      8  N   UNL     1       1.723   6.207  20.761  0.00  0.00    +0.000 NA
ATOM      9  C   UNL     1       2.456   5.463  19.936  0.00  0.00    +0.000 A 
ATOM     10  C   UNL     1       2.923   6.225  18.843  0.00  0.00    +0.000 A 
ATOM     11  N   UNL     1       2.435   7.470  18.970  0.00  0.00    +0.000 NA
BRANCH  10  12
ATOM     12  C   UNL     1       3.802   5.825  17.743  0.00  0.00    +0.000 A 
ATOM     13  C   UNL     1       4.473   6.783  16.968  0.00  0.00    +0.000 A 
ATOM     14  C   UNL     1       5.278   6.396  15.891  0.00  0.00    +0.000 A 
ATOM     15  C   UNL     1       5.419   5.046  15.581  0.00  0.00    +0.000 A 
ATOM     16 CL   UNL     1       6.394   4.574  14.246  0.00  0.00    +0.000 Cl
ATOM     17  C   UNL     1       4.770   4.078  16.343  0.00  0.00    +0.000 A 
ATOM     18  C   UNL     1       3.966   4.468  17.419  0.00  0.00    +0.000 A 
ENDBRANCH  10  12
ENDBRANCH   5   7
BRANCH   1  20
ATOM     19  C   UNL     1      -1.068  11.840  18.551  0.00  0.00    +0.000 C 
ATOM     20  C   UNL     1       0.058  12.070  19.567  0.00  0.00    +0.000 C 
BRANCH  20  21
ATOM     21  S   UNL     1       1.642  12.497  18.722  0.00  0.00    +0.000 S 
BRANCH  21  22
ATOM     22  C   UNL     1       2.530  13.388  19.902  0.00  0.00    +0.000 A 
ATOM     23  N   UNL     1       2.423  13.333  21.209  0.00  0.00    +0.000 NA
ATOM     24  N   UNL     1       3.215  14.328  21.741  0.00  0.00    +0.000 NA
ATOM     25  C   UNL     1       3.808  14.937  20.740  0.00  0.00    +0.000 A 
ATOM     26  N   UNL     1       3.445  14.346  19.568  0.00  0.00    +0.000 N 
ATOM     27  C   UNL     1       3.963  14.668  18.265  0.00  0.00    +0.000 C 
ENDBRANCH  21  22
ENDBRANCH  20  21
ENDBRANCH   1  20
TORSDOF 5
ENDMDL
MODEL 7
REMARK VINA RESULT:      -7.8      4.708     10.605
REMARK  Name = 
REMARK  7 active torsions:
REMARK  status: ('A' for Active; 'I' for Inactive)
REMARK    1  A    between atoms: C_1  and  C_2
REMARK    2  A    between atoms: C_2  and  S_3
REMARK    3  A    between atoms: C_2  and  C_10
REMARK    4  A    between atoms: S_3  and  C_4
REMARK    5  A    between atoms: N_8  and  C_9
REMARK    6  A    between atoms: C_14  and  N_15
REMARK    7  A    between atoms: C_18  and  C_19
REMARK                            x       y       z     vdW  Elec       q    Type
REMARK                         _______ _______ _______ _____ _____    ______ ____
ROOT
ATOM      1  C   UNL     1       2.360   6.932  19.173  0.00  0.00    +0.000 A 
ATOM      2  C   UNL     1       2.462   7.656  17.971  0.00  0.00    +0.000 A 
ATOM      3  C   UNL     1       1.991   8.967  17.869  0.00  0.00    +0.000 A 
ATOM      4  C   UNL     1       1.388   9.583  18.962  0.00  0.00    +0.000 A 
ATOM      5  C   UNL     1       1.273   8.889  20.171  0.00  0.00    +0.000 A 
ATOM      6  C   UNL     1       1.775   7.580  20.279  0.00  0.00    +0.000 A 
ENDROOT
BRANCH   5   7
ATOM      7  N   UNL     1       0.622   9.493  21.277  0.00  0.00    +0.000 N 
ATOM      8  N   UNL     1       0.443   8.834  22.453  0.00  0.00    +0.000 NA
ATOM      9  C   UNL     1      -0.263   9.717  23.156  0.00  0.00    +0.000 A 
ATOM     10  C   UNL     1      -0.506  10.887  22.403  0.00  0.00    +0.000 A 
ATOM     11  N   UNL     1       0.099  10.746  21.213  0.00  0.00    +0.000 NA
BRANCH  10  12
ATOM     12  C   UNL     1      -1.284  12.074  22.762  0.00  0.00    +0.000 A 
ATOM     13  C   UNL     1      -0.731  13.359  22.662  0.00  0.00    +0.000 A 
ATOM     14  C   UNL     1      -1.467  14.486  23.047  0.00  0.00    +0.000 A 
ATOM     15  C   UNL     1      -2.762  14.336  23.534  0.00  0.00    +0.000 A 
ATOM     16 CL   UNL     1      -3.656  15.721  24.023  0.00  0.00    +0.000 Cl
ATOM     17  C   UNL     1      -3.334  13.070  23.631  0.00  0.00    +0.000 A 
ATOM     18  C   UNL     1      -2.597  11.945  23.247  0.00  0.00    +0.000 A 
ENDBRANCH  10  12
ENDBRANCH   5   7
BRANCH   1  20
ATOM     19  C   UNL     1       2.260   4.783  20.563  0.00  0.00    +0.000 C 
ATOM     20  C   UNL     1       2.820   5.474  19.313  0.00  0.00    +0.000 C 
BRANCH  20  21
ATOM     21  S   UNL     1       4.665   5.448  19.308  0.00  0.00    +0.000 S 
BRANCH  21  22
ATOM     22  C   UNL     1       5.081   4.913  17.722  0.00  0.00    +0.000 A 
ATOM     23  N   UNL     1       4.276   4.536  16.756  0.00  0.00    +0.000 NA
ATOM     24  N   UNL     1       5.050   4.046  15.727  0.00  0.00    +0.000 NA
ATOM     25  C   UNL     1       6.307   4.172  16.084  0.00  0.00    +0.000 A 
ATOM     26  N   UNL     1       6.375   4.760  17.311  0.00  0.00    +0.000 N 
ATOM     27  C   UNL     1       7.579   5.153  17.993  0.00  0.00    +0.000 C 
ENDBRANCH  21  22
ENDBRANCH  20  21
ENDBRANCH   1  20
TORSDOF 5
ENDMDL
MODEL 8
REMARK VINA RESULT:      -7.8      5.528     11.245
REMARK  Name = 
REMARK  7 active torsions:
REMARK  status: ('A' for Active; 'I' for Inactive)
REMARK    1  A    between atoms: C_1  and  C_2
REMARK    2  A    between atoms: C_2  and  S_3
REMARK    3  A    between atoms: C_2  and  C_10
REMARK    4  A    between atoms: S_3  and  C_4
REMARK    5  A    between atoms: N_8  and  C_9
REMARK    6  A    between atoms: C_14  and  N_15
REMARK    7  A    between atoms: C_18  and  C_19
REMARK                            x       y       z     vdW  Elec       q    Type
REMARK                         _______ _______ _______ _____ _____    ______ ____
ROOT
ATOM      1  C   UNL     1       4.189   5.331  17.465  0.00  0.00    +0.000 A 
ATOM      2  C   UNL     1       3.761   4.023  17.754  0.00  0.00    +0.000 A 
ATOM      3  C   UNL     1       2.734   3.778  18.668  0.00  0.00    +0.000 A 
ATOM      4  C   UNL     1       2.122   4.836  19.334  0.00  0.00    +0.000 A 
ATOM      5  C   UNL     1       2.525   6.149  19.067  0.00  0.00    +0.000 A 
ATOM      6  C   UNL     1       3.538   6.393  18.124  0.00  0.00    +0.000 A 
ENDROOT
BRANCH   5   7
ATOM      7  N   UNL     1       1.936   7.230  19.772  0.00  0.00    +0.000 N 
ATOM      8  N   UNL     1       1.416   7.077  21.019  0.00  0.00    +0.000 NA
ATOM      9  C   UNL     1       0.910   8.286  21.254  0.00  0.00    +0.000 A 
ATOM     10  C   UNL     1       1.123   9.147  20.156  0.00  0.00    +0.000 A 
ATOM     11  N   UNL     1       1.815   8.469  19.226  0.00  0.00    +0.000 NA
BRANCH  10  12
ATOM     12  C   UNL     1       0.684  10.531  19.965  0.00  0.00    +0.000 A 
ATOM     13  C   UNL     1       1.011  11.529  20.896  0.00  0.00    +0.000 A 
ATOM     14  C   UNL     1       0.552  12.840  20.730  0.00  0.00    +0.000 A 
ATOM     15  C   UNL     1      -0.237  13.165  19.630  0.00  0.00    +0.000 A 
ATOM     16 CL   UNL     1      -0.814  14.772  19.438  0.00  0.00    +0.000 Cl
ATOM     17  C   UNL     1      -0.565  12.192  18.688  0.00  0.00    +0.000 A 
ATOM     18  C   UNL     1      -0.105  10.882  18.857  0.00  0.00    +0.000 A 
ENDBRANCH  10  12
ENDBRANCH   5   7
BRANCH   1  20
ATOM     19  C   UNL     1       5.039   6.793  15.541  0.00  0.00    +0.000 C 
ATOM     20  C   UNL     1       5.346   5.640  16.504  0.00  0.00    +0.000 C 
BRANCH  20  21
ATOM     21  S   UNL     1       5.759   4.095  15.584  0.00  0.00    +0.000 S 
BRANCH  21  22
ATOM     22  C   UNL     1       6.846   4.610  14.347  0.00  0.00    +0.000 A 
ATOM     23  N   UNL     1       7.870   5.423  14.455  0.00  0.00    +0.000 NA
ATOM     24  N   UNL     1       8.350   5.669  13.188  0.00  0.00    +0.000 NA
ATOM     25  C   UNL     1       7.624   4.969  12.347  0.00  0.00    +0.000 A 
ATOM     26  N   UNL     1       6.697   4.248  13.038  0.00  0.00    +0.000 N 
ATOM     27  C   UNL     1       5.785   3.288  12.476  0.00  0.00    +0.000 C 
ENDBRANCH  21  22
ENDBRANCH  20  21
ENDBRANCH   1  20
TORSDOF 5
ENDMDL
MODEL 9
REMARK VINA RESULT:      -7.8      4.664     10.436
REMARK  Name = 
REMARK  7 active torsions:
REMARK  status: ('A' for Active; 'I' for Inactive)
REMARK    1  A    between atoms: C_1  and  C_2
REMARK    2  A    between atoms: C_2  and  S_3
REMARK    3  A    between atoms: C_2  and  C_10
REMARK    4  A    between atoms: S_3  and  C_4
REMARK    5  A    between atoms: N_8  and  C_9
REMARK    6  A    between atoms: C_14  and  N_15
REMARK    7  A    between atoms: C_18  and  C_19
REMARK                            x       y       z     vdW  Elec       q    Type
REMARK                         _______ _______ _______ _____ _____    ______ ____
ROOT
ATOM      1  C   UNL     1       2.258   7.112  19.096  0.00  0.00    +0.000 A 
ATOM      2  C   UNL     1       2.347   7.887  17.925  0.00  0.00    +0.000 A 
ATOM      3  C   UNL     1       1.880   9.203  17.886  0.00  0.00    +0.000 A 
ATOM      4  C   UNL     1       1.292   9.772  19.011  0.00  0.00    +0.000 A 
ATOM      5  C   UNL     1       1.189   9.026  20.191  0.00  0.00    +0.000 A 
ATOM      6  C   UNL     1       1.688   7.713  20.236  0.00  0.00    +0.000 A 
ENDROOT
BRANCH   5   7
ATOM      7  N   UNL     1       0.553   9.583  21.330  0.00  0.00    +0.000 N 
ATOM      8  N   UNL     1       0.421   8.888  22.491  0.00  0.00    +0.000 NA
ATOM      9  C   UNL     1      -0.288   9.734  23.236  0.00  0.00    +0.000 A 
ATOM     10  C   UNL     1      -0.577  10.918  22.524  0.00  0.00    +0.000 A 
ATOM     11  N   UNL     1      -0.000  10.825  21.315  0.00  0.00    +0.000 NA
BRANCH  10  12
ATOM     12  C   UNL     1      -1.373  12.076  22.936  0.00  0.00    +0.000 A 
ATOM     13  C   UNL     1      -2.669  11.917  23.449  0.00  0.00    +0.000 A 
ATOM     14  C   UNL     1      -3.440  13.031  23.801  0.00  0.00    +0.000 A 
ATOM     15  C   UNL     1      -2.920  14.312  23.643  0.00  0.00    +0.000 A 
ATOM     16 CL   UNL     1      -3.877  15.679  24.059  0.00  0.00    +0.000 Cl
ATOM     17  C   UNL     1      -1.632  14.492  23.145  0.00  0.00    +0.000 A 
ATOM     18  C   UNL     1      -0.863  13.378  22.794  0.00  0.00    +0.000 A 
ENDBRANCH  10  12
ENDBRANCH   5   7
BRANCH   1  20
ATOM     19  C   UNL     1       2.044   4.862  20.301  0.00  0.00    +0.000 C 
ATOM     20  C   UNL     1       2.715   5.648  19.167  0.00  0.00    +0.000 C 
BRANCH  20  21
ATOM     21  S   UNL     1       4.552   5.625  19.335  0.00  0.00    +0.000 S 
BRANCH  21  22
ATOM     22  C   UNL     1       5.132   5.862  17.728  0.00  0.00    +0.000 A 
ATOM     23  N   UNL     1       5.717   6.924  17.226  0.00  0.00    +0.000 NA
ATOM     24  N   UNL     1       5.865   6.725  15.871  0.00  0.00    +0.000 NA
ATOM     25  C   UNL     1       5.397   5.529  15.594  0.00  0.00    +0.000 A 
ATOM     26  N   UNL     1       4.971   4.931  16.741  0.00  0.00    +0.000 N 
ATOM     27  C   UNL     1       4.486   3.582  16.859  0.00  0.00    +0.000 C 
ENDBRANCH  21  22
ENDBRANCH  20  21
ENDBRANCH   1  20
TORSDOF 5
ENDMDL
