MODEL 1
REMARK VINA RESULT:      -7.5      0.000      0.000
REMARK  Name = 
REMARK  8 active torsions:
REMARK  status: ('A' for Active; 'I' for Inactive)
REMARK    1  A    between atoms: C_1  and  C_2
REMARK    2  A    between atoms: C_2  and  S_3
REMARK    3  A    between atoms: C_2  and  C_10
REMARK    4  A    between atoms: S_3  and  C_4
REMARK    5  A    between atoms: N_8  and  C_9
REMARK    6  A    between atoms: C_14  and  N_15
REMARK    7  A    between atoms: C_16  and  C_18
REMARK    8  A    between atoms: C_20  and  C_21
REMARK                            x       y       z     vdW  Elec       q    Type
REMARK                         _______ _______ _______ _____ _____    ______ ____
ROOT
ATOM      1  C   UNL     1       1.846   6.629  20.013  0.00  0.00    +0.000 A 
ATOM      2  C   UNL     1       1.233   5.545  20.664  0.00  0.00    +0.000 A 
ATOM      3  C   UNL     1       1.471   4.241  20.249  0.00  0.00    +0.000 A 
ATOM      4  C   UNL     1       2.300   3.996  19.157  0.00  0.00    +0.000 A 
ATOM      5  C   UNL     1       2.901   5.045  18.452  0.00  0.00    +0.000 A 
ATOM      6  C   UNL     1       2.685   6.354  18.903  0.00  0.00    +0.000 A 
ENDROOT
BRANCH   5   7
ATOM      7  N   UNL     1       3.726   4.827  17.324  0.00  0.00    +0.000 N 
ATOM      8  C   UNL     1       5.076   4.477  17.367  0.00  0.00    +0.000 C 
ATOM      9  O   UNL     1       5.681   4.234  18.413  0.00  0.00    +0.000 OA
ATOM     10  H   UNL     1       3.302   4.865  16.400  0.00  0.00    +0.000 HD
BRANCH   8  11
ATOM     11  C   UNL     1       5.740   4.394  16.065  0.00  0.00    +0.000 A 
ATOM     12  N   UNL     1       5.249   3.793  14.994  0.00  0.00    +0.000 NA
ATOM     13  C   UNL     1       6.109   4.009  13.896  0.00  0.00    +0.000 A 
ATOM     14  C   UNL     1       7.252   4.731  14.204  0.00  0.00    +0.000 A 
ATOM     15  S   UNL     1       7.263   5.167  15.852  0.00  0.00    +0.000 S 
BRANCH  13  16
ATOM     16  C   UNL     1       5.765   3.532  12.515  0.00  0.00    +0.000 C 
ATOM     17  F   UNL     1       6.512   4.117  11.546  0.00  0.00    +0.000 F 
ATOM     18  F   UNL     1       5.954   2.189  12.402  0.00  0.00    +0.000 F 
ATOM     19  F   UNL     1       4.461   3.764  12.208  0.00  0.00    +0.000 F 
ENDBRANCH  13  16
ENDBRANCH   8  11
ENDBRANCH   5   7
BRANCH   1  21
ATOM     20  C   UNL     1       0.435   8.260  21.411  0.00  0.00    +0.000 C 
ATOM     21  C   UNL     1       1.637   8.080  20.465  0.00  0.00    +0.000 C 
BRANCH  21  22
ATOM     22  S   UNL     1       1.450   9.136  18.974  0.00  0.00    +0.000 S 
BRANCH  22  23
ATOM     23  C   UNL     1       0.640  10.535  19.569  0.00  0.00    +0.000 A 
ATOM     24  N   UNL     1       1.054  11.393  20.469  0.00  0.00    +0.000 NA
ATOM     25  N   UNL     1       0.047  12.319  20.656  0.00  0.00    +0.000 NA
ATOM     26  C   UNL     1      -0.944  11.996  19.856  0.00  0.00    +0.000 A 
ATOM     27  N   UNL     1      -0.602  10.896  19.132  0.00  0.00    +0.000 N 
ATOM     28  C   UNL     1      -1.409  10.252  18.129  0.00  0.00    +0.000 C 
ENDBRANCH  22  23
ENDBRANCH  21  22
ENDBRANCH   1  21
TORSDOF 6
ENDMDL
MODEL 2
REMARK VINA RESULT:      -7.4      5.189      8.732
REMARK  Name = 
REMARK  8 active torsions:
REMARK  status: ('A' for Active; 'I' for Inactive)
REMARK    1  A    between atoms: C_1  and  C_2
REMARK    2  A    between atoms: C_2  and  S_3
REMARK    3  A    between atoms: C_2  and  C_10
REMARK    4  A    between atoms: S_3  and  C_4
REMARK    5  A    between atoms: N_8  and  C_9
REMARK    6  A    between atoms: C_14  and  N_15
REMARK    7  A    between atoms: C_16  and  C_18
REMARK    8  A    between atoms: C_20  and  C_21
REMARK                            x       y       z     vdW  Elec       q    Type
REMARK                         _______ _______ _______ _____ _____    ______ ____
ROOT
ATOM      1  C   UNL     1       4.370   4.556  16.840  0.00  0.00    +0.000 A 
ATOM      2  C   UNL     1       3.847   3.262  17.006  0.00  0.00    +0.000 A 
ATOM      3  C   UNL     1       2.698   3.053  17.758  0.00  0.00    +0.000 A 
ATOM      4  C   UNL     1       2.068   4.125  18.384  0.00  0.00    +0.000 A 
ATOM      5  C   UNL     1       2.575   5.425  18.282  0.00  0.00    +0.000 A 
ATOM      6  C   UNL     1       3.712   5.631  17.490  0.00  0.00    +0.000 A 
ENDROOT
BRANCH   5   7
ATOM      7  N   UNL     1       1.970   6.529  18.929  0.00  0.00    +0.000 N 
ATOM      8  C   UNL     1       2.154   7.867  18.582  0.00  0.00    +0.000 C 
ATOM      9  O   UNL     1       2.808   8.231  17.603  0.00  0.00    +0.000 OA
ATOM     10  H   UNL     1       1.298   6.345  19.670  0.00  0.00    +0.000 HD
BRANCH   8  11
ATOM     11  C   UNL     1       1.491   8.835  19.459  0.00  0.00    +0.000 A 
ATOM     12  N   UNL     1       1.011   8.571  20.663  0.00  0.00    +0.000 NA
ATOM     13  C   UNL     1       0.545   9.763  21.256  0.00  0.00    +0.000 A 
ATOM     14  C   UNL     1       0.648  10.880  20.441  0.00  0.00    +0.000 A 
ATOM     15  S   UNL     1       1.343  10.469  18.940  0.00  0.00    +0.000 S 
BRANCH  13  16
ATOM     16  C   UNL     1       0.035   9.798  22.667  0.00  0.00    +0.000 C 
ATOM     17  F   UNL     1      -0.461  11.009  23.027  0.00  0.00    +0.000 F 
ATOM     18  F   UNL     1      -0.967   8.893  22.846  0.00  0.00    +0.000 F 
ATOM     19  F   UNL     1       1.005   9.482  23.565  0.00  0.00    +0.000 F 
ENDBRANCH  13  16
ENDBRANCH   8  11
ENDBRANCH   5   7
BRANCH   1  21
ATOM     20  C   UNL     1       5.718   3.932  14.742  0.00  0.00    +0.000 C 
ATOM     21  C   UNL     1       5.616   4.833  15.988  0.00  0.00    +0.000 C 
BRANCH  21  22
ATOM     22  S   UNL     1       7.104   4.643  17.047  0.00  0.00    +0.000 S 
BRANCH  22  23
ATOM     23  C   UNL     1       7.504   6.263  17.475  0.00  0.00    +0.000 A 
ATOM     24  N   UNL     1       7.424   7.342  16.735  0.00  0.00    +0.000 NA
ATOM     25  N   UNL     1       7.899   8.398  17.487  0.00  0.00    +0.000 NA
ATOM     26  C   UNL     1       8.246   7.925  18.664  0.00  0.00    +0.000 A 
ATOM     27  N   UNL     1       7.987   6.590  18.709  0.00  0.00    +0.000 N 
ATOM     28  C   UNL     1       8.203   5.718  19.833  0.00  0.00    +0.000 C 
ENDBRANCH  22  23
ENDBRANCH  21  22
ENDBRANCH   1  21
TORSDOF 6
ENDMDL
MODEL 3
REMARK VINA RESULT:      -7.4      6.843      9.631
REMARK  Name = 
REMARK  8 active torsions:
REMARK  status: ('A' for Active; 'I' for Inactive)
REMARK    1  A    between atoms: C_1  and  C_2
REMARK    2  A    between atoms: C_2  and  S_3
REMARK    3  A    between atoms: C_2  and  C_10
REMARK    4  A    between atoms: S_3  and  C_4
REMARK    5  A    between atoms: N_8  and  C_9
REMARK    6  A    between atoms: C_14  and  N_15
REMARK    7  A    between atoms: C_16  and  C_18
REMARK    8  A    between atoms: C_20  and  C_21
REMARK                            x       y       z     vdW  Elec       q    Type
REMARK                         _______ _______ _______ _____ _____    ______ ____
ROOT
ATOM      1  C   UNL     1       6.400   6.277  17.421  0.00  0.00    +0.000 A 
ATOM      2  C   UNL     1       6.983   5.468  18.411  0.00  0.00    +0.000 A 
ATOM      3  C   UNL     1       8.004   5.957  19.216  0.00  0.00    +0.000 A 
ATOM      4  C   UNL     1       8.485   7.250  19.026  0.00  0.00    +0.000 A 
ATOM      5  C   UNL     1       7.964   8.078  18.026  0.00  0.00    +0.000 A 
ATOM      6  C   UNL     1       6.908   7.589  17.245  0.00  0.00    +0.000 A 
ENDROOT
BRANCH   5   7
ATOM      7  N   UNL     1       8.451   9.387  17.794  0.00  0.00    +0.000 N 
ATOM      8  C   UNL     1       8.957  10.244  18.770  0.00  0.00    +0.000 C 
ATOM      9  O   UNL     1       9.116   9.914  19.947  0.00  0.00    +0.000 OA
ATOM     10  H   UNL     1       8.498   9.721  16.834  0.00  0.00    +0.000 HD
BRANCH   8  11
ATOM     11  C   UNL     1       9.317  11.583  18.298  0.00  0.00    +0.000 A 
ATOM     12  N   UNL     1       8.524  12.641  18.325  0.00  0.00    +0.000 NA
ATOM     13  C   UNL     1       9.240  13.778  17.895  0.00  0.00    +0.000 A 
ATOM     14  C   UNL     1      10.545  13.514  17.509  0.00  0.00    +0.000 A 
ATOM     15  S   UNL     1      10.905  11.858  17.695  0.00  0.00    +0.000 S 
BRANCH  13  16
ATOM     16  C   UNL     1       8.632  15.150  17.914  0.00  0.00    +0.000 C 
ATOM     17  F   UNL     1       9.375  16.073  17.254  0.00  0.00    +0.000 F 
ATOM     18  F   UNL     1       7.401  15.146  17.332  0.00  0.00    +0.000 F 
ATOM     19  F   UNL     1       8.457  15.610  19.181  0.00  0.00    +0.000 F 
ENDBRANCH  13  16
ENDBRANCH   8  11
ENDBRANCH   5   7
BRANCH   1  21
ATOM     20  C   UNL     1       3.922   5.606  17.304  0.00  0.00    +0.000 C 
ATOM     21  C   UNL     1       5.246   5.786  16.537  0.00  0.00    +0.000 C 
BRANCH  21  22
ATOM     22  S   UNL     1       5.750   4.211  15.738  0.00  0.00    +0.000 S 
BRANCH  22  23
ATOM     23  C   UNL     1       6.804   4.720  14.473  0.00  0.00    +0.000 A 
ATOM     24  N   UNL     1       7.827   5.535  14.547  0.00  0.00    +0.000 NA
ATOM     25  N   UNL     1       8.336   5.682  13.272  0.00  0.00    +0.000 NA
ATOM     26  C   UNL     1       7.607   4.943  12.465  0.00  0.00    +0.000 A 
ATOM     27  N   UNL     1       6.648   4.298  13.185  0.00  0.00    +0.000 N 
ATOM     28  C   UNL     1       5.671   3.376  12.668  0.00  0.00    +0.000 C 
ENDBRANCH  22  23
ENDBRANCH  21  22
ENDBRANCH   1  21
TORSDOF 6
ENDMDL
MODEL 4
REMARK VINA RESULT:      -7.4      0.901      1.134
REMARK  Name = 
REMARK  8 active torsions:
REMARK  status: ('A' for Active; 'I' for Inactive)
REMARK    1  A    between atoms: C_1  and  C_2
REMARK    2  A    between atoms: C_2  and  S_3
REMARK    3  A    between atoms: C_2  and  C_10
REMARK    4  A    between atoms: S_3  and  C_4
REMARK    5  A    between atoms: N_8  and  C_9
REMARK    6  A    between atoms: C_14  and  N_15
REMARK    7  A    between atoms: C_16  and  C_18
REMARK    8  A    between atoms: C_20  and  C_21
REMARK                            x       y       z     vdW  Elec       q    Type
REMARK                         _______ _______ _______ _____ _____    ______ ____
ROOT
ATOM      1  C   UNL     1       2.011   7.108  20.080  0.00  0.00    +0.000 A 
ATOM      2  C   UNL     1       1.653   6.016  20.888  0.00  0.00    +0.000 A 
ATOM      3  C   UNL     1       2.178   4.752  20.646  0.00  0.00    +0.000 A 
ATOM      4  C   UNL     1       3.045   4.549  19.576  0.00  0.00    +0.000 A 
ATOM      5  C   UNL     1       3.399   5.598  18.720  0.00  0.00    +0.000 A 
ATOM      6  C   UNL     1       2.894   6.876  18.995  0.00  0.00    +0.000 A 
ENDROOT
BRANCH   5   7
ATOM      7  N   UNL     1       4.257   5.415  17.609  0.00  0.00    +0.000 N 
ATOM      8  C   UNL     1       4.201   4.347  16.714  0.00  0.00    +0.000 C 
ATOM      9  O   UNL     1       3.327   3.478  16.747  0.00  0.00    +0.000 OA
ATOM     10  H   UNL     1       4.935   6.143  17.398  0.00  0.00    +0.000 HD
BRANCH   8  11
ATOM     11  C   UNL     1       5.254   4.331  15.697  0.00  0.00    +0.000 A 
ATOM     12  N   UNL     1       5.140   3.808  14.487  0.00  0.00    +0.000 NA
ATOM     13  C   UNL     1       6.311   4.074  13.746  0.00  0.00    +0.000 A 
ATOM     14  C   UNL     1       7.291   4.750  14.456  0.00  0.00    +0.000 A 
ATOM     15  S   UNL     1       6.763   5.082  16.043  0.00  0.00    +0.000 S 
BRANCH  13  16
ATOM     16  C   UNL     1       6.436   3.691  12.300  0.00  0.00    +0.000 C 
ATOM     17  F   UNL     1       6.922   2.438  12.119  0.00  0.00    +0.000 F 
ATOM     18  F   UNL     1       5.227   3.739  11.677  0.00  0.00    +0.000 F 
ATOM     19  F   UNL     1       7.254   4.538  11.620  0.00  0.00    +0.000 F 
ENDBRANCH  13  16
ENDBRANCH   8  11
ENDBRANCH   5   7
BRANCH   1  21
ATOM     20  C   UNL     1       0.186   8.553  21.170  0.00  0.00    +0.000 C 
ATOM     21  C   UNL     1       1.481   8.525  20.337  0.00  0.00    +0.000 C 
BRANCH  21  22
ATOM     22  S   UNL     1       1.227   9.357  18.719  0.00  0.00    +0.000 S 
BRANCH  22  23
ATOM     23  C   UNL     1       0.371  10.793  19.134  0.00  0.00    +0.000 A 
ATOM     24  N   UNL     1       0.775  11.793  19.878  0.00  0.00    +0.000 NA
ATOM     25  N   UNL     1      -0.269  12.693  19.969  0.00  0.00    +0.000 NA
ATOM     26  C   UNL     1      -1.272  12.210  19.268  0.00  0.00    +0.000 A 
ATOM     27  N   UNL     1      -0.903  11.029  18.702  0.00  0.00    +0.000 N 
ATOM     28  C   UNL     1      -1.712  10.207  17.842  0.00  0.00    +0.000 C 
ENDBRANCH  22  23
ENDBRANCH  21  22
ENDBRANCH   1  21
TORSDOF 6
ENDMDL
MODEL 5
REMARK VINA RESULT:      -7.3      3.279      4.803
REMARK  Name = 
REMARK  8 active torsions:
REMARK  status: ('A' for Active; 'I' for Inactive)
REMARK    1  A    between atoms: C_1  and  C_2
REMARK    2  A    between atoms: C_2  and  S_3
REMARK    3  A    between atoms: C_2  and  C_10
REMARK    4  A    between atoms: S_3  and  C_4
REMARK    5  A    between atoms: N_8  and  C_9
REMARK    6  A    between atoms: C_14  and  N_15
REMARK    7  A    between atoms: C_16  and  C_18
REMARK    8  A    between atoms: C_20  and  C_21
REMARK                            x       y       z     vdW  Elec       q    Type
REMARK                         _______ _______ _______ _____ _____    ______ ____
ROOT
ATOM      1  C   UNL     1      -0.074  10.621  19.719  0.00  0.00    +0.000 A 
ATOM      2  C   UNL     1      -0.460  10.536  21.068  0.00  0.00    +0.000 A 
ATOM      3  C   UNL     1       0.058   9.545  21.892  0.00  0.00    +0.000 A 
ATOM      4  C   UNL     1       0.946   8.603  21.380  0.00  0.00    +0.000 A 
ATOM      5  C   UNL     1       1.328   8.624  20.034  0.00  0.00    +0.000 A 
ATOM      6  C   UNL     1       0.830   9.649  19.220  0.00  0.00    +0.000 A 
ENDROOT
BRANCH   5   7
ATOM      7  N   UNL     1       2.208   7.664  19.480  0.00  0.00    +0.000 N 
ATOM      8  C   UNL     1       2.713   7.687  18.180  0.00  0.00    +0.000 C 
ATOM      9  O   UNL     1       2.510   8.611  17.389  0.00  0.00    +0.000 OA
ATOM     10  H   UNL     1       2.557   6.923  20.084  0.00  0.00    +0.000 HD
BRANCH   8  11
ATOM     11  C   UNL     1       3.536   6.533  17.810  0.00  0.00    +0.000 A 
ATOM     12  N   UNL     1       4.796   6.589  17.415  0.00  0.00    +0.000 NA
ATOM     13  C   UNL     1       5.298   5.281  17.251  0.00  0.00    +0.000 A 
ATOM     14  C   UNL     1       4.365   4.282  17.484  0.00  0.00    +0.000 A 
ATOM     15  S   UNL     1       2.862   4.954  17.929  0.00  0.00    +0.000 S 
BRANCH  13  16
ATOM     16  C   UNL     1       6.735   5.021  16.905  0.00  0.00    +0.000 C 
ATOM     17  F   UNL     1       7.447   4.499  17.934  0.00  0.00    +0.000 F 
ATOM     18  F   UNL     1       6.836   4.143  15.869  0.00  0.00    +0.000 F 
ATOM     19  F   UNL     1       7.375   6.155  16.512  0.00  0.00    +0.000 F 
ENDBRANCH  13  16
ENDBRANCH   8  11
ENDBRANCH   5   7
BRANCH   1  21
ATOM     20  C   UNL     1      -0.113  13.133  19.173  0.00  0.00    +0.000 C 
ATOM     21  C   UNL     1      -0.596  11.722  18.786  0.00  0.00    +0.000 C 
BRANCH  21  22
ATOM     22  S   UNL     1      -2.431  11.651  18.766  0.00  0.00    +0.000 S 
BRANCH  22  23
ATOM     23  C   UNL     1      -2.790  10.952  17.232  0.00  0.00    +0.000 A 
ATOM     24  N   UNL     1      -2.039  10.167  16.501  0.00  0.00    +0.000 NA
ATOM     25  N   UNL     1      -2.726   9.901  15.333  0.00  0.00    +0.000 NA
ATOM     26  C   UNL     1      -3.879  10.530  15.398  0.00  0.00    +0.000 A 
ATOM     27  N   UNL     1      -3.973  11.182  16.589  0.00  0.00    +0.000 N 
ATOM     28  C   UNL     1      -5.092  11.961  17.048  0.00  0.00    +0.000 C 
ENDBRANCH  22  23
ENDBRANCH  21  22
ENDBRANCH   1  21
TORSDOF 6
ENDMDL
MODEL 6
REMARK VINA RESULT:      -7.3      3.833      5.180
REMARK  Name = 
REMARK  8 active torsions:
REMARK  status: ('A' for Active; 'I' for Inactive)
REMARK    1  A    between atoms: C_1  and  C_2
REMARK    2  A    between atoms: C_2  and  S_3
REMARK    3  A    between atoms: C_2  and  C_10
REMARK    4  A    between atoms: S_3  and  C_4
REMARK    5  A    between atoms: N_8  and  C_9
REMARK    6  A    between atoms: C_14  and  N_15
REMARK    7  A    between atoms: C_16  and  C_18
REMARK    8  A    between atoms: C_20  and  C_21
REMARK                            x       y       z     vdW  Elec       q    Type
REMARK                         _______ _______ _______ _____ _____    ______ ____
ROOT
ATOM      1  C   UNL     1       0.442  10.543  19.975  0.00  0.00    +0.000 A 
ATOM      2  C   UNL     1      -0.037  10.794  21.272  0.00  0.00    +0.000 A 
ATOM      3  C   UNL     1       0.181   9.882  22.297  0.00  0.00    +0.000 A 
ATOM      4  C   UNL     1       0.853   8.690  22.041  0.00  0.00    +0.000 A 
ATOM      5  C   UNL     1       1.312   8.378  20.756  0.00  0.00    +0.000 A 
ATOM      6  C   UNL     1       1.121   9.321  19.738  0.00  0.00    +0.000 A 
ENDROOT
BRANCH   5   7
ATOM      7  N   UNL     1       1.974   7.162  20.461  0.00  0.00    +0.000 N 
ATOM      8  C   UNL     1       2.586   6.851  19.247  0.00  0.00    +0.000 C 
ATOM      9  O   UNL     1       2.692   7.650  18.315  0.00  0.00    +0.000 OA
ATOM     10  H   UNL     1       2.072   6.473  21.203  0.00  0.00    +0.000 HD
BRANCH   8  11
ATOM     11  C   UNL     1       3.128   5.494  19.153  0.00  0.00    +0.000 A 
ATOM     12  N   UNL     1       2.412   4.396  18.978  0.00  0.00    +0.000 NA
ATOM     13  C   UNL     1       3.274   3.290  18.823  0.00  0.00    +0.000 A 
ATOM     14  C   UNL     1       4.620   3.599  18.941  0.00  0.00    +0.000 A 
ATOM     15  S   UNL     1       4.832   5.267  19.224  0.00  0.00    +0.000 S 
BRANCH  13  16
ATOM     16  C   UNL     1       2.753   1.918  18.507  0.00  0.00    +0.000 C 
ATOM     17  F   UNL     1       1.791   1.500  19.367  0.00  0.00    +0.000 F 
ATOM     18  F   UNL     1       2.210   1.878  17.259  0.00  0.00    +0.000 F 
ATOM     19  F   UNL     1       3.740   0.983  18.528  0.00  0.00    +0.000 F 
ENDBRANCH  13  16
ENDBRANCH   8  11
ENDBRANCH   5   7
BRANCH   1  21
ATOM     20  C   UNL     1       1.449  12.493  18.638  0.00  0.00    +0.000 C 
ATOM     21  C   UNL     1       0.253  11.541  18.825  0.00  0.00    +0.000 C 
BRANCH  21  22
ATOM     22  S   UNL     1      -1.289  12.493  19.123  0.00  0.00    +0.000 S 
BRANCH  22  23
ATOM     23  C   UNL     1      -2.441  11.726  18.097  0.00  0.00    +0.000 A 
ATOM     24  N   UNL     1      -2.231  11.100  16.965  0.00  0.00    +0.000 NA
ATOM     25  N   UNL     1      -3.459  10.695  16.479  0.00  0.00    +0.000 NA
ATOM     26  C   UNL     1      -4.375  11.083  17.339  0.00  0.00    +0.000 A 
ATOM     27  N   UNL     1      -3.776  11.712  18.386  0.00  0.00    +0.000 N 
ATOM     28  C   UNL     1      -4.435  12.256  19.544  0.00  0.00    +0.000 C 
ENDBRANCH  22  23
ENDBRANCH  21  22
ENDBRANCH   1  21
TORSDOF 6
ENDMDL
MODEL 7
REMARK VINA RESULT:      -7.2      1.349      1.456
REMARK  Name = 
REMARK  8 active torsions:
REMARK  status: ('A' for Active; 'I' for Inactive)
REMARK    1  A    between atoms: C_1  and  C_2
REMARK    2  A    between atoms: C_2  and  S_3
REMARK    3  A    between atoms: C_2  and  C_10
REMARK    4  A    between atoms: S_3  and  C_4
REMARK    5  A    between atoms: N_8  and  C_9
REMARK    6  A    between atoms: C_14  and  N_15
REMARK    7  A    between atoms: C_16  and  C_18
REMARK    8  A    between atoms: C_20  and  C_21
REMARK                            x       y       z     vdW  Elec       q    Type
REMARK                         _______ _______ _______ _____ _____    ______ ____
ROOT
ATOM      1  C   UNL     1       1.960   7.411  19.930  0.00  0.00    +0.000 A 
ATOM      2  C   UNL     1       1.632   6.365  20.810  0.00  0.00    +0.000 A 
ATOM      3  C   UNL     1       2.177   5.099  20.641  0.00  0.00    +0.000 A 
ATOM      4  C   UNL     1       3.034   4.844  19.574  0.00  0.00    +0.000 A 
ATOM      5  C   UNL     1       3.358   5.843  18.649  0.00  0.00    +0.000 A 
ATOM      6  C   UNL     1       2.833   7.126  18.850  0.00  0.00    +0.000 A 
ENDROOT
BRANCH   5   7
ATOM      7  N   UNL     1       4.205   5.605  17.541  0.00  0.00    +0.000 N 
ATOM      8  C   UNL     1       4.249   4.426  16.796  0.00  0.00    +0.000 C 
ATOM      9  O   UNL     1       3.479   3.480  16.977  0.00  0.00    +0.000 OA
ATOM     10  H   UNL     1       4.793   6.366  17.210  0.00  0.00    +0.000 HD
BRANCH   8  11
ATOM     11  C   UNL     1       5.273   4.386  15.751  0.00  0.00    +0.000 A 
ATOM     12  N   UNL     1       5.120   3.852  14.552  0.00  0.00    +0.000 NA
ATOM     13  C   UNL     1       6.273   4.095  13.776  0.00  0.00    +0.000 A 
ATOM     14  C   UNL     1       7.279   4.768  14.451  0.00  0.00    +0.000 A 
ATOM     15  S   UNL     1       6.799   5.125  16.048  0.00  0.00    +0.000 S 
BRANCH  13  16
ATOM     16  C   UNL     1       6.355   3.695  12.331  0.00  0.00    +0.000 C 
ATOM     17  F   UNL     1       7.214   4.459  11.612  0.00  0.00    +0.000 F 
ATOM     18  F   UNL     1       6.774   2.406  12.206  0.00  0.00    +0.000 F 
ATOM     19  F   UNL     1       5.145   3.767  11.716  0.00  0.00    +0.000 F 
ENDBRANCH  13  16
ENDBRANCH   8  11
ENDBRANCH   5   7
BRANCH   1  21
ATOM     20  C   UNL     1       0.258   8.921  21.127  0.00  0.00    +0.000 C 
ATOM     21  C   UNL     1       1.407   8.832  20.105  0.00  0.00    +0.000 C 
BRANCH  21  22
ATOM     22  S   UNL     1       0.864   9.453  18.465  0.00  0.00    +0.000 S 
BRANCH  22  23
ATOM     23  C   UNL     1       1.347  11.107  18.480  0.00  0.00    +0.000 A 
ATOM     24  N   UNL     1       2.479  11.627  18.072  0.00  0.00    +0.000 NA
ATOM     25  N   UNL     1       2.430  12.983  18.327  0.00  0.00    +0.000 NA
ATOM     26  C   UNL     1       1.263  13.244  18.875  0.00  0.00    +0.000 A 
ATOM     27  N   UNL     1       0.538  12.095  18.964  0.00  0.00    +0.000 N 
ATOM     28  C   UNL     1      -0.799  11.970  19.481  0.00  0.00    +0.000 C 
ENDBRANCH  22  23
ENDBRANCH  21  22
ENDBRANCH   1  21
TORSDOF 6
ENDMDL
MODEL 8
REMARK VINA RESULT:      -7.2      1.032      1.460
REMARK  Name = 
REMARK  8 active torsions:
REMARK  status: ('A' for Active; 'I' for Inactive)
REMARK    1  A    between atoms: C_1  and  C_2
REMARK    2  A    between atoms: C_2  and  S_3
REMARK    3  A    between atoms: C_2  and  C_10
REMARK    4  A    between atoms: S_3  and  C_4
REMARK    5  A    between atoms: N_8  and  C_9
REMARK    6  A    between atoms: C_14  and  N_15
REMARK    7  A    between atoms: C_16  and  C_18
REMARK    8  A    between atoms: C_20  and  C_21
REMARK                            x       y       z     vdW  Elec       q    Type
REMARK                         _______ _______ _______ _____ _____    ______ ____
ROOT
ATOM      1  C   UNL     1       1.950   7.040  19.910  0.00  0.00    +0.000 A 
ATOM      2  C   UNL     1       1.389   5.995  20.662  0.00  0.00    +0.000 A 
ATOM      3  C   UNL     1       1.656   4.669  20.345  0.00  0.00    +0.000 A 
ATOM      4  C   UNL     1       2.462   4.361  19.252  0.00  0.00    +0.000 A 
ATOM      5  C   UNL     1       3.010   5.368  18.449  0.00  0.00    +0.000 A 
ATOM      6  C   UNL     1       2.766   6.702  18.800  0.00  0.00    +0.000 A 
ENDROOT
BRANCH   5   7
ATOM      7  N   UNL     1       3.811   5.083  17.317  0.00  0.00    +0.000 N 
ATOM      8  C   UNL     1       5.113   4.583  17.355  0.00  0.00    +0.000 C 
ATOM      9  O   UNL     1       5.682   4.249  18.396  0.00  0.00    +0.000 OA
ATOM     10  H   UNL     1       3.398   5.190  16.394  0.00  0.00    +0.000 HD
BRANCH   8  11
ATOM     11  C   UNL     1       5.769   4.455  16.052  0.00  0.00    +0.000 A 
ATOM     12  N   UNL     1       5.268   3.826  15.003  0.00  0.00    +0.000 NA
ATOM     13  C   UNL     1       6.123   4.002  13.895  0.00  0.00    +0.000 A 
ATOM     14  C   UNL     1       7.273   4.724  14.174  0.00  0.00    +0.000 A 
ATOM     15  S   UNL     1       7.297   5.210  15.808  0.00  0.00    +0.000 S 
BRANCH  13  16
ATOM     16  C   UNL     1       5.768   3.485  12.530  0.00  0.00    +0.000 C 
ATOM     17  F   UNL     1       5.957   2.149  12.399  0.00  0.00    +0.000 F 
ATOM     18  F   UNL     1       4.460   3.729  12.243  0.00  0.00    +0.000 F 
ATOM     19  F   UNL     1       6.496   4.089  11.554  0.00  0.00    +0.000 F 
ENDBRANCH  13  16
ENDBRANCH   8  11
ENDBRANCH   5   7
BRANCH   1  21
ATOM     20  C   UNL     1       1.006   8.725  21.606  0.00  0.00    +0.000 C 
ATOM     21  C   UNL     1       1.709   8.517  20.251  0.00  0.00    +0.000 C 
BRANCH  21  22
ATOM     22  S   UNL     1       0.735   9.279  18.893  0.00  0.00    +0.000 S 
BRANCH  22  23
ATOM     23  C   UNL     1       1.374  10.875  18.785  0.00  0.00    +0.000 A 
ATOM     24  N   UNL     1       2.394  11.296  18.078  0.00  0.00    +0.000 NA
ATOM     25  N   UNL     1       2.562  12.639  18.347  0.00  0.00    +0.000 NA
ATOM     26  C   UNL     1       1.631  12.992  19.206  0.00  0.00    +0.000 A 
ATOM     27  N   UNL     1       0.844  11.919  19.487  0.00  0.00    +0.000 N 
ATOM     28  C   UNL     1      -0.299  11.906  20.362  0.00  0.00    +0.000 C 
ENDBRANCH  22  23
ENDBRANCH  21  22
ENDBRANCH   1  21
TORSDOF 6
ENDMDL
MODEL 9
REMARK VINA RESULT:      -7.2      0.899      1.496
REMARK  Name = 
REMARK  8 active torsions:
REMARK  status: ('A' for Active; 'I' for Inactive)
REMARK    1  A    between atoms: C_1  and  C_2
REMARK    2  A    between atoms: C_2  and  S_3
REMARK    3  A    between atoms: C_2  and  C_10
REMARK    4  A    between atoms: S_3  and  C_4
REMARK    5  A    between atoms: N_8  and  C_9
REMARK    6  A    between atoms: C_14  and  N_15
REMARK    7  A    between atoms: C_16  and  C_18
REMARK    8  A    between atoms: C_20  and  C_21
REMARK                            x       y       z     vdW  Elec       q    Type
REMARK                         _______ _______ _______ _____ _____    ______ ____
ROOT
ATOM      1  C   UNL     1       1.868   7.365  19.977  0.00  0.00    +0.000 A 
ATOM      2  C   UNL     1       1.481   6.314  20.825  0.00  0.00    +0.000 A 
ATOM      3  C   UNL     1       1.927   5.018  20.598  0.00  0.00    +0.000 A 
ATOM      4  C   UNL     1       2.740   4.741  19.502  0.00  0.00    +0.000 A 
ATOM      5  C   UNL     1       3.118   5.748  18.607  0.00  0.00    +0.000 A 
ATOM      6  C   UNL     1       2.695   7.058  18.867  0.00  0.00    +0.000 A 
ENDROOT
BRANCH   5   7
ATOM      7  N   UNL     1       3.922   5.490  17.471  0.00  0.00    +0.000 N 
ATOM      8  C   UNL     1       4.543   4.276  17.180  0.00  0.00    +0.000 C 
ATOM      9  O   UNL     1       4.385   3.255  17.852  0.00  0.00    +0.000 OA
ATOM     10  H   UNL     1       4.015   6.221  16.769  0.00  0.00    +0.000 HD
BRANCH   8  11
ATOM     11  C   UNL     1       5.398   4.282  15.991  0.00  0.00    +0.000 A 
ATOM     12  N   UNL     1       5.111   3.695  14.842  0.00  0.00    +0.000 NA
ATOM     13  C   UNL     1       6.109   4.002  13.893  0.00  0.00    +0.000 A 
ATOM     14  C   UNL     1       7.145   4.777  14.390  0.00  0.00    +0.000 A 
ATOM     15  S   UNL     1       6.883   5.150  16.033  0.00  0.00    +0.000 S 
BRANCH  13  16
ATOM     16  C   UNL     1       6.005   3.559  12.462  0.00  0.00    +0.000 C 
ATOM     17  F   UNL     1       6.277   2.242  12.289  0.00  0.00    +0.000 F 
ATOM     18  F   UNL     1       4.750   3.769  11.977  0.00  0.00    +0.000 F 
ATOM     19  F   UNL     1       6.850   4.251  11.654  0.00  0.00    +0.000 F 
ENDBRANCH  13  16
ENDBRANCH   8  11
ENDBRANCH   5   7
BRANCH   1  21
ATOM     20  C   UNL     1       0.211   8.939  21.153  0.00  0.00    +0.000 C 
ATOM     21  C   UNL     1       1.427   8.815  20.216  0.00  0.00    +0.000 C 
BRANCH  21  22
ATOM     22  S   UNL     1       1.074   9.595  18.591  0.00  0.00    +0.000 S 
BRANCH  22  23
ATOM     23  C   UNL     1      -0.173  10.729  18.950  0.00  0.00    +0.000 A 
ATOM     24  N   UNL     1      -1.466  10.592  18.790  0.00  0.00    +0.000 NA
ATOM     25  N   UNL     1      -2.060  11.780  19.169  0.00  0.00    +0.000 NA
ATOM     26  C   UNL     1      -1.105  12.597  19.555  0.00  0.00    +0.000 A 
ATOM     27  N   UNL     1       0.097  11.966  19.460  0.00  0.00    +0.000 N 
ATOM     28  C   UNL     1       1.378  12.517  19.814  0.00  0.00    +0.000 C 
ENDBRANCH  22  23
ENDBRANCH  21  22
ENDBRANCH   1  21
TORSDOF 6
ENDMDL
