MODEL 1
REMARK VINA RESULT:     -10.1      0.000      0.000
REMARK  Name = 
REMARK  9 active torsions:
REMARK  status: ('A' for Active; 'I' for Inactive)
REMARK    1  A    between atoms: C_1  and  N_2
REMARK    2  A    between atoms: N_8  and  C_9
REMARK    3  A    between atoms: C_13  and  C_14
REMARK    4  A    between atoms: N_20  and  C_21
REMARK    5  A    between atoms: C_25  and  C_26
REMARK    6  A    between atoms: C_26  and  C_27
REMARK    7  A    between atoms: C_26  and  C_29
REMARK    8  A    between atoms: C_29  and  C_32
REMARK    9  A    between atoms: N_36  and  C_37
REMARK                            x       y       z     vdW  Elec       q    Type
REMARK                         _______ _______ _______ _____ _____    ______ ____
ROOT
ATOM      1  C   UNL     1       3.915   5.247  17.654  0.00  0.00    +0.000 A 
ATOM      2  C   UNL     1       3.533   6.583  17.787  0.00  0.00    +0.000 A 
ATOM      3  C   UNL     1       2.708   6.927  18.843  0.00  0.00    +0.000 A 
ATOM      4  C   UNL     1       2.257   6.017  19.789  0.00  0.00    +0.000 A 
ATOM      5  C   UNL     1       2.607   4.676  19.683  0.00  0.00    +0.000 A 
ATOM      6  C   UNL     1       3.426   4.307  18.590  0.00  0.00    +0.000 A 
ATOM      7  C   UNL     1       1.423   6.732  20.807  0.00  0.00    +0.000 C 
ATOM      8  N   UNL     1       1.379   8.103  20.308  0.00  0.00    +0.000 N 
ATOM      9  C   UNL     1       2.159   8.248  19.157  0.00  0.00    +0.000 C 
ATOM     10  O   UNL     1       2.402   9.223  18.465  0.00  0.00    +0.000 OA
ENDROOT
BRANCH   1  18
ATOM     11  C   UNL     1       7.103   6.723  17.793  0.00  0.00    +0.000 C 
ATOM     12  N   UNL     1       7.334   5.914  16.594  0.00  0.00    +0.000 NA
ATOM     13  C   UNL     1       7.186   4.460  16.864  0.00  0.00    +0.000 C 
ATOM     14  C   UNL     1       5.803   3.883  16.484  0.00  0.00    +0.000 C 
ATOM     15  C   UNL     1       5.543   4.032  14.964  0.00  0.00    +0.000 C 
ATOM     16  C   UNL     1       5.152   5.474  15.367  0.00  0.00    +0.000 C 
ATOM     17  C   UNL     1       6.427   6.344  15.496  0.00  0.00    +0.000 C 
ATOM     18  N   UNL     1       4.752   4.855  16.607  0.00  0.00    +0.000 N 
ENDBRANCH   1  18
BRANCH   8  19
ATOM     19  C   UNL     1       0.582   9.104  20.914  0.00  0.00    +0.000 A 
ATOM     20  C   UNL     1       0.182   8.987  22.251  0.00  0.00    +0.000 A 
ATOM     21  C   UNL     1      -0.552   9.995  22.874  0.00  0.00    +0.000 A 
ATOM     22  C   UNL     1      -0.931  11.125  22.167  0.00  0.00    +0.000 A 
ATOM     23  C   UNL     1      -0.589  11.266  20.815  0.00  0.00    +0.000 A 
ATOM     24  C   UNL     1       0.188  10.256  20.208  0.00  0.00    +0.000 A 
BRANCH  23  25
ATOM     25  C   UNL     1      -1.059  12.475  19.999  0.00  0.00    +0.000 C 
ATOM     26  C   UNL     1      -2.060  12.002  18.931  0.00  0.00    +0.000 C 
ATOM     27  F   UNL     1      -1.773  13.364  20.775  0.00  0.00    +0.000 F 
BRANCH  25  28
ATOM     28  C   UNL     1       0.108  13.250  19.316  0.00  0.00    +0.000 C 
ATOM     29  F   UNL     1       0.652  12.485  18.318  0.00  0.00    +0.000 F 
ATOM     30  F   UNL     1      -0.406  14.336  18.654  0.00  0.00    +0.000 F 
BRANCH  28  31
ATOM     31  C   UNL     1       1.186  13.719  20.239  0.00  0.00    +0.000 A 
ATOM     32  N   UNL     1       1.148  13.849  21.553  0.00  0.00    +0.000 NA
ATOM     33  N   UNL     1       2.358  14.338  21.978  0.00  0.00    +0.000 NA
ATOM     34  C   UNL     1       3.113  14.507  20.920  0.00  0.00    +0.000 A 
ATOM     35  N   UNL     1       2.425  14.131  19.808  0.00  0.00    +0.000 N 
ATOM     36  C   UNL     1       2.915  14.181  18.456  0.00  0.00    +0.000 C 
ENDBRANCH  28  31
ENDBRANCH  25  28
ENDBRANCH  23  25
ENDBRANCH   8  19
BRANCH   5  37
ATOM     37  C   UNL     1       2.157   3.635  20.673  0.00  0.00    +0.000 C 
ATOM     38  F   UNL     1       2.668   2.397  20.432  0.00  0.00    +0.000 F 
ATOM     39  F   UNL     1       2.511   3.940  21.951  0.00  0.00    +0.000 F 
ATOM     40  F   UNL     1       0.805   3.482  20.683  0.00  0.00    +0.000 F 
ENDBRANCH   5  37
TORSDOF 6
ENDMDL
MODEL 2
REMARK VINA RESULT:     -10.0      0.752      1.163
REMARK  Name = 
REMARK  9 active torsions:
REMARK  status: ('A' for Active; 'I' for Inactive)
REMARK    1  A    between atoms: C_1  and  N_2
REMARK    2  A    between atoms: N_8  and  C_9
REMARK    3  A    between atoms: C_13  and  C_14
REMARK    4  A    between atoms: N_20  and  C_21
REMARK    5  A    between atoms: C_25  and  C_26
REMARK    6  A    between atoms: C_26  and  C_27
REMARK    7  A    between atoms: C_26  and  C_29
REMARK    8  A    between atoms: C_29  and  C_32
REMARK    9  A    between atoms: N_36  and  C_37
REMARK                            x       y       z     vdW  Elec       q    Type
REMARK                         _______ _______ _______ _____ _____    ______ ____
ROOT
ATOM      1  C   UNL     1       3.952   5.236  17.667  0.00  0.00    +0.000 A 
ATOM      2  C   UNL     1       3.559   6.574  17.737  0.00  0.00    +0.000 A 
ATOM      3  C   UNL     1       2.727   6.960  18.773  0.00  0.00    +0.000 A 
ATOM      4  C   UNL     1       2.280   6.091  19.758  0.00  0.00    +0.000 A 
ATOM      5  C   UNL     1       2.640   4.750  19.716  0.00  0.00    +0.000 A 
ATOM      6  C   UNL     1       3.467   4.336  18.644  0.00  0.00    +0.000 A 
ATOM      7  C   UNL     1       1.435   6.845  20.738  0.00  0.00    +0.000 C 
ATOM      8  N   UNL     1       1.382   8.191  20.176  0.00  0.00    +0.000 N 
ATOM      9  C   UNL     1       2.166   8.290  19.023  0.00  0.00    +0.000 C 
ATOM     10  O   UNL     1       2.405   9.234  18.287  0.00  0.00    +0.000 OA
ENDROOT
BRANCH   1  18
ATOM     11  C   UNL     1       7.092   6.819  17.688  0.00  0.00    +0.000 C 
ATOM     12  N   UNL     1       7.344   5.941  16.543  0.00  0.00    +0.000 NA
ATOM     13  C   UNL     1       7.243   4.503  16.909  0.00  0.00    +0.000 C 
ATOM     14  C   UNL     1       5.878   3.859  16.577  0.00  0.00    +0.000 C 
ATOM     15  C   UNL     1       5.607   3.899  15.052  0.00  0.00    +0.000 C 
ATOM     16  C   UNL     1       5.171   5.351  15.362  0.00  0.00    +0.000 C 
ATOM     17  C   UNL     1       6.418   6.268  15.425  0.00  0.00    +0.000 C 
ATOM     18  N   UNL     1       4.797   4.803  16.642  0.00  0.00    +0.000 N 
ENDBRANCH   1  18
BRANCH   8  19
ATOM     19  C   UNL     1       0.575   9.214  20.732  0.00  0.00    +0.000 A 
ATOM     20  C   UNL     1       0.173   9.157  22.072  0.00  0.00    +0.000 A 
ATOM     21  C   UNL     1      -0.573  10.186  22.645  0.00  0.00    +0.000 A 
ATOM     22  C   UNL     1      -0.959  11.278  21.884  0.00  0.00    +0.000 A 
ATOM     23  C   UNL     1      -0.614  11.357  20.527  0.00  0.00    +0.000 A 
ATOM     24  C   UNL     1       0.173  10.327  19.971  0.00  0.00    +0.000 A 
BRANCH  23  25
ATOM     25  C   UNL     1      -1.093  12.522  19.654  0.00  0.00    +0.000 C 
ATOM     26  C   UNL     1      -1.705  11.961  18.359  0.00  0.00    +0.000 C 
ATOM     27  F   UNL     1      -2.123  13.215  20.253  0.00  0.00    +0.000 F 
BRANCH  25  28
ATOM     28  C   UNL     1       0.038  13.535  19.302  0.00  0.00    +0.000 C 
ATOM     29  F   UNL     1       0.950  12.941  18.469  0.00  0.00    +0.000 F 
ATOM     30  F   UNL     1      -0.491  14.546  18.541  0.00  0.00    +0.000 F 
BRANCH  28  31
ATOM     31  C   UNL     1       0.741  14.137  20.476  0.00  0.00    +0.000 A 
ATOM     32  N   UNL     1       1.811  13.693  21.112  0.00  0.00    +0.000 NA
ATOM     33  N   UNL     1       2.089  14.553  22.145  0.00  0.00    +0.000 NA
ATOM     34  C   UNL     1       1.185  15.501  22.130  0.00  0.00    +0.000 A 
ATOM     35  N   UNL     1       0.321  15.286  21.102  0.00  0.00    +0.000 N 
ATOM     36  C   UNL     1      -0.813  16.107  20.767  0.00  0.00    +0.000 C 
ENDBRANCH  28  31
ENDBRANCH  25  28
ENDBRANCH  23  25
ENDBRANCH   8  19
BRANCH   5  37
ATOM     37  C   UNL     1       2.194   3.752  20.751  0.00  0.00    +0.000 C 
ATOM     38  F   UNL     1       0.845   3.578  20.794  0.00  0.00    +0.000 F 
ATOM     39  F   UNL     1       2.722   2.515  20.546  0.00  0.00    +0.000 F 
ATOM     40  F   UNL     1       2.561   4.114  22.010  0.00  0.00    +0.000 F 
ENDBRANCH   5  37
TORSDOF 6
ENDMDL
MODEL 3
REMARK VINA RESULT:      -9.8      0.984      1.278
REMARK  Name = 
REMARK  9 active torsions:
REMARK  status: ('A' for Active; 'I' for Inactive)
REMARK    1  A    between atoms: C_1  and  N_2
REMARK    2  A    between atoms: N_8  and  C_9
REMARK    3  A    between atoms: C_13  and  C_14
REMARK    4  A    between atoms: N_20  and  C_21
REMARK    5  A    between atoms: C_25  and  C_26
REMARK    6  A    between atoms: C_26  and  C_27
REMARK    7  A    between atoms: C_26  and  C_29
REMARK    8  A    between atoms: C_29  and  C_32
REMARK    9  A    between atoms: N_36  and  C_37
REMARK                            x       y       z     vdW  Elec       q    Type
REMARK                         _______ _______ _______ _____ _____    ______ ____
ROOT
ATOM      1  C   UNL     1       3.792   5.634  17.780  0.00  0.00    +0.000 A 
ATOM      2  C   UNL     1       3.368   6.955  17.936  0.00  0.00    +0.000 A 
ATOM      3  C   UNL     1       2.535   7.255  18.998  0.00  0.00    +0.000 A 
ATOM      4  C   UNL     1       2.115   6.316  19.930  0.00  0.00    +0.000 A 
ATOM      5  C   UNL     1       2.508   4.989  19.802  0.00  0.00    +0.000 A 
ATOM      6  C   UNL     1       3.336   4.664  18.701  0.00  0.00    +0.000 A 
ATOM      7  C   UNL     1       1.260   6.987  20.960  0.00  0.00    +0.000 C 
ATOM      8  N   UNL     1       1.171   8.364  20.484  0.00  0.00    +0.000 N 
ATOM      9  C   UNL     1       1.944   8.553  19.334  0.00  0.00    +0.000 C 
ATOM     10  O   UNL     1       2.155   9.546  18.658  0.00  0.00    +0.000 OA
ENDROOT
BRANCH   1  18
ATOM     11  C   UNL     1       7.199   6.077  18.528  0.00  0.00    +0.000 C 
ATOM     12  N   UNL     1       7.383   5.549  17.174  0.00  0.00    +0.000 NA
ATOM     13  C   UNL     1       6.834   4.174  17.032  0.00  0.00    +0.000 C 
ATOM     14  C   UNL     1       5.417   4.117  16.417  0.00  0.00    +0.000 C 
ATOM     15  C   UNL     1       5.417   4.695  14.980  0.00  0.00    +0.000 C 
ATOM     16  C   UNL     1       5.352   6.047  15.728  0.00  0.00    +0.000 C 
ATOM     17  C   UNL     1       6.775   6.467  16.173  0.00  0.00    +0.000 C 
ATOM     18  N   UNL     1       4.641   5.286  16.726  0.00  0.00    +0.000 N 
ENDBRANCH   1  18
BRANCH   8  19
ATOM     19  C   UNL     1       0.344   9.329  21.107  0.00  0.00    +0.000 A 
ATOM     20  C   UNL     1      -0.023   9.194  22.452  0.00  0.00    +0.000 A 
ATOM     21  C   UNL     1      -0.788  10.169  23.091  0.00  0.00    +0.000 A 
ATOM     22  C   UNL     1      -1.230  11.281  22.393  0.00  0.00    +0.000 A 
ATOM     23  C   UNL     1      -0.923  11.437  21.034  0.00  0.00    +0.000 A 
ATOM     24  C   UNL     1      -0.115  10.462  20.410  0.00  0.00    +0.000 A 
BRANCH  23  25
ATOM     25  C   UNL     1      -1.462  12.625  20.229  0.00  0.00    +0.000 C 
ATOM     26  C   UNL     1      -1.010  12.487  18.766  0.00  0.00    +0.000 C 
ATOM     27  F   UNL     1      -2.840  12.612  20.169  0.00  0.00    +0.000 F 
BRANCH  25  28
ATOM     28  C   UNL     1      -1.010  14.006  20.790  0.00  0.00    +0.000 C 
ATOM     29  F   UNL     1      -1.518  15.012  20.010  0.00  0.00    +0.000 F 
ATOM     30  F   UNL     1      -1.604  14.206  22.011  0.00  0.00    +0.000 F 
BRANCH  28  31
ATOM     31  C   UNL     1       0.467  14.180  20.942  0.00  0.00    +0.000 A 
ATOM     32  N   UNL     1       1.247  13.769  21.926  0.00  0.00    +0.000 NA
ATOM     33  N   UNL     1       2.532  14.173  21.659  0.00  0.00    +0.000 NA
ATOM     34  C   UNL     1       2.515  14.829  20.524  0.00  0.00    +0.000 A 
ATOM     35  N   UNL     1       1.246  14.857  20.036  0.00  0.00    +0.000 N 
ATOM     36  C   UNL     1       0.827  15.493  18.815  0.00  0.00    +0.000 C 
ENDBRANCH  28  31
ENDBRANCH  25  28
ENDBRANCH  23  25
ENDBRANCH   8  19
BRANCH   5  37
ATOM     37  C   UNL     1       2.093   3.918  20.775  0.00  0.00    +0.000 C 
ATOM     38  F   UNL     1       0.748   3.716  20.822  0.00  0.00    +0.000 F 
ATOM     39  F   UNL     1       2.640   2.707  20.484  0.00  0.00    +0.000 F 
ATOM     40  F   UNL     1       2.470   4.205  22.051  0.00  0.00    +0.000 F 
ENDBRANCH   5  37
TORSDOF 6
ENDMDL
MODEL 4
REMARK VINA RESULT:      -9.8      1.422      1.846
REMARK  Name = 
REMARK  9 active torsions:
REMARK  status: ('A' for Active; 'I' for Inactive)
REMARK    1  A    between atoms: C_1  and  N_2
REMARK    2  A    between atoms: N_8  and  C_9
REMARK    3  A    between atoms: C_13  and  C_14
REMARK    4  A    between atoms: N_20  and  C_21
REMARK    5  A    between atoms: C_25  and  C_26
REMARK    6  A    between atoms: C_26  and  C_27
REMARK    7  A    between atoms: C_26  and  C_29
REMARK    8  A    between atoms: C_29  and  C_32
REMARK    9  A    between atoms: N_36  and  C_37
REMARK                            x       y       z     vdW  Elec       q    Type
REMARK                         _______ _______ _______ _____ _____    ______ ____
ROOT
ATOM      1  C   UNL     1       3.931   5.250  17.648  0.00  0.00    +0.000 A 
ATOM      2  C   UNL     1       3.554   6.591  17.732  0.00  0.00    +0.000 A 
ATOM      3  C   UNL     1       2.722   6.975  18.768  0.00  0.00    +0.000 A 
ATOM      4  C   UNL     1       2.258   6.099  19.740  0.00  0.00    +0.000 A 
ATOM      5  C   UNL     1       2.602   4.754  19.683  0.00  0.00    +0.000 A 
ATOM      6  C   UNL     1       3.430   4.344  18.611  0.00  0.00    +0.000 A 
ATOM      7  C   UNL     1       1.418   6.852  20.725  0.00  0.00    +0.000 C 
ATOM      8  N   UNL     1       1.384   8.206  20.180  0.00  0.00    +0.000 N 
ATOM      9  C   UNL     1       2.176   8.308  19.032  0.00  0.00    +0.000 C 
ATOM     10  O   UNL     1       2.430   9.258  18.309  0.00  0.00    +0.000 OA
ENDROOT
BRANCH   1  18
ATOM     11  C   UNL     1       7.069   6.836  17.669  0.00  0.00    +0.000 C 
ATOM     12  N   UNL     1       7.322   5.960  16.524  0.00  0.00    +0.000 NA
ATOM     13  C   UNL     1       7.223   4.522  16.888  0.00  0.00    +0.000 C 
ATOM     14  C   UNL     1       5.859   3.876  16.555  0.00  0.00    +0.000 C 
ATOM     15  C   UNL     1       5.587   3.918  15.031  0.00  0.00    +0.000 C 
ATOM     16  C   UNL     1       5.149   5.369  15.342  0.00  0.00    +0.000 C 
ATOM     17  C   UNL     1       6.395   6.287  15.406  0.00  0.00    +0.000 C 
ATOM     18  N   UNL     1       4.777   4.819  16.622  0.00  0.00    +0.000 N 
ENDBRANCH   1  18
BRANCH   8  19
ATOM     19  C   UNL     1       0.587   9.231  20.744  0.00  0.00    +0.000 A 
ATOM     20  C   UNL     1       0.109   9.123  22.056  0.00  0.00    +0.000 A 
ATOM     21  C   UNL     1      -0.628  10.152  22.640  0.00  0.00    +0.000 A 
ATOM     22  C   UNL     1      -0.930  11.295  21.917  0.00  0.00    +0.000 A 
ATOM     23  C   UNL     1      -0.507  11.429  20.588  0.00  0.00    +0.000 A 
ATOM     24  C   UNL     1       0.270  10.396  20.021  0.00  0.00    +0.000 A 
BRANCH  23  25
ATOM     25  C   UNL     1      -0.892  12.654  19.751  0.00  0.00    +0.000 C 
ATOM     26  C   UNL     1      -1.266  12.196  18.331  0.00  0.00    +0.000 C 
ATOM     27  F   UNL     1      -2.034  13.258  20.233  0.00  0.00    +0.000 F 
BRANCH  25  28
ATOM     28  C   UNL     1       0.235  13.728  19.676  0.00  0.00    +0.000 C 
ATOM     29  F   UNL     1       1.098  13.568  20.728  0.00  0.00    +0.000 F 
ATOM     30  F   UNL     1       1.012  13.480  18.573  0.00  0.00    +0.000 F 
BRANCH  28  31
ATOM     31  C   UNL     1      -0.238  15.145  19.620  0.00  0.00    +0.000 A 
ATOM     32  N   UNL     1      -0.417  15.912  18.559  0.00  0.00    +0.000 NA
ATOM     33  N   UNL     1      -0.837  17.148  18.983  0.00  0.00    +0.000 NA
ATOM     34  C   UNL     1      -0.900  17.121  20.291  0.00  0.00    +0.000 A 
ATOM     35  N   UNL     1      -0.538  15.887  20.737  0.00  0.00    +0.000 N 
ATOM     36  C   UNL     1      -0.473  15.473  22.113  0.00  0.00    +0.000 C 
ENDBRANCH  28  31
ENDBRANCH  25  28
ENDBRANCH  23  25
ENDBRANCH   8  19
BRANCH   5  37
ATOM     37  C   UNL     1       2.138   3.750  20.703  0.00  0.00    +0.000 C 
ATOM     38  F   UNL     1       0.787   3.584  20.730  0.00  0.00    +0.000 F 
ATOM     39  F   UNL     1       2.659   2.511  20.492  0.00  0.00    +0.000 F 
ATOM     40  F   UNL     1       2.494   4.097  21.970  0.00  0.00    +0.000 F 
ENDBRANCH   5  37
TORSDOF 6
ENDMDL
MODEL 5
REMARK VINA RESULT:      -9.8      2.711      8.830
REMARK  Name = 
REMARK  9 active torsions:
REMARK  status: ('A' for Active; 'I' for Inactive)
REMARK    1  A    between atoms: C_1  and  N_2
REMARK    2  A    between atoms: N_8  and  C_9
REMARK    3  A    between atoms: C_13  and  C_14
REMARK    4  A    between atoms: N_20  and  C_21
REMARK    5  A    between atoms: C_25  and  C_26
REMARK    6  A    between atoms: C_26  and  C_27
REMARK    7  A    between atoms: C_26  and  C_29
REMARK    8  A    between atoms: C_29  and  C_32
REMARK    9  A    between atoms: N_36  and  C_37
REMARK                            x       y       z     vdW  Elec       q    Type
REMARK                         _______ _______ _______ _____ _____    ______ ____
ROOT
ATOM      1  C   UNL     1       0.563  11.990  19.839  0.00  0.00    +0.000 A 
ATOM      2  C   UNL     1       1.179  11.221  18.850  0.00  0.00    +0.000 A 
ATOM      3  C   UNL     1       1.439   9.890  19.120  0.00  0.00    +0.000 A 
ATOM      4  C   UNL     1       1.100   9.273  20.317  0.00  0.00    +0.000 A 
ATOM      5  C   UNL     1       0.496  10.008  21.330  0.00  0.00    +0.000 A 
ATOM      6  C   UNL     1       0.252  11.379  21.076  0.00  0.00    +0.000 A 
ATOM      7  C   UNL     1       1.488   7.827  20.257  0.00  0.00    +0.000 C 
ATOM      8  N   UNL     1       2.144   7.705  18.958  0.00  0.00    +0.000 N 
ATOM      9  C   UNL     1       2.101   8.912  18.254  0.00  0.00    +0.000 C 
ATOM     10  O   UNL     1       2.505   9.213  17.142  0.00  0.00    +0.000 OA
ENDROOT
BRANCH   1  18
ATOM     11  C   UNL     1       3.155  14.157  20.813  0.00  0.00    +0.000 C 
ATOM     12  N   UNL     1       2.250  15.185  20.296  0.00  0.00    +0.000 NA
ATOM     13  C   UNL     1       1.956  14.994  18.851  0.00  0.00    +0.000 C 
ATOM     14  C   UNL     1       0.624  14.264  18.566  0.00  0.00    +0.000 C 
ATOM     15  C   UNL     1      -0.577  15.077  19.111  0.00  0.00    +0.000 C 
ATOM     16  C   UNL     1      -0.169  14.419  20.451  0.00  0.00    +0.000 C 
ATOM     17  C   UNL     1       0.993  15.218  21.091  0.00  0.00    +0.000 C 
ATOM     18  N   UNL     1       0.275  13.337  19.607  0.00  0.00    +0.000 N 
ENDBRANCH   1  18
BRANCH   8  19
ATOM     19  C   UNL     1       2.781   6.511  18.540  0.00  0.00    +0.000 A 
ATOM     20  C   UNL     1       2.533   5.301  19.199  0.00  0.00    +0.000 A 
ATOM     21  C   UNL     1       3.109   4.110  18.760  0.00  0.00    +0.000 A 
ATOM     22  C   UNL     1       3.969   4.108  17.673  0.00  0.00    +0.000 A 
ATOM     23  C   UNL     1       4.278   5.302  17.008  0.00  0.00    +0.000 A 
ATOM     24  C   UNL     1       3.658   6.494  17.440  0.00  0.00    +0.000 A 
BRANCH  23  25
ATOM     25  C   UNL     1       5.282   5.329  15.849  0.00  0.00    +0.000 C 
ATOM     26  C   UNL     1       4.779   4.405  14.727  0.00  0.00    +0.000 C 
ATOM     27  F   UNL     1       5.350   6.577  15.267  0.00  0.00    +0.000 F 
BRANCH  25  28
ATOM     28  C   UNL     1       6.721   4.906  16.271  0.00  0.00    +0.000 C 
ATOM     29  F   UNL     1       6.890   3.563  16.060  0.00  0.00    +0.000 F 
ATOM     30  F   UNL     1       7.623   5.488  15.417  0.00  0.00    +0.000 F 
BRANCH  28  31
ATOM     31  C   UNL     1       7.101   5.251  17.675  0.00  0.00    +0.000 A 
ATOM     32  N   UNL     1       7.116   4.469  18.740  0.00  0.00    +0.000 NA
ATOM     33  N   UNL     1       7.506   5.217  19.822  0.00  0.00    +0.000 NA
ATOM     34  C   UNL     1       7.716   6.442  19.406  0.00  0.00    +0.000 A 
ATOM     35  N   UNL     1       7.479   6.512  18.068  0.00  0.00    +0.000 N 
ATOM     36  C   UNL     1       7.592   7.692  17.253  0.00  0.00    +0.000 C 
ENDBRANCH  28  31
ENDBRANCH  25  28
ENDBRANCH  23  25
ENDBRANCH   8  19
BRANCH   5  37
ATOM     37  C   UNL     1       0.100   9.404  22.650  0.00  0.00    +0.000 C 
ATOM     38  F   UNL     1      -0.556  10.271  23.471  0.00  0.00    +0.000 F 
ATOM     39  F   UNL     1      -0.725   8.331  22.509  0.00  0.00    +0.000 F 
ATOM     40  F   UNL     1       1.174   8.963  23.360  0.00  0.00    +0.000 F 
ENDBRANCH   5  37
TORSDOF 6
ENDMDL
MODEL 6
REMARK VINA RESULT:      -9.8      1.582      1.976
REMARK  Name = 
REMARK  9 active torsions:
REMARK  status: ('A' for Active; 'I' for Inactive)
REMARK    1  A    between atoms: C_1  and  N_2
REMARK    2  A    between atoms: N_8  and  C_9
REMARK    3  A    between atoms: C_13  and  C_14
REMARK    4  A    between atoms: N_20  and  C_21
REMARK    5  A    between atoms: C_25  and  C_26
REMARK    6  A    between atoms: C_26  and  C_27
REMARK    7  A    between atoms: C_26  and  C_29
REMARK    8  A    between atoms: C_29  and  C_32
REMARK    9  A    between atoms: N_36  and  C_37
REMARK                            x       y       z     vdW  Elec       q    Type
REMARK                         _______ _______ _______ _____ _____    ______ ____
ROOT
ATOM      1  C   UNL     1       3.812   5.542  17.727  0.00  0.00    +0.000 A 
ATOM      2  C   UNL     1       3.393   6.864  17.883  0.00  0.00    +0.000 A 
ATOM      3  C   UNL     1       2.577   7.172  18.956  0.00  0.00    +0.000 A 
ATOM      4  C   UNL     1       2.169   6.238  19.899  0.00  0.00    +0.000 A 
ATOM      5  C   UNL     1       2.556   4.909  19.771  0.00  0.00    +0.000 A 
ATOM      6  C   UNL     1       3.368   4.577  18.660  0.00  0.00    +0.000 A 
ATOM      7  C   UNL     1       1.331   6.916  20.938  0.00  0.00    +0.000 C 
ATOM      8  N   UNL     1       1.238   8.291  20.457  0.00  0.00    +0.000 N 
ATOM      9  C   UNL     1       1.994   8.472  19.295  0.00  0.00    +0.000 C 
ATOM     10  O   UNL     1       2.197   9.462  18.610  0.00  0.00    +0.000 OA
ENDROOT
BRANCH   1  18
ATOM     11  C   UNL     1       7.220   6.127  18.364  0.00  0.00    +0.000 C 
ATOM     12  N   UNL     1       7.386   5.559  17.025  0.00  0.00    +0.000 NA
ATOM     13  C   UNL     1       6.883   4.162  16.945  0.00  0.00    +0.000 C 
ATOM     14  C   UNL     1       5.453   4.035  16.372  0.00  0.00    +0.000 C 
ATOM     15  C   UNL     1       5.394   4.562  14.916  0.00  0.00    +0.000 C 
ATOM     16  C   UNL     1       5.300   5.937  15.620  0.00  0.00    +0.000 C 
ATOM     17  C   UNL     1       6.719   6.420  16.010  0.00  0.00    +0.000 C 
ATOM     18  N   UNL     1       4.643   5.187  16.662  0.00  0.00    +0.000 N 
ENDBRANCH   1  18
BRANCH   8  19
ATOM     19  C   UNL     1       0.422   9.261  21.087  0.00  0.00    +0.000 A 
ATOM     20  C   UNL     1       0.052   9.119  22.431  0.00  0.00    +0.000 A 
ATOM     21  C   UNL     1      -0.702  10.097  23.077  0.00  0.00    +0.000 A 
ATOM     22  C   UNL     1      -1.128  11.222  22.388  0.00  0.00    +0.000 A 
ATOM     23  C   UNL     1      -0.817  11.386  21.032  0.00  0.00    +0.000 A 
ATOM     24  C   UNL     1      -0.021  10.406  20.400  0.00  0.00    +0.000 A 
BRANCH  23  25
ATOM     25  C   UNL     1      -1.340  12.588  20.237  0.00  0.00    +0.000 C 
ATOM     26  C   UNL     1      -1.525  12.176  18.767  0.00  0.00    +0.000 C 
ATOM     27  F   UNL     1      -2.600  12.962  20.654  0.00  0.00    +0.000 F 
BRANCH  25  28
ATOM     28  C   UNL     1      -0.408  13.834  20.319  0.00  0.00    +0.000 C 
ATOM     29  F   UNL     1       0.651  13.567  21.146  0.00  0.00    +0.000 F 
ATOM     30  F   UNL     1       0.176  14.034  19.093  0.00  0.00    +0.000 F 
BRANCH  28  31
ATOM     31  C   UNL     1      -1.076  15.102  20.743  0.00  0.00    +0.000 A 
ATOM     32  N   UNL     1      -1.535  16.083  19.987  0.00  0.00    +0.000 NA
ATOM     33  N   UNL     1      -2.045  17.060  20.807  0.00  0.00    +0.000 NA
ATOM     34  C   UNL     1      -1.883  16.665  22.046  0.00  0.00    +0.000 A 
ATOM     35  N   UNL     1      -1.283  15.445  22.057  0.00  0.00    +0.000 N 
ATOM     36  C   UNL     1      -0.931  14.689  23.231  0.00  0.00    +0.000 C 
ENDBRANCH  28  31
ENDBRANCH  25  28
ENDBRANCH  23  25
ENDBRANCH   8  19
BRANCH   5  37
ATOM     37  C   UNL     1       2.154   3.844  20.755  0.00  0.00    +0.000 C 
ATOM     38  F   UNL     1       2.684   2.621  20.482  0.00  0.00    +0.000 F 
ATOM     39  F   UNL     1       2.534   4.137  22.029  0.00  0.00    +0.000 F 
ATOM     40  F   UNL     1       0.805   3.662  20.798  0.00  0.00    +0.000 F 
ENDBRANCH   5  37
TORSDOF 6
ENDMDL
MODEL 7
REMARK VINA RESULT:      -9.7      2.597      8.945
REMARK  Name = 
REMARK  9 active torsions:
REMARK  status: ('A' for Active; 'I' for Inactive)
REMARK    1  A    between atoms: C_1  and  N_2
REMARK    2  A    between atoms: N_8  and  C_9
REMARK    3  A    between atoms: C_13  and  C_14
REMARK    4  A    between atoms: N_20  and  C_21
REMARK    5  A    between atoms: C_25  and  C_26
REMARK    6  A    between atoms: C_26  and  C_27
REMARK    7  A    between atoms: C_26  and  C_29
REMARK    8  A    between atoms: C_29  and  C_32
REMARK    9  A    between atoms: N_36  and  C_37
REMARK                            x       y       z     vdW  Elec       q    Type
REMARK                         _______ _______ _______ _____ _____    ______ ____
ROOT
ATOM      1  C   UNL     1       0.724  12.107  19.923  0.00  0.00    +0.000 A 
ATOM      2  C   UNL     1       1.279  11.280  18.945  0.00  0.00    +0.000 A 
ATOM      3  C   UNL     1       1.418   9.933  19.226  0.00  0.00    +0.000 A 
ATOM      4  C   UNL     1       1.015   9.357  20.423  0.00  0.00    +0.000 A 
ATOM      5  C   UNL     1       0.469  10.149  21.425  0.00  0.00    +0.000 A 
ATOM      6  C   UNL     1       0.349  11.534  21.160  0.00  0.00    +0.000 A 
ATOM      7  C   UNL     1       1.275   7.882  20.375  0.00  0.00    +0.000 C 
ATOM      8  N   UNL     1       1.929   7.694  19.084  0.00  0.00    +0.000 N 
ATOM      9  C   UNL     1       1.999   8.895  18.371  0.00  0.00    +0.000 C 
ATOM     10  O   UNL     1       2.438   9.151  17.262  0.00  0.00    +0.000 OA
ENDROOT
BRANCH   1  18
ATOM     11  C   UNL     1      -0.765  13.828  22.603  0.00  0.00    +0.000 C 
ATOM     12  N   UNL     1      -0.582  14.988  21.728  0.00  0.00    +0.000 NA
ATOM     13  C   UNL     1       0.851  15.225  21.408  0.00  0.00    +0.000 C 
ATOM     14  C   UNL     1       1.301  14.647  20.048  0.00  0.00    +0.000 C 
ATOM     15  C   UNL     1       0.520  15.307  18.883  0.00  0.00    +0.000 C 
ATOM     16  C   UNL     1      -0.568  14.283  19.285  0.00  0.00    +0.000 C 
ATOM     17  C   UNL     1      -1.382  14.831  20.483  0.00  0.00    +0.000 C 
ATOM     18  N   UNL     1       0.558  13.473  19.680  0.00  0.00    +0.000 N 
ENDBRANCH   1  18
BRANCH   8  19
ATOM     19  C   UNL     1       2.462   6.446  18.679  0.00  0.00    +0.000 A 
ATOM     20  C   UNL     1       1.922   5.248  19.164  0.00  0.00    +0.000 A 
ATOM     21  C   UNL     1       2.401   4.014  18.727  0.00  0.00    +0.000 A 
ATOM     22  C   UNL     1       3.448   3.949  17.822  0.00  0.00    +0.000 A 
ATOM     23  C   UNL     1       4.046   5.122  17.341  0.00  0.00    +0.000 A 
ATOM     24  C   UNL     1       3.527   6.365  17.763  0.00  0.00    +0.000 A 
BRANCH  23  25
ATOM     25  C   UNL     1       5.251   5.069  16.395  0.00  0.00    +0.000 C 
ATOM     26  C   UNL     1       5.116   3.842  15.477  0.00  0.00    +0.000 C 
ATOM     27  F   UNL     1       5.268   6.146  15.535  0.00  0.00    +0.000 F 
BRANCH  25  28
ATOM     28  C   UNL     1       6.619   5.017  17.141  0.00  0.00    +0.000 C 
ATOM     29  F   UNL     1       6.504   4.246  18.268  0.00  0.00    +0.000 F 
ATOM     30  F   UNL     1       7.522   4.333  16.366  0.00  0.00    +0.000 F 
BRANCH  28  31
ATOM     31  C   UNL     1       7.202   6.347  17.494  0.00  0.00    +0.000 A 
ATOM     32  N   UNL     1       7.177   7.469  16.797  0.00  0.00    +0.000 NA
ATOM     33  N   UNL     1       7.862   8.431  17.497  0.00  0.00    +0.000 NA
ATOM     34  C   UNL     1       8.300   7.882  18.604  0.00  0.00    +0.000 A 
ATOM     35  N   UNL     1       7.910   6.580  18.648  0.00  0.00    +0.000 N 
ATOM     36  C   UNL     1       8.209   5.646  19.702  0.00  0.00    +0.000 C 
ENDBRANCH  28  31
ENDBRANCH  25  28
ENDBRANCH  23  25
ENDBRANCH   8  19
BRANCH   5  37
ATOM     37  C   UNL     1       0.010   9.592  22.746  0.00  0.00    +0.000 C 
ATOM     38  F   UNL     1      -0.772   8.484  22.628  0.00  0.00    +0.000 F 
ATOM     39  F   UNL     1       1.046   9.231  23.551  0.00  0.00    +0.000 F 
ATOM     40  F   UNL     1      -0.725  10.490  23.458  0.00  0.00    +0.000 F 
ENDBRANCH   5  37
TORSDOF 6
ENDMDL
MODEL 8
REMARK VINA RESULT:      -9.7      1.888      2.987
REMARK  Name = 
REMARK  9 active torsions:
REMARK  status: ('A' for Active; 'I' for Inactive)
REMARK    1  A    between atoms: C_1  and  N_2
REMARK    2  A    between atoms: N_8  and  C_9
REMARK    3  A    between atoms: C_13  and  C_14
REMARK    4  A    between atoms: N_20  and  C_21
REMARK    5  A    between atoms: C_25  and  C_26
REMARK    6  A    between atoms: C_26  and  C_27
REMARK    7  A    between atoms: C_26  and  C_29
REMARK    8  A    between atoms: C_29  and  C_32
REMARK    9  A    between atoms: N_36  and  C_37
REMARK                            x       y       z     vdW  Elec       q    Type
REMARK                         _______ _______ _______ _____ _____    ______ ____
ROOT
ATOM      1  C   UNL     1       3.913   5.193  17.577  0.00  0.00    +0.000 A 
ATOM      2  C   UNL     1       3.552   6.525  17.784  0.00  0.00    +0.000 A 
ATOM      3  C   UNL     1       2.746   6.826  18.867  0.00  0.00    +0.000 A 
ATOM      4  C   UNL     1       2.293   5.874  19.770  0.00  0.00    +0.000 A 
ATOM      5  C   UNL     1       2.622   4.536  19.592  0.00  0.00    +0.000 A 
ATOM      6  C   UNL     1       3.423   4.212  18.470  0.00  0.00    +0.000 A 
ATOM      7  C   UNL     1       1.481   6.547  20.834  0.00  0.00    +0.000 C 
ATOM      8  N   UNL     1       1.451   7.943  20.407  0.00  0.00    +0.000 N 
ATOM      9  C   UNL     1       2.219   8.137  19.255  0.00  0.00    +0.000 C 
ATOM     10  O   UNL     1       2.468   9.142  18.610  0.00  0.00    +0.000 OA
ENDROOT
BRANCH   1  18
ATOM     11  C   UNL     1       7.106   6.658  17.724  0.00  0.00    +0.000 C 
ATOM     12  N   UNL     1       7.316   5.900  16.489  0.00  0.00    +0.000 NA
ATOM     13  C   UNL     1       7.170   4.436  16.701  0.00  0.00    +0.000 C 
ATOM     14  C   UNL     1       5.780   3.876  16.321  0.00  0.00    +0.000 C 
ATOM     15  C   UNL     1       5.495   4.089  14.813  0.00  0.00    +0.000 C 
ATOM     16  C   UNL     1       5.112   5.513  15.281  0.00  0.00    +0.000 C 
ATOM     17  C   UNL     1       6.391   6.375  15.425  0.00  0.00    +0.000 C 
ATOM     18  N   UNL     1       4.733   4.843  16.501  0.00  0.00    +0.000 N 
ENDBRANCH   1  18
BRANCH   8  19
ATOM     19  C   UNL     1       0.675   8.923  21.073  0.00  0.00    +0.000 A 
ATOM     20  C   UNL     1       0.138   8.667  22.341  0.00  0.00    +0.000 A 
ATOM     21  C   UNL     1      -0.577   9.646  23.030  0.00  0.00    +0.000 A 
ATOM     22  C   UNL     1      -0.797  10.887  22.456  0.00  0.00    +0.000 A 
ATOM     23  C   UNL     1      -0.314  11.173  21.171  0.00  0.00    +0.000 A 
ATOM     24  C   UNL     1       0.440  10.187  20.501  0.00  0.00    +0.000 A 
BRANCH  23  25
ATOM     25  C   UNL     1      -0.610  12.515  20.492  0.00  0.00    +0.000 C 
ATOM     26  C   UNL     1      -0.255  13.657  21.460  0.00  0.00    +0.000 C 
ATOM     27  F   UNL     1       0.205  12.720  19.399  0.00  0.00    +0.000 F 
BRANCH  25  28
ATOM     28  C   UNL     1      -2.091  12.659  20.031  0.00  0.00    +0.000 C 
ATOM     29  F   UNL     1      -2.931  12.269  21.041  0.00  0.00    +0.000 F 
ATOM     30  F   UNL     1      -2.377  13.991  19.864  0.00  0.00    +0.000 F 
BRANCH  28  31
ATOM     31  C   UNL     1      -2.440  11.933  18.772  0.00  0.00    +0.000 A 
ATOM     32  N   UNL     1      -1.629  11.395  17.879  0.00  0.00    +0.000 NA
ATOM     33  N   UNL     1      -2.389  10.856  16.871  0.00  0.00    +0.000 NA
ATOM     34  C   UNL     1      -3.648  11.078  17.158  0.00  0.00    +0.000 A 
ATOM     35  N   UNL     1      -3.732  11.747  18.340  0.00  0.00    +0.000 N 
ATOM     36  C   UNL     1      -4.946  12.178  18.981  0.00  0.00    +0.000 C 
ENDBRANCH  28  31
ENDBRANCH  25  28
ENDBRANCH  23  25
ENDBRANCH   8  19
BRANCH   5  37
ATOM     37  C   UNL     1       2.169   3.452  20.532  0.00  0.00    +0.000 C 
ATOM     38  F   UNL     1       0.816   3.366  20.653  0.00  0.00    +0.000 F 
ATOM     39  F   UNL     1       2.586   2.216  20.146  0.00  0.00    +0.000 F 
ATOM     40  F   UNL     1       2.643   3.631  21.795  0.00  0.00    +0.000 F 
ENDBRANCH   5  37
TORSDOF 6
ENDMDL
MODEL 9
REMARK VINA RESULT:      -9.7      1.481      1.888
REMARK  Name = 
REMARK  9 active torsions:
REMARK  status: ('A' for Active; 'I' for Inactive)
REMARK    1  A    between atoms: C_1  and  N_2
REMARK    2  A    between atoms: N_8  and  C_9
REMARK    3  A    between atoms: C_13  and  C_14
REMARK    4  A    between atoms: N_20  and  C_21
REMARK    5  A    between atoms: C_25  and  C_26
REMARK    6  A    between atoms: C_26  and  C_27
REMARK    7  A    between atoms: C_26  and  C_29
REMARK    8  A    between atoms: C_29  and  C_32
REMARK    9  A    between atoms: N_36  and  C_37
REMARK                            x       y       z     vdW  Elec       q    Type
REMARK                         _______ _______ _______ _____ _____    ______ ____
ROOT
ATOM      1  C   UNL     1       3.786   5.588  17.727  0.00  0.00    +0.000 A 
ATOM      2  C   UNL     1       3.377   6.913  17.889  0.00  0.00    +0.000 A 
ATOM      3  C   UNL     1       2.556   7.221  18.959  0.00  0.00    +0.000 A 
ATOM      4  C   UNL     1       2.135   6.284  19.892  0.00  0.00    +0.000 A 
ATOM      5  C   UNL     1       2.512   4.953  19.759  0.00  0.00    +0.000 A 
ATOM      6  C   UNL     1       3.327   4.621  18.651  0.00  0.00    +0.000 A 
ATOM      7  C   UNL     1       1.296   6.962  20.931  0.00  0.00    +0.000 C 
ATOM      8  N   UNL     1       1.217   8.341  20.458  0.00  0.00    +0.000 N 
ATOM      9  C   UNL     1       1.982   8.524  19.302  0.00  0.00    +0.000 C 
ATOM     10  O   UNL     1       2.197   9.516  18.626  0.00  0.00    +0.000 OA
ENDROOT
BRANCH   1  18
ATOM     11  C   UNL     1       7.197   6.103  18.404  0.00  0.00    +0.000 C 
ATOM     12  N   UNL     1       7.366   5.551  17.059  0.00  0.00    +0.000 NA
ATOM     13  C   UNL     1       6.838   4.164  16.954  0.00  0.00    +0.000 C 
ATOM     14  C   UNL     1       5.412   4.072  16.366  0.00  0.00    +0.000 C 
ATOM     15  C   UNL     1       5.377   4.620  14.917  0.00  0.00    +0.000 C 
ATOM     16  C   UNL     1       5.301   5.986  15.640  0.00  0.00    +0.000 C 
ATOM     17  C   UNL     1       6.725   6.438  16.050  0.00  0.00    +0.000 C 
ATOM     18  N   UNL     1       4.621   5.233  16.665  0.00  0.00    +0.000 N 
ENDBRANCH   1  18
BRANCH   8  19
ATOM     19  C   UNL     1       0.405   9.314  21.090  0.00  0.00    +0.000 A 
ATOM     20  C   UNL     1      -0.024   9.137  22.411  0.00  0.00    +0.000 A 
ATOM     21  C   UNL     1      -0.774  10.115  23.062  0.00  0.00    +0.000 A 
ATOM     22  C   UNL     1      -1.138  11.275  22.397  0.00  0.00    +0.000 A 
ATOM     23  C   UNL     1      -0.766  11.477  21.061  0.00  0.00    +0.000 A 
ATOM     24  C   UNL     1       0.025  10.496  20.427  0.00  0.00    +0.000 A 
BRANCH  23  25
ATOM     25  C   UNL     1      -1.220  12.721  20.290  0.00  0.00    +0.000 C 
ATOM     26  C   UNL     1      -1.285  12.387  18.790  0.00  0.00    +0.000 C 
ATOM     27  F   UNL     1      -2.508  13.082  20.622  0.00  0.00    +0.000 F 
BRANCH  25  28
ATOM     28  C   UNL     1      -0.294  13.956  20.511  0.00  0.00    +0.000 C 
ATOM     29  F   UNL     1       1.012  13.548  20.584  0.00  0.00    +0.000 F 
ATOM     30  F   UNL     1      -0.329  14.745  19.390  0.00  0.00    +0.000 F 
BRANCH  28  31
ATOM     31  C   UNL     1      -0.630  14.798  21.699  0.00  0.00    +0.000 A 
ATOM     32  N   UNL     1      -0.192  14.683  22.941  0.00  0.00    +0.000 NA
ATOM     33  N   UNL     1      -0.787  15.658  23.703  0.00  0.00    +0.000 NA
ATOM     34  C   UNL     1      -1.581  16.347  22.920  0.00  0.00    +0.000 A 
ATOM     35  N   UNL     1      -1.515  15.848  21.656  0.00  0.00    +0.000 N 
ATOM     36  C   UNL     1      -2.251  16.334  20.519  0.00  0.00    +0.000 C 
ENDBRANCH  28  31
ENDBRANCH  25  28
ENDBRANCH  23  25
ENDBRANCH   8  19
BRANCH   5  37
ATOM     37  C   UNL     1       2.094   3.885  20.733  0.00  0.00    +0.000 C 
ATOM     38  F   UNL     1       0.746   3.704  20.800  0.00  0.00    +0.000 F 
ATOM     39  F   UNL     1       2.617   2.666  20.430  0.00  0.00    +0.000 F 
ATOM     40  F   UNL     1       2.494   4.160  22.005  0.00  0.00    +0.000 F 
ENDBRANCH   5  37
TORSDOF 6
ENDMDL
