MODEL 1
REMARK VINA RESULT:      -8.8      0.000      0.000
REMARK  Name = 
REMARK  7 active torsions:
REMARK  status: ('A' for Active; 'I' for Inactive)
REMARK    1  A    between atoms: C_1  and  C_2
REMARK    2  A    between atoms: C_2  and  S_3
REMARK    3  A    between atoms: C_2  and  C_10
REMARK    4  A    between atoms: S_3  and  C_4
REMARK    5  A    between atoms: N_8  and  C_9
REMARK    6  A    between atoms: C_14  and  N_15
REMARK    7  A    between atoms: C_22  and  C_23
REMARK                            x       y       z     vdW  Elec       q    Type
REMARK                         _______ _______ _______ _____ _____    ______ ____
ROOT
ATOM      1  C   UNL     1       4.291   5.100  17.930  0.00  0.00    +0.000 A 
ATOM      2  C   UNL     1       4.134   4.057  18.850  0.00  0.00    +0.000 A 
ATOM      3  C   UNL     1       3.273   4.199  19.949  0.00  0.00    +0.000 A 
ATOM      4  C   UNL     1       2.555   5.387  20.163  0.00  0.00    +0.000 A 
ATOM      5  C   UNL     1       2.723   6.457  19.296  0.00  0.00    +0.000 A 
ATOM      6  C   UNL     1       3.617   6.292  18.216  0.00  0.00    +0.000 A 
ENDROOT
BRANCH   5   7
ATOM      7  N   UNL     1       2.019   7.687  19.394  0.00  0.00    +0.000 N 
ATOM      8  C   UNL     1       1.350   8.017  20.633  0.00  0.00    +0.000 C 
ATOM      9  C   UNL     1       0.819   9.380  20.423  0.00  0.00    +0.000 A 
ATOM     10  C   UNL     1       1.147   9.813  19.144  0.00  0.00    +0.000 A 
ATOM     11  C   UNL     1       0.791  11.075  18.714  0.00  0.00    +0.000 A 
ATOM     12  C   UNL     1       0.093  11.900  19.614  0.00  0.00    +0.000 A 
ATOM     13  C   UNL     1      -0.233  11.452  20.911  0.00  0.00    +0.000 A 
ATOM     14  C   UNL     1       0.129  10.170  21.340  0.00  0.00    +0.000 A 
ATOM     15  C   UNL     1       1.911   8.731  18.467  0.00  0.00    +0.000 C 
ATOM     16  O   UNL     1       2.345   8.827  17.332  0.00  0.00    +0.000 OA
BRANCH  14  17
ATOM     17  C   UNL     1      -0.199   9.679  22.730  0.00  0.00    +0.000 C 
ATOM     18  F   UNL     1      -0.951   8.540  22.748  0.00  0.00    +0.000 F 
ATOM     19  F   UNL     1       0.914   9.387  23.454  0.00  0.00    +0.000 F 
ATOM     20  F   UNL     1      -0.902  10.588  23.456  0.00  0.00    +0.000 F 
ENDBRANCH  14  17
ENDBRANCH   5   7
BRANCH   1  22
ATOM     21  C   UNL     1       4.623   3.744  15.757  0.00  0.00    +0.000 C 
ATOM     22  C   UNL     1       5.091   4.931  16.630  0.00  0.00    +0.000 C 
BRANCH  22  23
ATOM     23  S   UNL     1       6.865   4.685  17.088  0.00  0.00    +0.000 S 
BRANCH  23  24
ATOM     24  C   UNL     1       7.382   6.274  17.501  0.00  0.00    +0.000 A 
ATOM     25  N   UNL     1       7.338   7.352  16.754  0.00  0.00    +0.000 NA
ATOM     26  N   UNL     1       7.923   8.376  17.468  0.00  0.00    +0.000 NA
ATOM     27  C   UNL     1       8.289   7.891  18.634  0.00  0.00    +0.000 A 
ATOM     28  N   UNL     1       7.954   6.573  18.704  0.00  0.00    +0.000 N 
ATOM     29  C   UNL     1       8.183   5.693  19.817  0.00  0.00    +0.000 C 
ENDBRANCH  23  24
ENDBRANCH  22  23
ENDBRANCH   1  22
TORSDOF 5
ENDMDL
MODEL 2
REMARK VINA RESULT:      -8.7      4.144      8.273
REMARK  Name = 
REMARK  7 active torsions:
REMARK  status: ('A' for Active; 'I' for Inactive)
REMARK    1  A    between atoms: C_1  and  C_2
REMARK    2  A    between atoms: C_2  and  S_3
REMARK    3  A    between atoms: C_2  and  C_10
REMARK    4  A    between atoms: S_3  and  C_4
REMARK    5  A    between atoms: N_8  and  C_9
REMARK    6  A    between atoms: C_14  and  N_15
REMARK    7  A    between atoms: C_22  and  C_23
REMARK                            x       y       z     vdW  Elec       q    Type
REMARK                         _______ _______ _______ _____ _____    ______ ____
ROOT
ATOM      1  C   UNL     1      -0.279  10.944  20.009  0.00  0.00    +0.000 A 
ATOM      2  C   UNL     1      -0.373  11.148  21.390  0.00  0.00    +0.000 A 
ATOM      3  C   UNL     1       0.232  10.253  22.285  0.00  0.00    +0.000 A 
ATOM      4  C   UNL     1       0.938   9.129  21.826  0.00  0.00    +0.000 A 
ATOM      5  C   UNL     1       1.011   8.872  20.464  0.00  0.00    +0.000 A 
ATOM      6  C   UNL     1       0.368   9.776  19.592  0.00  0.00    +0.000 A 
ENDROOT
BRANCH   5   7
ATOM      7  N   UNL     1       1.729   7.790  19.889  0.00  0.00    +0.000 N 
ATOM      8  C   UNL     1       1.639   6.482  20.501  0.00  0.00    +0.000 C 
ATOM      9  C   UNL     1       2.410   5.594  19.606  0.00  0.00    +0.000 A 
ATOM     10  C   UNL     1       2.923   6.335  18.549  0.00  0.00    +0.000 A 
ATOM     11  C   UNL     1       3.657   5.724  17.552  0.00  0.00    +0.000 A 
ATOM     12  C   UNL     1       3.860   4.336  17.646  0.00  0.00    +0.000 A 
ATOM     13  C   UNL     1       3.333   3.593  18.722  0.00  0.00    +0.000 A 
ATOM     14  C   UNL     1       2.591   4.218  19.731  0.00  0.00    +0.000 A 
ATOM     15  C   UNL     1       2.502   7.750  18.722  0.00  0.00    +0.000 C 
ATOM     16  O   UNL     1       2.794   8.637  17.938  0.00  0.00    +0.000 OA
BRANCH  14  17
ATOM     17  C   UNL     1       2.006   3.436  20.883  0.00  0.00    +0.000 C 
ATOM     18  F   UNL     1       2.317   2.107  20.860  0.00  0.00    +0.000 F 
ATOM     19  F   UNL     1       2.440   3.887  22.091  0.00  0.00    +0.000 F 
ATOM     20  F   UNL     1       0.648   3.490  20.919  0.00  0.00    +0.000 F 
ENDBRANCH  14  17
ENDBRANCH   5   7
BRANCH   1  22
ATOM     21  C   UNL     1      -0.407  13.437  19.348  0.00  0.00    +0.000 C 
ATOM     22  C   UNL     1      -0.782  11.980  18.993  0.00  0.00    +0.000 C 
BRANCH  22  23
ATOM     23  S   UNL     1      -2.622  11.833  18.902  0.00  0.00    +0.000 S 
BRANCH  23  24
ATOM     24  C   UNL     1      -2.877  11.111  17.360  0.00  0.00    +0.000 A 
ATOM     25  N   UNL     1      -2.036  10.380  16.667  0.00  0.00    +0.000 NA
ATOM     26  N   UNL     1      -2.640  10.079  15.465  0.00  0.00    +0.000 NA
ATOM     27  C   UNL     1      -3.837  10.622  15.474  0.00  0.00    +0.000 A 
ATOM     28  N   UNL     1      -4.034  11.270  16.655  0.00  0.00    +0.000 N 
ATOM     29  C   UNL     1      -5.219  11.985  17.048  0.00  0.00    +0.000 C 
ENDBRANCH  23  24
ENDBRANCH  22  23
ENDBRANCH   1  22
TORSDOF 5
ENDMDL
MODEL 3
REMARK VINA RESULT:      -8.6      1.432      2.425
REMARK  Name = 
REMARK  7 active torsions:
REMARK  status: ('A' for Active; 'I' for Inactive)
REMARK    1  A    between atoms: C_1  and  C_2
REMARK    2  A    between atoms: C_2  and  S_3
REMARK    3  A    between atoms: C_2  and  C_10
REMARK    4  A    between atoms: S_3  and  C_4
REMARK    5  A    between atoms: N_8  and  C_9
REMARK    6  A    between atoms: C_14  and  N_15
REMARK    7  A    between atoms: C_22  and  C_23
REMARK                            x       y       z     vdW  Elec       q    Type
REMARK                         _______ _______ _______ _____ _____    ______ ____
ROOT
ATOM      1  C   UNL     1       4.885   5.081  19.174  0.00  0.00    +0.000 A 
ATOM      2  C   UNL     1       4.310   3.874  19.587  0.00  0.00    +0.000 A 
ATOM      3  C   UNL     1       2.978   3.835  20.030  0.00  0.00    +0.000 A 
ATOM      4  C   UNL     1       2.192   4.997  20.079  0.00  0.00    +0.000 A 
ATOM      5  C   UNL     1       2.746   6.217  19.719  0.00  0.00    +0.000 A 
ATOM      6  C   UNL     1       4.095   6.228  19.306  0.00  0.00    +0.000 A 
ENDROOT
BRANCH   5   7
ATOM      7  N   UNL     1       2.034   7.446  19.693  0.00  0.00    +0.000 N 
ATOM      8  C   UNL     1       1.318   7.869  20.877  0.00  0.00    +0.000 C 
ATOM      9  C   UNL     1       0.788   9.207  20.539  0.00  0.00    +0.000 A 
ATOM     10  C   UNL     1       1.160   9.537  19.242  0.00  0.00    +0.000 A 
ATOM     11  C   UNL     1       0.814  10.759  18.700  0.00  0.00    +0.000 A 
ATOM     12  C   UNL     1       0.079  11.647  19.506  0.00  0.00    +0.000 A 
ATOM     13  C   UNL     1      -0.292  11.302  20.821  0.00  0.00    +0.000 A 
ATOM     14  C   UNL     1       0.061  10.062  21.365  0.00  0.00    +0.000 A 
ATOM     15  C   UNL     1       1.953   8.411  18.682  0.00  0.00    +0.000 C 
ATOM     16  O   UNL     1       2.428   8.419  17.559  0.00  0.00    +0.000 OA
BRANCH  14  17
ATOM     17  C   UNL     1      -0.315   9.681  22.777  0.00  0.00    +0.000 C 
ATOM     18  F   UNL     1      -1.033   8.523  22.862  0.00  0.00    +0.000 F 
ATOM     19  F   UNL     1       0.773   9.489  23.571  0.00  0.00    +0.000 F 
ATOM     20  F   UNL     1      -1.076  10.625  23.391  0.00  0.00    +0.000 F 
ENDBRANCH  14  17
ENDBRANCH   5   7
BRANCH   1  22
ATOM     21  C   UNL     1       7.405   5.534  19.515  0.00  0.00    +0.000 C 
ATOM     22  C   UNL     1       6.278   5.144  18.530  0.00  0.00    +0.000 C 
BRANCH  22  23
ATOM     23  S   UNL     1       6.212   6.384  17.162  0.00  0.00    +0.000 S 
BRANCH  23  24
ATOM     24  C   UNL     1       6.503   5.429  15.760  0.00  0.00    +0.000 A 
ATOM     25  N   UNL     1       7.517   5.509  14.931  0.00  0.00    +0.000 NA
ATOM     26  N   UNL     1       7.298   4.600  13.917  0.00  0.00    +0.000 NA
ATOM     27  C   UNL     1       6.165   3.985  14.173  0.00  0.00    +0.000 A 
ATOM     28  N   UNL     1       5.637   4.465  15.333  0.00  0.00    +0.000 N 
ATOM     29  C   UNL     1       4.409   4.043  15.950  0.00  0.00    +0.000 C 
ENDBRANCH  23  24
ENDBRANCH  22  23
ENDBRANCH   1  22
TORSDOF 5
ENDMDL
MODEL 4
REMARK VINA RESULT:      -8.6      1.699      2.697
REMARK  Name = 
REMARK  7 active torsions:
REMARK  status: ('A' for Active; 'I' for Inactive)
REMARK    1  A    between atoms: C_1  and  C_2
REMARK    2  A    between atoms: C_2  and  S_3
REMARK    3  A    between atoms: C_2  and  C_10
REMARK    4  A    between atoms: S_3  and  C_4
REMARK    5  A    between atoms: N_8  and  C_9
REMARK    6  A    between atoms: C_14  and  N_15
REMARK    7  A    between atoms: C_22  and  C_23
REMARK                            x       y       z     vdW  Elec       q    Type
REMARK                         _______ _______ _______ _____ _____    ______ ____
ROOT
ATOM      1  C   UNL     1       4.780   5.169  18.383  0.00  0.00    +0.000 A 
ATOM      2  C   UNL     1       4.359   3.994  19.015  0.00  0.00    +0.000 A 
ATOM      3  C   UNL     1       3.181   3.977  19.778  0.00  0.00    +0.000 A 
ATOM      4  C   UNL     1       2.399   5.132  19.936  0.00  0.00    +0.000 A 
ATOM      5  C   UNL     1       2.812   6.325  19.360  0.00  0.00    +0.000 A 
ATOM      6  C   UNL     1       4.015   6.316  18.623  0.00  0.00    +0.000 A 
ENDROOT
BRANCH   5   7
ATOM      7  N   UNL     1       2.080   7.541  19.422  0.00  0.00    +0.000 N 
ATOM      8  C   UNL     1       1.413   7.899  20.654  0.00  0.00    +0.000 C 
ATOM      9  C   UNL     1       0.848   9.241  20.402  0.00  0.00    +0.000 A 
ATOM     10  C   UNL     1       1.156   9.636  19.106  0.00  0.00    +0.000 A 
ATOM     11  C   UNL     1       0.767  10.874  18.636  0.00  0.00    +0.000 A 
ATOM     12  C   UNL     1       0.057  11.713  19.513  0.00  0.00    +0.000 A 
ATOM     13  C   UNL     1      -0.249  11.303  20.827  0.00  0.00    +0.000 A 
ATOM     14  C   UNL     1       0.146  10.045  21.297  0.00  0.00    +0.000 A 
ATOM     15  C   UNL     1       1.939   8.550  18.460  0.00  0.00    +0.000 C 
ATOM     16  O   UNL     1       2.363   8.616  17.319  0.00  0.00    +0.000 OA
BRANCH  14  17
ATOM     17  C   UNL     1      -0.159   9.595  22.706  0.00  0.00    +0.000 C 
ATOM     18  F   UNL     1      -0.846  10.518  23.441  0.00  0.00    +0.000 F 
ATOM     19  F   UNL     1      -0.920   8.469  22.739  0.00  0.00    +0.000 F 
ATOM     20  F   UNL     1       0.962   9.322  23.424  0.00  0.00    +0.000 F 
ENDBRANCH  14  17
ENDBRANCH   5   7
BRANCH   1  22
ATOM     21  C   UNL     1       6.377   6.615  16.959  0.00  0.00    +0.000 C 
ATOM     22  C   UNL     1       5.967   5.194  17.409  0.00  0.00    +0.000 C 
BRANCH  22  23
ATOM     23  S   UNL     1       5.500   4.198  15.924  0.00  0.00    +0.000 S 
BRANCH  23  24
ATOM     24  C   UNL     1       6.663   4.682  14.752  0.00  0.00    +0.000 A 
ATOM     25  N   UNL     1       7.689   5.482  14.922  0.00  0.00    +0.000 NA
ATOM     26  N   UNL     1       8.301   5.639  13.696  0.00  0.00    +0.000 NA
ATOM     27  C   UNL     1       7.636   4.914  12.823  0.00  0.00    +0.000 A 
ATOM     28  N   UNL     1       6.604   4.282  13.448  0.00  0.00    +0.000 N 
ATOM     29  C   UNL     1       5.651   3.397  12.836  0.00  0.00    +0.000 C 
ENDBRANCH  23  24
ENDBRANCH  22  23
ENDBRANCH   1  22
TORSDOF 5
ENDMDL
MODEL 5
REMARK VINA RESULT:      -8.4      4.160      8.332
REMARK  Name = 
REMARK  7 active torsions:
REMARK  status: ('A' for Active; 'I' for Inactive)
REMARK    1  A    between atoms: C_1  and  C_2
REMARK    2  A    between atoms: C_2  and  S_3
REMARK    3  A    between atoms: C_2  and  C_10
REMARK    4  A    between atoms: S_3  and  C_4
REMARK    5  A    between atoms: N_8  and  C_9
REMARK    6  A    between atoms: C_14  and  N_15
REMARK    7  A    between atoms: C_22  and  C_23
REMARK                            x       y       z     vdW  Elec       q    Type
REMARK                         _______ _______ _______ _____ _____    ______ ____
ROOT
ATOM      1  C   UNL     1       0.242  10.678  20.087  0.00  0.00    +0.000 A 
ATOM      2  C   UNL     1       0.140  10.815  21.476  0.00  0.00    +0.000 A 
ATOM      3  C   UNL     1       0.648   9.823  22.329  0.00  0.00    +0.000 A 
ATOM      4  C   UNL     1       1.262   8.668  21.819  0.00  0.00    +0.000 A 
ATOM      5  C   UNL     1       1.339   8.480  20.446  0.00  0.00    +0.000 A 
ATOM      6  C   UNL     1       0.794   9.482  19.615  0.00  0.00    +0.000 A 
ENDROOT
BRANCH   5   7
ATOM      7  N   UNL     1       1.972   7.372  19.822  0.00  0.00    +0.000 N 
ATOM      8  C   UNL     1       1.794   6.052  20.386  0.00  0.00    +0.000 C 
ATOM      9  C   UNL     1       2.491   5.145  19.449  0.00  0.00    +0.000 A 
ATOM     10  C   UNL     1       3.046   5.887  18.414  0.00  0.00    +0.000 A 
ATOM     11  C   UNL     1       3.724   5.263  17.386  0.00  0.00    +0.000 A 
ATOM     12  C   UNL     1       3.827   3.862  17.426  0.00  0.00    +0.000 A 
ATOM     13  C   UNL     1       3.259   3.118  18.480  0.00  0.00    +0.000 A 
ATOM     14  C   UNL     1       2.574   3.756  19.520  0.00  0.00    +0.000 A 
ATOM     15  C   UNL     1       2.729   7.322  18.645  0.00  0.00    +0.000 C 
ATOM     16  O   UNL     1       3.077   8.215  17.891  0.00  0.00    +0.000 OA
BRANCH  14  17
ATOM     17  C   UNL     1       1.945   2.975  20.650  0.00  0.00    +0.000 C 
ATOM     18  F   UNL     1       0.682   3.385  20.965  0.00  0.00    +0.000 F 
ATOM     19  F   UNL     1       1.834   1.649  20.366  0.00  0.00    +0.000 F 
ATOM     20  F   UNL     1       2.654   3.062  21.807  0.00  0.00    +0.000 F 
ENDBRANCH  14  17
ENDBRANCH   5   7
BRANCH   1  22
ATOM     21  C   UNL     1       0.702  13.088  19.281  0.00  0.00    +0.000 C 
ATOM     22  C   UNL     1      -0.150  11.808  19.123  0.00  0.00    +0.000 C 
BRANCH  22  23
ATOM     23  S   UNL     1      -1.925  12.218  19.429  0.00  0.00    +0.000 S 
BRANCH  23  24
ATOM     24  C   UNL     1      -2.713  11.595  18.031  0.00  0.00    +0.000 A 
ATOM     25  N   UNL     1      -2.159  11.059  16.969  0.00  0.00    +0.000 NA
ATOM     26  N   UNL     1      -3.168  10.769  16.076  0.00  0.00    +0.000 NA
ATOM     27  C   UNL     1      -4.306  11.123  16.632  0.00  0.00    +0.000 A 
ATOM     28  N   UNL     1      -4.068  11.635  17.870  0.00  0.00    +0.000 N 
ATOM     29  C   UNL     1      -5.054  12.129  18.793  0.00  0.00    +0.000 C 
ENDBRANCH  23  24
ENDBRANCH  22  23
ENDBRANCH   1  22
TORSDOF 5
ENDMDL
MODEL 6
REMARK VINA RESULT:      -8.4      4.512      8.487
REMARK  Name = 
REMARK  7 active torsions:
REMARK  status: ('A' for Active; 'I' for Inactive)
REMARK    1  A    between atoms: C_1  and  C_2
REMARK    2  A    between atoms: C_2  and  S_3
REMARK    3  A    between atoms: C_2  and  C_10
REMARK    4  A    between atoms: S_3  and  C_4
REMARK    5  A    between atoms: N_8  and  C_9
REMARK    6  A    between atoms: C_14  and  N_15
REMARK    7  A    between atoms: C_22  and  C_23
REMARK                            x       y       z     vdW  Elec       q    Type
REMARK                         _______ _______ _______ _____ _____    ______ ____
ROOT
ATOM      1  C   UNL     1       0.749  10.248  19.857  0.00  0.00    +0.000 A 
ATOM      2  C   UNL     1       0.647  10.334  21.250  0.00  0.00    +0.000 A 
ATOM      3  C   UNL     1       1.059   9.266  22.063  0.00  0.00    +0.000 A 
ATOM      4  C   UNL     1       1.576   8.085  21.506  0.00  0.00    +0.000 A 
ATOM      5  C   UNL     1       1.649   7.949  20.127  0.00  0.00    +0.000 A 
ATOM      6  C   UNL     1       1.200   9.029  19.338  0.00  0.00    +0.000 A 
ENDROOT
BRANCH   5   7
ATOM      7  N   UNL     1       2.189   6.818  19.460  0.00  0.00    +0.000 N 
ATOM      8  C   UNL     1       3.165   7.020  18.411  0.00  0.00    +0.000 C 
ATOM      9  C   UNL     1       3.579   5.658  18.015  0.00  0.00    +0.000 A 
ATOM     10  C   UNL     1       2.885   4.724  18.773  0.00  0.00    +0.000 A 
ATOM     11  C   UNL     1       3.120   3.373  18.614  0.00  0.00    +0.000 A 
ATOM     12  C   UNL     1       4.082   2.983  17.667  0.00  0.00    +0.000 A 
ATOM     13  C   UNL     1       4.783   3.939  16.903  0.00  0.00    +0.000 A 
ATOM     14  C   UNL     1       4.539   5.308  17.067  0.00  0.00    +0.000 A 
ATOM     15  C   UNL     1       1.980   5.454  19.700  0.00  0.00    +0.000 C 
ATOM     16  O   UNL     1       1.250   4.897  20.502  0.00  0.00    +0.000 OA
BRANCH  14  17
ATOM     17  C   UNL     1       5.291   6.347  16.270  0.00  0.00    +0.000 C 
ATOM     18  F   UNL     1       6.144   5.818  15.345  0.00  0.00    +0.000 F 
ATOM     19  F   UNL     1       4.460   7.165  15.568  0.00  0.00    +0.000 F 
ATOM     20  F   UNL     1       6.057   7.155  17.049  0.00  0.00    +0.000 F 
ENDBRANCH  14  17
ENDBRANCH   5   7
BRANCH   1  22
ATOM     21  C   UNL     1       1.387  12.661  19.195  0.00  0.00    +0.000 C 
ATOM     22  C   UNL     1       0.465  11.447  18.941  0.00  0.00    +0.000 C 
BRANCH  22  23
ATOM     23  S   UNL     1      -1.292  11.953  19.204  0.00  0.00    +0.000 S 
BRANCH  23  24
ATOM     24  C   UNL     1      -2.135  11.071  17.990  0.00  0.00    +0.000 A 
ATOM     25  N   UNL     1      -1.628  10.280  17.074  0.00  0.00    +0.000 NA
ATOM     26  N   UNL     1      -2.667   9.848  16.277  0.00  0.00    +0.000 NA
ATOM     27  C   UNL     1      -3.775  10.377  16.746  0.00  0.00    +0.000 A 
ATOM     28  N   UNL     1      -3.489  11.144  17.834  0.00  0.00    +0.000 N 
ATOM     29  C   UNL     1      -4.433  11.884  18.627  0.00  0.00    +0.000 C 
ENDBRANCH  23  24
ENDBRANCH  22  23
ENDBRANCH   1  22
TORSDOF 5
ENDMDL
MODEL 7
REMARK VINA RESULT:      -8.3      0.738      1.227
REMARK  Name = 
REMARK  7 active torsions:
REMARK  status: ('A' for Active; 'I' for Inactive)
REMARK    1  A    between atoms: C_1  and  C_2
REMARK    2  A    between atoms: C_2  and  S_3
REMARK    3  A    between atoms: C_2  and  C_10
REMARK    4  A    between atoms: S_3  and  C_4
REMARK    5  A    between atoms: N_8  and  C_9
REMARK    6  A    between atoms: C_14  and  N_15
REMARK    7  A    between atoms: C_22  and  C_23
REMARK                            x       y       z     vdW  Elec       q    Type
REMARK                         _______ _______ _______ _____ _____    ______ ____
ROOT
ATOM      1  C   UNL     1       3.949   5.102  17.704  0.00  0.00    +0.000 A 
ATOM      2  C   UNL     1       3.880   4.093  18.670  0.00  0.00    +0.000 A 
ATOM      3  C   UNL     1       3.166   4.294  19.862  0.00  0.00    +0.000 A 
ATOM      4  C   UNL     1       2.510   5.508  20.122  0.00  0.00    +0.000 A 
ATOM      5  C   UNL     1       2.598   6.546  19.205  0.00  0.00    +0.000 A 
ATOM      6  C   UNL     1       3.347   6.322  18.030  0.00  0.00    +0.000 A 
ENDROOT
BRANCH   5   7
ATOM      7  N   UNL     1       1.944   7.799  19.347  0.00  0.00    +0.000 N 
ATOM      8  C   UNL     1       1.288   8.112  20.598  0.00  0.00    +0.000 C 
ATOM      9  C   UNL     1       0.812   9.502  20.436  0.00  0.00    +0.000 A 
ATOM     10  C   UNL     1       1.157   9.965  19.173  0.00  0.00    +0.000 A 
ATOM     11  C   UNL     1       0.852  11.256  18.788  0.00  0.00    +0.000 A 
ATOM     12  C   UNL     1       0.187  12.075  19.717  0.00  0.00    +0.000 A 
ATOM     13  C   UNL     1      -0.157  11.595  20.998  0.00  0.00    +0.000 A 
ATOM     14  C   UNL     1       0.153  10.286  21.381  0.00  0.00    +0.000 A 
ATOM     15  C   UNL     1       1.877   8.878  18.457  0.00  0.00    +0.000 C 
ATOM     16  O   UNL     1       2.315   8.997  17.325  0.00  0.00    +0.000 OA
BRANCH  14  17
ATOM     17  C   UNL     1      -0.194   9.760  22.754  0.00  0.00    +0.000 C 
ATOM     18  F   UNL     1      -0.961   8.631  22.732  0.00  0.00    +0.000 F 
ATOM     19  F   UNL     1       0.909   9.432  23.479  0.00  0.00    +0.000 F 
ATOM     20  F   UNL     1      -0.891  10.658  23.499  0.00  0.00    +0.000 F 
ENDBRANCH  14  17
ENDBRANCH   5   7
BRANCH   1  22
ATOM     21  C   UNL     1       5.164   3.452  16.132  0.00  0.00    +0.000 C 
ATOM     22  C   UNL     1       4.578   4.870  16.322  0.00  0.00    +0.000 C 
BRANCH  22  23
ATOM     23  S   UNL     1       5.923   6.117  16.098  0.00  0.00    +0.000 S 
BRANCH  23  24
ATOM     24  C   UNL     1       6.927   5.855  17.472  0.00  0.00    +0.000 A 
ATOM     25  N   UNL     1       7.146   4.725  18.103  0.00  0.00    +0.000 NA
ATOM     26  N   UNL     1       7.957   5.003  19.183  0.00  0.00    +0.000 NA
ATOM     27  C   UNL     1       8.219   6.291  19.163  0.00  0.00    +0.000 A 
ATOM     28  N   UNL     1       7.602   6.865  18.094  0.00  0.00    +0.000 N 
ATOM     29  C   UNL     1       7.650   8.255  17.727  0.00  0.00    +0.000 C 
ENDBRANCH  23  24
ENDBRANCH  22  23
ENDBRANCH   1  22
TORSDOF 5
ENDMDL
MODEL 8
REMARK VINA RESULT:      -8.3      4.569      8.604
REMARK  Name = 
REMARK  7 active torsions:
REMARK  status: ('A' for Active; 'I' for Inactive)
REMARK    1  A    between atoms: C_1  and  C_2
REMARK    2  A    between atoms: C_2  and  S_3
REMARK    3  A    between atoms: C_2  and  C_10
REMARK    4  A    between atoms: S_3  and  C_4
REMARK    5  A    between atoms: N_8  and  C_9
REMARK    6  A    between atoms: C_14  and  N_15
REMARK    7  A    between atoms: C_22  and  C_23
REMARK                            x       y       z     vdW  Elec       q    Type
REMARK                         _______ _______ _______ _____ _____    ______ ____
ROOT
ATOM      1  C   UNL     1       0.907  10.327  19.732  0.00  0.00    +0.000 A 
ATOM      2  C   UNL     1       0.759  10.395  21.122  0.00  0.00    +0.000 A 
ATOM      3  C   UNL     1       1.099   9.299  21.930  0.00  0.00    +0.000 A 
ATOM      4  C   UNL     1       1.587   8.107  21.371  0.00  0.00    +0.000 A 
ATOM      5  C   UNL     1       1.703   7.990  19.994  0.00  0.00    +0.000 A 
ATOM      6  C   UNL     1       1.326   9.100  19.208  0.00  0.00    +0.000 A 
ENDROOT
BRANCH   5   7
ATOM      7  N   UNL     1       2.221   6.848  19.326  0.00  0.00    +0.000 N 
ATOM      8  C   UNL     1       3.208   7.030  18.283  0.00  0.00    +0.000 C 
ATOM      9  C   UNL     1       3.592   5.660  17.885  0.00  0.00    +0.000 A 
ATOM     10  C   UNL     1       2.872   4.740  18.637  0.00  0.00    +0.000 A 
ATOM     11  C   UNL     1       3.076   3.385  18.475  0.00  0.00    +0.000 A 
ATOM     12  C   UNL     1       4.035   2.976  17.532  0.00  0.00    +0.000 A 
ATOM     13  C   UNL     1       4.762   3.917  16.776  0.00  0.00    +0.000 A 
ATOM     14  C   UNL     1       4.549   5.291  16.942  0.00  0.00    +0.000 A 
ATOM     15  C   UNL     1       1.978   5.489  19.561  0.00  0.00    +0.000 C 
ATOM     16  O   UNL     1       1.231   4.947  20.356  0.00  0.00    +0.000 OA
BRANCH  14  17
ATOM     17  C   UNL     1       5.329   6.314  16.152  0.00  0.00    +0.000 C 
ATOM     18  F   UNL     1       6.094   7.139  16.925  0.00  0.00    +0.000 F 
ATOM     19  F   UNL     1       6.193   5.742  15.271  0.00  0.00    +0.000 F 
ATOM     20  F   UNL     1       4.529   7.138  15.425  0.00  0.00    +0.000 F 
ENDBRANCH  14  17
ENDBRANCH   5   7
BRANCH   1  22
ATOM     21  C   UNL     1       1.980  12.403  18.631  0.00  0.00    +0.000 C 
ATOM     22  C   UNL     1       0.704  11.551  18.827  0.00  0.00    +0.000 C 
BRANCH  22  23
ATOM     23  S   UNL     1      -0.615  12.600  19.585  0.00  0.00    +0.000 S 
BRANCH  23  24
ATOM     24  C   UNL     1      -2.047  12.041  18.810  0.00  0.00    +0.000 A 
ATOM     25  N   UNL     1      -2.152  11.466  17.635  0.00  0.00    +0.000 NA
ATOM     26  N   UNL     1      -3.493  11.255  17.394  0.00  0.00    +0.000 NA
ATOM     27  C   UNL     1      -4.159  11.693  18.439  0.00  0.00    +0.000 A 
ATOM     28  N   UNL     1      -3.286  12.183  19.363  0.00  0.00    +0.000 N 
ATOM     29  C   UNL     1      -3.626  12.748  20.640  0.00  0.00    +0.000 C 
ENDBRANCH  23  24
ENDBRANCH  22  23
ENDBRANCH   1  22
TORSDOF 5
ENDMDL
MODEL 9
REMARK VINA RESULT:      -8.3      4.023      8.196
REMARK  Name = 
REMARK  7 active torsions:
REMARK  status: ('A' for Active; 'I' for Inactive)
REMARK    1  A    between atoms: C_1  and  C_2
REMARK    2  A    between atoms: C_2  and  S_3
REMARK    3  A    between atoms: C_2  and  C_10
REMARK    4  A    between atoms: S_3  and  C_4
REMARK    5  A    between atoms: N_8  and  C_9
REMARK    6  A    between atoms: C_14  and  N_15
REMARK    7  A    between atoms: C_22  and  C_23
REMARK                            x       y       z     vdW  Elec       q    Type
REMARK                         _______ _______ _______ _____ _____    ______ ____
ROOT
ATOM      1  C   UNL     1       0.982   9.836  20.247  0.00  0.00    +0.000 A 
ATOM      2  C   UNL     1       1.049  10.731  19.174  0.00  0.00    +0.000 A 
ATOM      3  C   UNL     1       1.643  10.348  17.961  0.00  0.00    +0.000 A 
ATOM      4  C   UNL     1       2.190   9.066  17.792  0.00  0.00    +0.000 A 
ATOM      5  C   UNL     1       2.181   8.169  18.850  0.00  0.00    +0.000 A 
ATOM      6  C   UNL     1       1.603   8.595  20.065  0.00  0.00    +0.000 A 
ENDROOT
BRANCH   5   7
ATOM      7  N   UNL     1       2.670   6.838  18.778  0.00  0.00    +0.000 N 
ATOM      8  C   UNL     1       2.213   5.867  19.749  0.00  0.00    +0.000 C 
ATOM      9  C   UNL     1       2.829   4.592  19.325  0.00  0.00    +0.000 A 
ATOM     10  C   UNL     1       3.602   4.806  18.191  0.00  0.00    +0.000 A 
ATOM     11  C   UNL     1       4.258   3.757  17.578  0.00  0.00    +0.000 A 
ATOM     12  C   UNL     1       4.113   2.477  18.140  0.00  0.00    +0.000 A 
ATOM     13  C   UNL     1       3.324   2.270  19.291  0.00  0.00    +0.000 A 
ATOM     14  C   UNL     1       2.663   3.338  19.909  0.00  0.00    +0.000 A 
ATOM     15  C   UNL     1       3.518   6.247  17.833  0.00  0.00    +0.000 C 
ATOM     16  O   UNL     1       4.086   6.732  16.870  0.00  0.00    +0.000 OA
BRANCH  14  17
ATOM     17  C   UNL     1       1.802   3.133  21.132  0.00  0.00    +0.000 C 
ATOM     18  F   UNL     1       1.769   1.841  21.572  0.00  0.00    +0.000 F 
ATOM     19  F   UNL     1       2.229   3.865  22.197  0.00  0.00    +0.000 F 
ATOM     20  F   UNL     1       0.504   3.479  20.925  0.00  0.00    +0.000 F 
ENDBRANCH  14  17
ENDBRANCH   5   7
BRANCH   1  22
ATOM     21  C   UNL     1      -0.354   8.904  22.251  0.00  0.00    +0.000 C 
ATOM     22  C   UNL     1       0.201  10.154  21.530  0.00  0.00    +0.000 C 
BRANCH  22  23
ATOM     23  S   UNL     1      -1.202  11.266  21.075  0.00  0.00    +0.000 S 
BRANCH  23  24
ATOM     24  C   UNL     1      -0.931  12.654  22.057  0.00  0.00    +0.000 A 
ATOM     25  N   UNL     1       0.092  13.474  22.021  0.00  0.00    +0.000 NA
ATOM     26  N   UNL     1      -0.080  14.396  23.033  0.00  0.00    +0.000 NA
ATOM     27  C   UNL     1      -1.212  14.115  23.639  0.00  0.00    +0.000 A 
ATOM     28  N   UNL     1      -1.789  13.033  23.047  0.00  0.00    +0.000 N 
ATOM     29  C   UNL     1      -3.036  12.423  23.420  0.00  0.00    +0.000 C 
ENDBRANCH  23  24
ENDBRANCH  22  23
ENDBRANCH   1  22
TORSDOF 5
ENDMDL
