MODEL 1
REMARK VINA RESULT:      -8.0      0.000      0.000
REMARK  Name = 
REMARK  8 active torsions:
REMARK  status: ('A' for Active; 'I' for Inactive)
REMARK    1  A    between atoms: C_1  and  C_2
REMARK    2  A    between atoms: C_2  and  S_3
REMARK    3  A    between atoms: C_2  and  C_10
REMARK    4  A    between atoms: S_3  and  C_4
REMARK    5  A    between atoms: N_8  and  C_9
REMARK    6  A    between atoms: C_14  and  N_15
REMARK    7  A    between atoms: C_16  and  C_18
REMARK    8  A    between atoms: C_22  and  C_23
REMARK                            x       y       z     vdW  Elec       q    Type
REMARK                         _______ _______ _______ _____ _____    ______ ____
ROOT
ATOM      1  C   UNL     1      -0.411  11.169  18.673  0.00  0.00    +0.000 A 
ATOM      2  C   UNL     1       0.452  12.280  18.714  0.00  0.00    +0.000 A 
ATOM      3  C   UNL     1       1.801  12.146  18.404  0.00  0.00    +0.000 A 
ATOM      4  C   UNL     1       2.322  10.892  18.089  0.00  0.00    +0.000 A 
ATOM      5  C   UNL     1       1.510   9.756  18.097  0.00  0.00    +0.000 A 
ATOM      6  C   UNL     1       0.145   9.907  18.374  0.00  0.00    +0.000 A 
ENDROOT
BRANCH   5   7
ATOM      7  N   UNL     1       1.992   8.458  17.795  0.00  0.00    +0.000 N 
ATOM      8  C   UNL     1       2.373   7.509  18.729  0.00  0.00    +0.000 C 
ATOM      9  O   UNL     1       2.217   7.622  19.946  0.00  0.00    +0.000 OA
ATOM     10  H   UNL     1       2.005   8.193  16.817  0.00  0.00    +0.000 HD
BRANCH   8  11
ATOM     11  C   UNL     1       3.008   6.250  18.246  0.00  0.00    +0.000 A 
ATOM     12  C   UNL     1       4.089   6.384  17.356  0.00  0.00    +0.000 A 
ATOM     13  C   UNL     1       4.703   5.267  16.798  0.00  0.00    +0.000 A 
ATOM     14  C   UNL     1       4.240   3.994  17.116  0.00  0.00    +0.000 A 
ATOM     15  C   UNL     1       3.167   3.832  18.008  0.00  0.00    +0.000 A 
ATOM     16  C   UNL     1       2.567   4.967  18.573  0.00  0.00    +0.000 A 
ATOM     17  F   UNL     1       1.552   4.798  19.437  0.00  0.00    +0.000 F 
BRANCH  15  18
ATOM     18  C   UNL     1       2.649   2.466  18.350  0.00  0.00    +0.000 C 
ATOM     19  F   UNL     1       3.291   1.468  17.674  0.00  0.00    +0.000 F 
ATOM     20  F   UNL     1       2.786   2.163  19.668  0.00  0.00    +0.000 F 
ATOM     21  F   UNL     1       1.329   2.312  18.055  0.00  0.00    +0.000 F 
ENDBRANCH  15  18
ENDBRANCH   8  11
ENDBRANCH   5   7
BRANCH   1  23
ATOM     22  C   UNL     1      -2.714  11.475  17.572  0.00  0.00    +0.000 C 
ATOM     23  C   UNL     1      -1.912  11.398  18.878  0.00  0.00    +0.000 C 
BRANCH  23  24
ATOM     24  S   UNL     1      -2.102  12.963  19.837  0.00  0.00    +0.000 S 
BRANCH  24  25
ATOM     25  C   UNL     1      -1.967  12.441  21.469  0.00  0.00    +0.000 A 
ATOM     26  N   UNL     1      -0.899  12.004  22.093  0.00  0.00    +0.000 NA
ATOM     27  N   UNL     1      -1.287  11.638  23.365  0.00  0.00    +0.000 NA
ATOM     28  C   UNL     1      -2.573  11.879  23.478  0.00  0.00    +0.000 A 
ATOM     29  N   UNL     1      -3.040  12.406  22.311  0.00  0.00    +0.000 N 
ATOM     30  C   UNL     1      -4.391  12.811  22.035  0.00  0.00    +0.000 C 
ENDBRANCH  24  25
ENDBRANCH  23  24
ENDBRANCH   1  23
TORSDOF 6
ENDMDL
MODEL 2
REMARK VINA RESULT:      -8.0      3.047      4.074
REMARK  Name = 
REMARK  8 active torsions:
REMARK  status: ('A' for Active; 'I' for Inactive)
REMARK    1  A    between atoms: C_1  and  C_2
REMARK    2  A    between atoms: C_2  and  S_3
REMARK    3  A    between atoms: C_2  and  C_10
REMARK    4  A    between atoms: S_3  and  C_4
REMARK    5  A    between atoms: N_8  and  C_9
REMARK    6  A    between atoms: C_14  and  N_15
REMARK    7  A    between atoms: C_16  and  C_18
REMARK    8  A    between atoms: C_22  and  C_23
REMARK                            x       y       z     vdW  Elec       q    Type
REMARK                         _______ _______ _______ _____ _____    ______ ____
ROOT
ATOM      1  C   UNL     1      -0.310  11.338  18.618  0.00  0.00    +0.000 A 
ATOM      2  C   UNL     1       0.633  12.367  18.791  0.00  0.00    +0.000 A 
ATOM      3  C   UNL     1       1.983  12.146  18.540  0.00  0.00    +0.000 A 
ATOM      4  C   UNL     1       2.421  10.881  18.156  0.00  0.00    +0.000 A 
ATOM      5  C   UNL     1       1.525   9.818  18.033  0.00  0.00    +0.000 A 
ATOM      6  C   UNL     1       0.162  10.060  18.250  0.00  0.00    +0.000 A 
ENDROOT
BRANCH   5   7
ATOM      7  N   UNL     1       1.920   8.510  17.655  0.00  0.00    +0.000 N 
ATOM      8  C   UNL     1       2.345   7.520  18.524  0.00  0.00    +0.000 C 
ATOM      9  O   UNL     1       2.308   7.605  19.753  0.00  0.00    +0.000 OA
ATOM     10  H   UNL     1       1.830   8.273  16.673  0.00  0.00    +0.000 HD
BRANCH   8  11
ATOM     11  C   UNL     1       2.877   6.251  17.953  0.00  0.00    +0.000 A 
ATOM     12  C   UNL     1       2.070   5.107  18.084  0.00  0.00    +0.000 A 
ATOM     13  C   UNL     1       2.509   3.862  17.644  0.00  0.00    +0.000 A 
ATOM     14  C   UNL     1       3.770   3.740  17.069  0.00  0.00    +0.000 A 
ATOM     15  C   UNL     1       4.594   4.867  16.920  0.00  0.00    +0.000 A 
ATOM     16  C   UNL     1       4.132   6.118  17.356  0.00  0.00    +0.000 A 
ATOM     17  F   UNL     1       4.923   7.191  17.193  0.00  0.00    +0.000 F 
BRANCH  15  18
ATOM     18  C   UNL     1       5.962   4.747  16.315  0.00  0.00    +0.000 C 
ATOM     19  F   UNL     1       6.161   5.608  15.274  0.00  0.00    +0.000 F 
ATOM     20  F   UNL     1       6.958   5.011  17.202  0.00  0.00    +0.000 F 
ATOM     21  F   UNL     1       6.212   3.507  15.813  0.00  0.00    +0.000 F 
ENDBRANCH  15  18
ENDBRANCH   8  11
ENDBRANCH   5   7
BRANCH   1  23
ATOM     22  C   UNL     1      -2.178  12.234  20.141  0.00  0.00    +0.000 C 
ATOM     23  C   UNL     1      -1.798  11.673  18.764  0.00  0.00    +0.000 C 
BRANCH  23  24
ATOM     24  S   UNL     1      -2.745  10.126  18.422  0.00  0.00    +0.000 S 
BRANCH  24  25
ATOM     25  C   UNL     1      -3.049  10.218  16.733  0.00  0.00    +0.000 A 
ATOM     26  N   UNL     1      -2.393   9.633  15.760  0.00  0.00    +0.000 NA
ATOM     27  N   UNL     1      -2.957  10.053  14.573  0.00  0.00    +0.000 NA
ATOM     28  C   UNL     1      -3.946  10.867  14.864  0.00  0.00    +0.000 A 
ATOM     29  N   UNL     1      -4.054  10.983  16.218  0.00  0.00    +0.000 N 
ATOM     30  C   UNL     1      -5.017  11.774  16.934  0.00  0.00    +0.000 C 
ENDBRANCH  24  25
ENDBRANCH  23  24
ENDBRANCH   1  23
TORSDOF 6
ENDMDL
MODEL 3
REMARK VINA RESULT:      -8.0      2.288      3.242
REMARK  Name = 
REMARK  8 active torsions:
REMARK  status: ('A' for Active; 'I' for Inactive)
REMARK    1  A    between atoms: C_1  and  C_2
REMARK    2  A    between atoms: C_2  and  S_3
REMARK    3  A    between atoms: C_2  and  C_10
REMARK    4  A    between atoms: S_3  and  C_4
REMARK    5  A    between atoms: N_8  and  C_9
REMARK    6  A    between atoms: C_14  and  N_15
REMARK    7  A    between atoms: C_16  and  C_18
REMARK    8  A    between atoms: C_22  and  C_23
REMARK                            x       y       z     vdW  Elec       q    Type
REMARK                         _______ _______ _______ _____ _____    ______ ____
ROOT
ATOM      1  C   UNL     1       0.036  10.759  20.343  0.00  0.00    +0.000 A 
ATOM      2  C   UNL     1      -0.374  10.669  21.686  0.00  0.00    +0.000 A 
ATOM      3  C   UNL     1       0.063   9.625  22.496  0.00  0.00    +0.000 A 
ATOM      4  C   UNL     1       0.881   8.629  21.967  0.00  0.00    +0.000 A 
ATOM      5  C   UNL     1       1.259   8.651  20.623  0.00  0.00    +0.000 A 
ATOM      6  C   UNL     1       0.845   9.726  19.825  0.00  0.00    +0.000 A 
ENDROOT
BRANCH   5   7
ATOM      7  N   UNL     1       2.080   7.657  20.033  0.00  0.00    +0.000 N 
ATOM      8  C   UNL     1       2.282   7.491  18.674  0.00  0.00    +0.000 C 
ATOM      9  O   UNL     1       1.881   8.268  17.806  0.00  0.00    +0.000 OA
ATOM     10  H   UNL     1       2.598   7.059  20.667  0.00  0.00    +0.000 HD
BRANCH   8  11
ATOM     11  C   UNL     1       3.048   6.301  18.208  0.00  0.00    +0.000 A 
ATOM     12  C   UNL     1       4.165   6.543  17.389  0.00  0.00    +0.000 A 
ATOM     13  C   UNL     1       4.904   5.495  16.849  0.00  0.00    +0.000 A 
ATOM     14  C   UNL     1       4.531   4.181  17.115  0.00  0.00    +0.000 A 
ATOM     15  C   UNL     1       3.424   3.910  17.936  0.00  0.00    +0.000 A 
ATOM     16  C   UNL     1       2.698   4.978  18.484  0.00  0.00    +0.000 A 
ATOM     17  F   UNL     1       1.651   4.705  19.280  0.00  0.00    +0.000 F 
BRANCH  15  18
ATOM     18  C   UNL     1       3.002   2.498  18.220  0.00  0.00    +0.000 C 
ATOM     19  F   UNL     1       1.741   2.220  17.781  0.00  0.00    +0.000 F 
ATOM     20  F   UNL     1       3.808   1.577  17.627  0.00  0.00    +0.000 F 
ATOM     21  F   UNL     1       2.997   2.205  19.549  0.00  0.00    +0.000 F 
ENDBRANCH  15  18
ENDBRANCH   8  11
ENDBRANCH   5   7
BRANCH   1  23
ATOM     22  C   UNL     1       0.324  13.294  20.024  0.00  0.00    +0.000 C 
ATOM     23  C   UNL     1      -0.353  12.004  19.540  0.00  0.00    +0.000 C 
BRANCH  23  24
ATOM     24  S   UNL     1      -2.189  12.171  19.640  0.00  0.00    +0.000 S 
BRANCH  24  25
ATOM     25  C   UNL     1      -2.718  11.603  18.106  0.00  0.00    +0.000 A 
ATOM     26  N   UNL     1      -1.989  11.130  17.124  0.00  0.00    +0.000 NA
ATOM     27  N   UNL     1      -2.840  10.865  16.071  0.00  0.00    +0.000 NA
ATOM     28  C   UNL     1      -4.059  11.170  16.454  0.00  0.00    +0.000 A 
ATOM     29  N   UNL     1      -4.031  11.620  17.740  0.00  0.00    +0.000 N 
ATOM     30  C   UNL     1      -5.160  12.044  18.522  0.00  0.00    +0.000 C 
ENDBRANCH  24  25
ENDBRANCH  23  24
ENDBRANCH   1  23
TORSDOF 6
ENDMDL
MODEL 4
REMARK VINA RESULT:      -8.0      3.069      4.067
REMARK  Name = 
REMARK  8 active torsions:
REMARK  status: ('A' for Active; 'I' for Inactive)
REMARK    1  A    between atoms: C_1  and  C_2
REMARK    2  A    between atoms: C_2  and  S_3
REMARK    3  A    between atoms: C_2  and  C_10
REMARK    4  A    between atoms: S_3  and  C_4
REMARK    5  A    between atoms: N_8  and  C_9
REMARK    6  A    between atoms: C_14  and  N_15
REMARK    7  A    between atoms: C_16  and  C_18
REMARK    8  A    between atoms: C_22  and  C_23
REMARK                            x       y       z     vdW  Elec       q    Type
REMARK                         _______ _______ _______ _____ _____    ______ ____
ROOT
ATOM      1  C   UNL     1       0.035  10.765  20.108  0.00  0.00    +0.000 A 
ATOM      2  C   UNL     1      -0.119  10.828  21.505  0.00  0.00    +0.000 A 
ATOM      3  C   UNL     1       0.432   9.851  22.327  0.00  0.00    +0.000 A 
ATOM      4  C   UNL     1       1.107   8.769  21.766  0.00  0.00    +0.000 A 
ATOM      5  C   UNL     1       1.227   8.639  20.381  0.00  0.00    +0.000 A 
ATOM      6  C   UNL     1       0.703   9.648  19.563  0.00  0.00    +0.000 A 
ENDROOT
BRANCH   5   7
ATOM      7  N   UNL     1       1.895   7.553  19.760  0.00  0.00    +0.000 N 
ATOM      8  C   UNL     1       2.489   7.590  18.510  0.00  0.00    +0.000 C 
ATOM      9  O   UNL     1       2.632   8.609  17.833  0.00  0.00    +0.000 OA
ATOM     10  H   UNL     1       1.985   6.702  20.304  0.00  0.00    +0.000 HD
BRANCH   8  11
ATOM     11  C   UNL     1       3.011   6.319  17.932  0.00  0.00    +0.000 A 
ATOM     12  C   UNL     1       2.195   5.181  18.060  0.00  0.00    +0.000 A 
ATOM     13  C   UNL     1       2.624   3.935  17.614  0.00  0.00    +0.000 A 
ATOM     14  C   UNL     1       3.883   3.806  17.036  0.00  0.00    +0.000 A 
ATOM     15  C   UNL     1       4.715   4.927  16.889  0.00  0.00    +0.000 A 
ATOM     16  C   UNL     1       4.263   6.180  17.332  0.00  0.00    +0.000 A 
ATOM     17  F   UNL     1       5.061   7.248  17.171  0.00  0.00    +0.000 F 
BRANCH  15  18
ATOM     18  C   UNL     1       6.080   4.800  16.280  0.00  0.00    +0.000 C 
ATOM     19  F   UNL     1       6.359   3.532  15.858  0.00  0.00    +0.000 F 
ATOM     20  F   UNL     1       6.248   5.594  15.189  0.00  0.00    +0.000 F 
ATOM     21  F   UNL     1       7.078   5.122  17.147  0.00  0.00    +0.000 F 
ENDBRANCH  15  18
ENDBRANCH   8  11
ENDBRANCH   5   7
BRANCH   1  23
ATOM     22  C   UNL     1       0.026  13.311  19.752  0.00  0.00    +0.000 C 
ATOM     23  C   UNL     1      -0.462  11.942  19.261  0.00  0.00    +0.000 C 
BRANCH  23  24
ATOM     24  S   UNL     1      -2.307  11.881  19.266  0.00  0.00    +0.000 S 
BRANCH  24  25
ATOM     25  C   UNL     1      -2.682  11.257  17.709  0.00  0.00    +0.000 A 
ATOM     26  N   UNL     1      -1.881  10.650  16.867  0.00  0.00    +0.000 NA
ATOM     27  N   UNL     1      -2.608  10.391  15.723  0.00  0.00    +0.000 NA
ATOM     28  C   UNL     1      -3.829  10.834  15.914  0.00  0.00    +0.000 A 
ATOM     29  N   UNL     1      -3.927  11.370  17.163  0.00  0.00    +0.000 N 
ATOM     30  C   UNL     1      -5.100  11.952  17.755  0.00  0.00    +0.000 C 
ENDBRANCH  24  25
ENDBRANCH  23  24
ENDBRANCH   1  23
TORSDOF 6
ENDMDL
MODEL 5
REMARK VINA RESULT:      -7.9      4.917      9.974
REMARK  Name = 
REMARK  8 active torsions:
REMARK  status: ('A' for Active; 'I' for Inactive)
REMARK    1  A    between atoms: C_1  and  C_2
REMARK    2  A    between atoms: C_2  and  S_3
REMARK    3  A    between atoms: C_2  and  C_10
REMARK    4  A    between atoms: S_3  and  C_4
REMARK    5  A    between atoms: N_8  and  C_9
REMARK    6  A    between atoms: C_14  and  N_15
REMARK    7  A    between atoms: C_16  and  C_18
REMARK    8  A    between atoms: C_22  and  C_23
REMARK                            x       y       z     vdW  Elec       q    Type
REMARK                         _______ _______ _______ _____ _____    ______ ____
ROOT
ATOM      1  C   UNL     1       4.690   5.134  18.127  0.00  0.00    +0.000 A 
ATOM      2  C   UNL     1       4.620   3.783  18.512  0.00  0.00    +0.000 A 
ATOM      3  C   UNL     1       3.684   3.356  19.447  0.00  0.00    +0.000 A 
ATOM      4  C   UNL     1       2.830   4.278  20.048  0.00  0.00    +0.000 A 
ATOM      5  C   UNL     1       2.910   5.637  19.738  0.00  0.00    +0.000 A 
ATOM      6  C   UNL     1       3.830   6.052  18.767  0.00  0.00    +0.000 A 
ENDROOT
BRANCH   5   7
ATOM      7  N   UNL     1       2.072   6.616  20.328  0.00  0.00    +0.000 N 
ATOM      8  C   UNL     1       1.836   7.881  19.815  0.00  0.00    +0.000 C 
ATOM      9  O   UNL     1       2.218   8.270  18.711  0.00  0.00    +0.000 OA
ATOM     10  H   UNL     1       1.568   6.342  21.164  0.00  0.00    +0.000 HD
BRANCH   8  11
ATOM     11  C   UNL     1       1.057   8.849  20.638  0.00  0.00    +0.000 A 
ATOM     12  C   UNL     1       1.082   8.664  22.031  0.00  0.00    +0.000 A 
ATOM     13  C   UNL     1       0.333   9.474  22.879  0.00  0.00    +0.000 A 
ATOM     14  C   UNL     1      -0.463  10.481  22.342  0.00  0.00    +0.000 A 
ATOM     15  C   UNL     1      -0.502  10.693  20.955  0.00  0.00    +0.000 A 
ATOM     16  C   UNL     1       0.271   9.877  20.114  0.00  0.00    +0.000 A 
ATOM     17  F   UNL     1       0.238  10.099  18.791  0.00  0.00    +0.000 F 
BRANCH  15  18
ATOM     18  C   UNL     1      -1.366  11.767  20.362  0.00  0.00    +0.000 C 
ATOM     19  F   UNL     1      -2.214  11.298  19.402  0.00  0.00    +0.000 F 
ATOM     20  F   UNL     1      -2.157  12.377  21.284  0.00  0.00    +0.000 F 
ATOM     21  F   UNL     1      -0.646  12.753  19.761  0.00  0.00    +0.000 F 
ENDBRANCH  15  18
ENDBRANCH   8  11
ENDBRANCH   5   7
BRANCH   1  23
ATOM     22  C   UNL     1       5.229   6.810  16.253  0.00  0.00    +0.000 C 
ATOM     23  C   UNL     1       5.636   5.525  16.987  0.00  0.00    +0.000 C 
BRANCH  23  24
ATOM     24  S   UNL     1       5.689   4.106  15.807  0.00  0.00    +0.000 S 
BRANCH  24  25
ATOM     25  C   UNL     1       6.758   4.658  14.579  0.00  0.00    +0.000 A 
ATOM     26  N   UNL     1       7.770   5.483  14.699  0.00  0.00    +0.000 NA
ATOM     27  N   UNL     1       8.290   5.683  13.437  0.00  0.00    +0.000 NA
ATOM     28  C   UNL     1       7.587   4.961  12.595  0.00  0.00    +0.000 A 
ATOM     29  N   UNL     1       6.623   4.280  13.276  0.00  0.00    +0.000 N 
ATOM     30  C   UNL     1       5.655   3.377  12.715  0.00  0.00    +0.000 C 
ENDBRANCH  24  25
ENDBRANCH  23  24
ENDBRANCH   1  23
TORSDOF 6
ENDMDL
MODEL 6
REMARK VINA RESULT:      -7.9      2.450      3.609
REMARK  Name = 
REMARK  8 active torsions:
REMARK  status: ('A' for Active; 'I' for Inactive)
REMARK    1  A    between atoms: C_1  and  C_2
REMARK    2  A    between atoms: C_2  and  S_3
REMARK    3  A    between atoms: C_2  and  C_10
REMARK    4  A    between atoms: S_3  and  C_4
REMARK    5  A    between atoms: N_8  and  C_9
REMARK    6  A    between atoms: C_14  and  N_15
REMARK    7  A    between atoms: C_16  and  C_18
REMARK    8  A    between atoms: C_22  and  C_23
REMARK                            x       y       z     vdW  Elec       q    Type
REMARK                         _______ _______ _______ _____ _____    ______ ____
ROOT
ATOM      1  C   UNL     1      -0.600  11.065  20.558  0.00  0.00    +0.000 A 
ATOM      2  C   UNL     1      -0.896  11.307  21.912  0.00  0.00    +0.000 A 
ATOM      3  C   UNL     1      -0.483  10.420  22.901  0.00  0.00    +0.000 A 
ATOM      4  C   UNL     1       0.193   9.253  22.551  0.00  0.00    +0.000 A 
ATOM      5  C   UNL     1       0.450   8.947  21.214  0.00  0.00    +0.000 A 
ATOM      6  C   UNL     1       0.065   9.865  20.228  0.00  0.00    +0.000 A 
ENDROOT
BRANCH   5   7
ATOM      7  N   UNL     1       1.125   7.769  20.805  0.00  0.00    +0.000 N 
ATOM      8  C   UNL     1       1.913   7.651  19.673  0.00  0.00    +0.000 C 
ATOM      9  O   UNL     1       2.239   8.591  18.946  0.00  0.00    +0.000 OA
ATOM     10  H   UNL     1       1.062   6.969  21.424  0.00  0.00    +0.000 HD
BRANCH   8  11
ATOM     11  C   UNL     1       2.423   6.303  19.297  0.00  0.00    +0.000 A 
ATOM     12  C   UNL     1       3.482   6.258  18.374  0.00  0.00    +0.000 A 
ATOM     13  C   UNL     1       3.982   5.045  17.910  0.00  0.00    +0.000 A 
ATOM     14  C   UNL     1       3.422   3.852  18.358  0.00  0.00    +0.000 A 
ATOM     15  C   UNL     1       2.367   3.868  19.285  0.00  0.00    +0.000 A 
ATOM     16  C   UNL     1       1.884   5.098  19.755  0.00  0.00    +0.000 A 
ATOM     17  F   UNL     1       0.886   5.100  20.653  0.00  0.00    +0.000 F 
BRANCH  15  18
ATOM     18  C   UNL     1       1.745   2.590  19.767  0.00  0.00    +0.000 C 
ATOM     19  F   UNL     1       1.898   2.397  21.109  0.00  0.00    +0.000 F 
ATOM     20  F   UNL     1       0.406   2.535  19.539  0.00  0.00    +0.000 F 
ATOM     21  F   UNL     1       2.281   1.487  19.178  0.00  0.00    +0.000 F 
ENDBRANCH  15  18
ENDBRANCH   8  11
ENDBRANCH   5   7
BRANCH   1  23
ATOM     22  C   UNL     1      -0.522  13.559  19.940  0.00  0.00    +0.000 C 
ATOM     23  C   UNL     1      -0.947  12.143  19.526  0.00  0.00    +0.000 C 
BRANCH  23  24
ATOM     24  S   UNL     1      -2.772  12.078  19.257  0.00  0.00    +0.000 S 
BRANCH  24  25
ATOM     25  C   UNL     1      -2.913  11.328  17.717  0.00  0.00    +0.000 A 
ATOM     26  N   UNL     1      -1.992  10.679  17.045  0.00  0.00    +0.000 NA
ATOM     27  N   UNL     1      -2.545  10.315  15.835  0.00  0.00    +0.000 NA
ATOM     28  C   UNL     1      -3.788  10.739  15.818  0.00  0.00    +0.000 A 
ATOM     29  N   UNL     1      -4.070  11.366  16.994  0.00  0.00    +0.000 N 
ATOM     30  C   UNL     1      -5.324  11.961  17.368  0.00  0.00    +0.000 C 
ENDBRANCH  24  25
ENDBRANCH  23  24
ENDBRANCH   1  23
TORSDOF 6
ENDMDL
MODEL 7
REMARK VINA RESULT:      -7.8      3.146      4.096
REMARK  Name = 
REMARK  8 active torsions:
REMARK  status: ('A' for Active; 'I' for Inactive)
REMARK    1  A    between atoms: C_1  and  C_2
REMARK    2  A    between atoms: C_2  and  S_3
REMARK    3  A    between atoms: C_2  and  C_10
REMARK    4  A    between atoms: S_3  and  C_4
REMARK    5  A    between atoms: N_8  and  C_9
REMARK    6  A    between atoms: C_14  and  N_15
REMARK    7  A    between atoms: C_16  and  C_18
REMARK    8  A    between atoms: C_22  and  C_23
REMARK                            x       y       z     vdW  Elec       q    Type
REMARK                         _______ _______ _______ _____ _____    ______ ____
ROOT
ATOM      1  C   UNL     1       0.116  10.538  19.934  0.00  0.00    +0.000 A 
ATOM      2  C   UNL     1      -0.329  10.430  21.264  0.00  0.00    +0.000 A 
ATOM      3  C   UNL     1       0.115   9.396  22.082  0.00  0.00    +0.000 A 
ATOM      4  C   UNL     1       0.976   8.426  21.573  0.00  0.00    +0.000 A 
ATOM      5  C   UNL     1       1.390   8.464  20.241  0.00  0.00    +0.000 A 
ATOM      6  C   UNL     1       0.969   9.530  19.435  0.00  0.00    +0.000 A 
ENDROOT
BRANCH   5   7
ATOM      7  N   UNL     1       2.256   7.497  19.671  0.00  0.00    +0.000 N 
ATOM      8  C   UNL     1       2.622   7.438  18.337  0.00  0.00    +0.000 C 
ATOM      9  O   UNL     1       2.350   8.298  17.498  0.00  0.00    +0.000 OA
ATOM     10  H   UNL     1       2.678   6.831  20.308  0.00  0.00    +0.000 HD
BRANCH   8  11
ATOM     11  C   UNL     1       3.413   6.266  17.866  0.00  0.00    +0.000 A 
ATOM     12  C   UNL     1       2.742   5.032  17.800  0.00  0.00    +0.000 A 
ATOM     13  C   UNL     1       3.411   3.867  17.438  0.00  0.00    +0.000 A 
ATOM     14  C   UNL     1       4.770   3.917  17.142  0.00  0.00    +0.000 A 
ATOM     15  C   UNL     1       5.463   5.138  17.194  0.00  0.00    +0.000 A 
ATOM     16  C   UNL     1       4.771   6.306  17.547  0.00  0.00    +0.000 A 
ATOM     17  F   UNL     1       5.441   7.469  17.577  0.00  0.00    +0.000 F 
BRANCH  15  18
ATOM     18  C   UNL     1       6.931   5.204  16.890  0.00  0.00    +0.000 C 
ATOM     19  F   UNL     1       7.668   5.688  17.932  0.00  0.00    +0.000 F 
ATOM     20  F   UNL     1       7.466   3.988  16.597  0.00  0.00    +0.000 F 
ATOM     21  F   UNL     1       7.217   6.014  15.835  0.00  0.00    +0.000 F 
ENDBRANCH  15  18
ENDBRANCH   8  11
ENDBRANCH   5   7
BRANCH   1  23
ATOM     22  C   UNL     1       0.545  13.025  19.444  0.00  0.00    +0.000 C 
ATOM     23  C   UNL     1      -0.285  11.775  19.123  0.00  0.00    +0.000 C 
BRANCH  23  24
ATOM     24  S   UNL     1      -2.072  12.093  19.458  0.00  0.00    +0.000 S 
BRANCH  24  25
ATOM     25  C   UNL     1      -2.837  11.608  17.997  0.00  0.00    +0.000 A 
ATOM     26  N   UNL     1      -2.272  11.214  16.881  0.00  0.00    +0.000 NA
ATOM     27  N   UNL     1      -3.280  10.994  15.965  0.00  0.00    +0.000 NA
ATOM     28  C   UNL     1      -4.423  11.245  16.559  0.00  0.00    +0.000 A 
ATOM     29  N   UNL     1      -4.193  11.616  17.850  0.00  0.00    +0.000 N 
ATOM     30  C   UNL     1      -5.184  11.966  18.830  0.00  0.00    +0.000 C 
ENDBRANCH  24  25
ENDBRANCH  23  24
ENDBRANCH   1  23
TORSDOF 6
ENDMDL
MODEL 8
REMARK VINA RESULT:      -7.8      2.134      2.706
REMARK  Name = 
REMARK  8 active torsions:
REMARK  status: ('A' for Active; 'I' for Inactive)
REMARK    1  A    between atoms: C_1  and  C_2
REMARK    2  A    between atoms: C_2  and  S_3
REMARK    3  A    between atoms: C_2  and  C_10
REMARK    4  A    between atoms: S_3  and  C_4
REMARK    5  A    between atoms: N_8  and  C_9
REMARK    6  A    between atoms: C_14  and  N_15
REMARK    7  A    between atoms: C_16  and  C_18
REMARK    8  A    between atoms: C_22  and  C_23
REMARK                            x       y       z     vdW  Elec       q    Type
REMARK                         _______ _______ _______ _____ _____    ______ ____
ROOT
ATOM      1  C   UNL     1       0.136  11.245  19.649  0.00  0.00    +0.000 A 
ATOM      2  C   UNL     1       0.898  12.375  19.300  0.00  0.00    +0.000 A 
ATOM      3  C   UNL     1       1.987  12.262  18.442  0.00  0.00    +0.000 A 
ATOM      4  C   UNL     1       2.362  11.013  17.952  0.00  0.00    +0.000 A 
ATOM      5  C   UNL     1       1.668   9.860  18.325  0.00  0.00    +0.000 A 
ATOM      6  C   UNL     1       0.550   9.988  19.159  0.00  0.00    +0.000 A 
ENDROOT
BRANCH   5   7
ATOM      7  N   UNL     1       2.014   8.565  17.864  0.00  0.00    +0.000 N 
ATOM      8  C   UNL     1       2.378   7.500  18.671  0.00  0.00    +0.000 C 
ATOM      9  O   UNL     1       2.318   7.501  19.901  0.00  0.00    +0.000 OA
ATOM     10  H   UNL     1       1.935   8.399  16.867  0.00  0.00    +0.000 HD
BRANCH   8  11
ATOM     11  C   UNL     1       2.866   6.250  18.022  0.00  0.00    +0.000 A 
ATOM     12  C   UNL     1       2.035   5.119  18.114  0.00  0.00    +0.000 A 
ATOM     13  C   UNL     1       2.434   3.889  17.600  0.00  0.00    +0.000 A 
ATOM     14  C   UNL     1       3.678   3.768  16.990  0.00  0.00    +0.000 A 
ATOM     15  C   UNL     1       4.525   4.883  16.878  0.00  0.00    +0.000 A 
ATOM     16  C   UNL     1       4.104   6.119  17.389  0.00  0.00    +0.000 A 
ATOM     17  F   UNL     1       4.916   7.181  17.262  0.00  0.00    +0.000 F 
BRANCH  15  18
ATOM     18  C   UNL     1       5.876   4.764  16.235  0.00  0.00    +0.000 C 
ATOM     19  F   UNL     1       6.152   3.497  15.807  0.00  0.00    +0.000 F 
ATOM     20  F   UNL     1       6.011   5.558  15.139  0.00  0.00    +0.000 F 
ATOM     21  F   UNL     1       6.893   5.092  17.076  0.00  0.00    +0.000 F 
ENDBRANCH  15  18
ENDBRANCH   8  11
ENDBRANCH   5   7
BRANCH   1  23
ATOM     22  C   UNL     1      -2.269  12.151  19.715  0.00  0.00    +0.000 C 
ATOM     23  C   UNL     1      -1.138  11.446  20.476  0.00  0.00    +0.000 C 
BRANCH  23  24
ATOM     24  S   UNL     1      -0.672  12.420  21.973  0.00  0.00    +0.000 S 
BRANCH  24  25
ATOM     25  C   UNL     1      -2.159  12.569  22.822  0.00  0.00    +0.000 A 
ATOM     26  N   UNL     1      -2.809  11.641  23.483  0.00  0.00    +0.000 NA
ATOM     27  N   UNL     1      -3.982  12.207  23.938  0.00  0.00    +0.000 NA
ATOM     28  C   UNL     1      -3.999  13.462  23.552  0.00  0.00    +0.000 A 
ATOM     29  N   UNL     1      -2.857  13.740  22.862  0.00  0.00    +0.000 N 
ATOM     30  C   UNL     1      -2.494  15.004  22.283  0.00  0.00    +0.000 C 
ENDBRANCH  24  25
ENDBRANCH  23  24
ENDBRANCH   1  23
TORSDOF 6
ENDMDL
MODEL 9
REMARK VINA RESULT:      -7.7      7.468      9.652
REMARK  Name = 
REMARK  8 active torsions:
REMARK  status: ('A' for Active; 'I' for Inactive)
REMARK    1  A    between atoms: C_1  and  C_2
REMARK    2  A    between atoms: C_2  and  S_3
REMARK    3  A    between atoms: C_2  and  C_10
REMARK    4  A    between atoms: S_3  and  C_4
REMARK    5  A    between atoms: N_8  and  C_9
REMARK    6  A    between atoms: C_14  and  N_15
REMARK    7  A    between atoms: C_16  and  C_18
REMARK    8  A    between atoms: C_22  and  C_23
REMARK                            x       y       z     vdW  Elec       q    Type
REMARK                         _______ _______ _______ _____ _____    ______ ____
ROOT
ATOM      1  C   UNL     1       4.870   5.309  17.346  0.00  0.00    +0.000 A 
ATOM      2  C   UNL     1       5.583   4.344  16.611  0.00  0.00    +0.000 A 
ATOM      3  C   UNL     1       6.848   4.625  16.106  0.00  0.00    +0.000 A 
ATOM      4  C   UNL     1       7.405   5.889  16.287  0.00  0.00    +0.000 A 
ATOM      5  C   UNL     1       6.704   6.892  16.958  0.00  0.00    +0.000 A 
ATOM      6  C   UNL     1       5.446   6.588  17.497  0.00  0.00    +0.000 A 
ENDROOT
BRANCH   5   7
ATOM      7  N   UNL     1       7.221   8.196  17.161  0.00  0.00    +0.000 N 
ATOM      8  C   UNL     1       8.138   8.550  18.136  0.00  0.00    +0.000 C 
ATOM      9  O   UNL     1       8.726   7.751  18.867  0.00  0.00    +0.000 OA
ATOM     10  H   UNL     1       6.929   8.910  16.502  0.00  0.00    +0.000 HD
BRANCH   8  11
ATOM     11  C   UNL     1       8.461   9.993  18.320  0.00  0.00    +0.000 A 
ATOM     12  C   UNL     1       7.931  10.889  17.374  0.00  0.00    +0.000 A 
ATOM     13  C   UNL     1       8.231  12.247  17.422  0.00  0.00    +0.000 A 
ATOM     14  C   UNL     1       9.075  12.731  18.416  0.00  0.00    +0.000 A 
ATOM     15  C   UNL     1       9.612  11.860  19.378  0.00  0.00    +0.000 A 
ATOM     16  C   UNL     1       9.289  10.496  19.325  0.00  0.00    +0.000 A 
ATOM     17  F   UNL     1       9.797   9.676  20.259  0.00  0.00    +0.000 F 
BRANCH  15  18
ATOM     18  C   UNL     1      10.534  12.367  20.447  0.00  0.00    +0.000 C 
ATOM     19  F   UNL     1      10.849  13.686  20.297  0.00  0.00    +0.000 F 
ATOM     20  F   UNL     1      10.007  12.256  21.696  0.00  0.00    +0.000 F 
ATOM     21  F   UNL     1      11.725  11.710  20.473  0.00  0.00    +0.000 F 
ENDBRANCH  15  18
ENDBRANCH   8  11
ENDBRANCH   5   7
BRANCH   1  23
ATOM     22  C   UNL     1       3.275   5.605  19.341  0.00  0.00    +0.000 C 
ATOM     23  C   UNL     1       3.548   4.901  18.005  0.00  0.00    +0.000 C 
BRANCH  23  24
ATOM     24  S   UNL     1       3.598   3.071  18.246  0.00  0.00    +0.000 S 
BRANCH  24  25
ATOM     25  C   UNL     1       2.934   2.866  19.818  0.00  0.00    +0.000 A 
ATOM     26  N   UNL     1       3.573   2.741  20.956  0.00  0.00    +0.000 NA
ATOM     27  N   UNL     1       2.627   2.531  21.938  0.00  0.00    +0.000 NA
ATOM     28  C   UNL     1       1.445   2.551  21.368  0.00  0.00    +0.000 A 
ATOM     29  N   UNL     1       1.589   2.780  20.032  0.00  0.00    +0.000 N 
ATOM     30  C   UNL     1       0.533   2.881  19.062  0.00  0.00    +0.000 C 
ENDBRANCH  24  25
ENDBRANCH  23  24
ENDBRANCH   1  23
TORSDOF 6
ENDMDL
