MODEL 1
REMARK VINA RESULT:      -7.6      0.000      0.000
REMARK  Name = 
REMARK  10 active torsions:
REMARK  status: ('A' for Active; 'I' for Inactive)
REMARK    1  A    between atoms: C_1  and  C_2
REMARK    2  A    between atoms: C_2  and  O_3
REMARK    3  A    between atoms: O_3  and  C_4
REMARK    4  A    between atoms: C_8  and  C_9
REMARK    5  A    between atoms: N_11  and  C_12
REMARK    6  A    between atoms: C_16  and  C_17
REMARK    7  A    between atoms: C_17  and  C_18
REMARK    8  A    between atoms: C_17  and  S_19
REMARK    9  A    between atoms: S_19  and  C_20
REMARK   10  A    between atoms: N_24  and  C_25
REMARK                            x       y       z     vdW  Elec       q    Type
REMARK                         _______ _______ _______ _____ _____    ______ ____
ROOT
ATOM      1  C   UNL     1       1.464   8.446  20.402  0.00  0.00    +0.000 A 
ATOM      2  C   UNL     1       1.025   8.398  21.726  0.00  0.00    +0.000 A 
ATOM      3  C   UNL     1       0.178   9.378  22.243  0.00  0.00    +0.000 A 
ATOM      4  C   UNL     1      -0.261  10.422  21.434  0.00  0.00    +0.000 A 
ATOM      5  C   UNL     1       0.142  10.501  20.092  0.00  0.00    +0.000 A 
ATOM      6  C   UNL     1       1.028   9.514  19.594  0.00  0.00    +0.000 A 
ENDROOT
BRANCH   1   9
ATOM      7  C   UNL     1       2.116   6.056  19.977  0.00  0.00    +0.000 C 
ATOM      8  O   UNL     1       1.316   5.490  20.716  0.00  0.00    +0.000 OA
ATOM      9  N   UNL     1       2.278   7.433  19.834  0.00  0.00    +0.000 N 
ATOM     10  H   UNL     1       3.043   7.718  19.228  0.00  0.00    +0.000 HD
BRANCH   7  15
ATOM     11  C   UNL     1       5.130   4.431  18.674  0.00  0.00    +0.000 A 
ATOM     12  C   UNL     1       4.688   3.688  17.592  0.00  0.00    +0.000 A 
ATOM     13  C   UNL     1       3.341   3.746  17.256  0.00  0.00    +0.000 A 
ATOM     14  C   UNL     1       2.492   4.525  18.036  0.00  0.00    +0.000 A 
ATOM     15  C   UNL     1       3.021   5.211  19.130  0.00  0.00    +0.000 A 
ATOM     16  N   UNL     1       4.334   5.180  19.470  0.00  0.00    +0.000 NA
BRANCH  11  17
ATOM     17  O   UNL     1       6.479   4.348  18.964  0.00  0.00    +0.000 OA
BRANCH  17  19
ATOM     18  C   UNL     1       7.559   6.291  18.089  0.00  0.00    +0.000 C 
ATOM     19  C   UNL     1       7.030   5.613  19.340  0.00  0.00    +0.000 C 
ENDBRANCH  17  19
ENDBRANCH  11  17
ENDBRANCH   7  15
ENDBRANCH   1   9
BRANCH   5  20
ATOM     20  C   UNL     1      -0.433  11.572  19.169  0.00  0.00    +0.000 C 
ATOM     21  C   UNL     1       0.415  12.852  19.124  0.00  0.00    +0.000 C 
BRANCH  20  22
ATOM     22  S   UNL     1      -2.112  12.105  19.693  0.00  0.00    +0.000 S 
BRANCH  22  23
ATOM     23  C   UNL     1      -3.049  11.706  18.305  0.00  0.00    +0.000 A 
ATOM     24  N   UNL     1      -2.598  11.342  17.127  0.00  0.00    +0.000 NA
ATOM     25  N   UNL     1      -3.691  11.117  16.317  0.00  0.00    +0.000 NA
ATOM     26  C   UNL     1      -4.770  11.348  17.033  0.00  0.00    +0.000 A 
ATOM     27  N   UNL     1      -4.413  11.736  18.289  0.00  0.00    +0.000 N 
ATOM     28  C   UNL     1      -5.310  12.082  19.357  0.00  0.00    +0.000 C 
ENDBRANCH  22  23
ENDBRANCH  20  22
ENDBRANCH   5  20
TORSDOF 7
ENDMDL
MODEL 2
REMARK VINA RESULT:      -7.5      2.288      2.967
REMARK  Name = 
REMARK  10 active torsions:
REMARK  status: ('A' for Active; 'I' for Inactive)
REMARK    1  A    between atoms: C_1  and  C_2
REMARK    2  A    between atoms: C_2  and  O_3
REMARK    3  A    between atoms: O_3  and  C_4
REMARK    4  A    between atoms: C_8  and  C_9
REMARK    5  A    between atoms: N_11  and  C_12
REMARK    6  A    between atoms: C_16  and  C_17
REMARK    7  A    between atoms: C_17  and  C_18
REMARK    8  A    between atoms: C_17  and  S_19
REMARK    9  A    between atoms: S_19  and  C_20
REMARK   10  A    between atoms: N_24  and  C_25
REMARK                            x       y       z     vdW  Elec       q    Type
REMARK                         _______ _______ _______ _____ _____    ______ ____
ROOT
ATOM      1  C   UNL     1       1.463   8.436  20.512  0.00  0.00    +0.000 A 
ATOM      2  C   UNL     1       1.254   8.495  21.891  0.00  0.00    +0.000 A 
ATOM      3  C   UNL     1       0.352   9.400  22.449  0.00  0.00    +0.000 A 
ATOM      4  C   UNL     1      -0.374  10.259  21.630  0.00  0.00    +0.000 A 
ATOM      5  C   UNL     1      -0.209  10.224  20.236  0.00  0.00    +0.000 A 
ATOM      6  C   UNL     1       0.735   9.319  19.691  0.00  0.00    +0.000 A 
ENDROOT
BRANCH   1   9
ATOM      7  C   UNL     1       2.212   6.100  19.971  0.00  0.00    +0.000 C 
ATOM      8  O   UNL     1       1.410   5.463  20.647  0.00  0.00    +0.000 OA
ATOM      9  N   UNL     1       2.329   7.487  19.913  0.00  0.00    +0.000 N 
ATOM     10  H   UNL     1       3.103   7.833  19.352  0.00  0.00    +0.000 HD
BRANCH   7  15
ATOM     11  C   UNL     1       5.319   4.638  18.690  0.00  0.00    +0.000 A 
ATOM     12  C   UNL     1       4.941   3.966  17.539  0.00  0.00    +0.000 A 
ATOM     13  C   UNL     1       3.608   4.018  17.149  0.00  0.00    +0.000 A 
ATOM     14  C   UNL     1       2.708   4.720  17.944  0.00  0.00    +0.000 A 
ATOM     15  C   UNL     1       3.173   5.337  19.106  0.00  0.00    +0.000 A 
ATOM     16  N   UNL     1       4.471   5.311  19.501  0.00  0.00    +0.000 NA
BRANCH  11  17
ATOM     17  O   UNL     1       6.655   4.564  19.032  0.00  0.00    +0.000 OA
BRANCH  17  19
ATOM     18  C   UNL     1       7.541   6.540  18.025  0.00  0.00    +0.000 C 
ATOM     19  C   UNL     1       7.509   5.024  17.981  0.00  0.00    +0.000 C 
ENDBRANCH  17  19
ENDBRANCH  11  17
ENDBRANCH   7  15
ENDBRANCH   1   9
BRANCH   5  20
ATOM     20  C   UNL     1      -1.091  11.076  19.328  0.00  0.00    +0.000 C 
ATOM     21  C   UNL     1      -1.550  10.335  18.062  0.00  0.00    +0.000 C 
BRANCH  20  22
ATOM     22  S   UNL     1      -0.223  12.584  18.736  0.00  0.00    +0.000 S 
BRANCH  22  23
ATOM     23  C   UNL     1       0.210  13.337  20.222  0.00  0.00    +0.000 A 
ATOM     24  N   UNL     1       1.404  13.378  20.767  0.00  0.00    +0.000 NA
ATOM     25  N   UNL     1       1.296  14.083  21.947  0.00  0.00    +0.000 NA
ATOM     26  C   UNL     1       0.040  14.451  22.077  0.00  0.00    +0.000 A 
ATOM     27  N   UNL     1      -0.685  13.990  21.019  0.00  0.00    +0.000 N 
ATOM     28  C   UNL     1      -2.093  14.181  20.807  0.00  0.00    +0.000 C 
ENDBRANCH  22  23
ENDBRANCH  20  22
ENDBRANCH   5  20
TORSDOF 7
ENDMDL
MODEL 3
REMARK VINA RESULT:      -7.5      3.625      9.220
REMARK  Name = 
REMARK  10 active torsions:
REMARK  status: ('A' for Active; 'I' for Inactive)
REMARK    1  A    between atoms: C_1  and  C_2
REMARK    2  A    between atoms: C_2  and  O_3
REMARK    3  A    between atoms: O_3  and  C_4
REMARK    4  A    between atoms: C_8  and  C_9
REMARK    5  A    between atoms: N_11  and  C_12
REMARK    6  A    between atoms: C_16  and  C_17
REMARK    7  A    between atoms: C_17  and  C_18
REMARK    8  A    between atoms: C_17  and  S_19
REMARK    9  A    between atoms: S_19  and  C_20
REMARK   10  A    between atoms: N_24  and  C_25
REMARK                            x       y       z     vdW  Elec       q    Type
REMARK                         _______ _______ _______ _____ _____    ______ ____
ROOT
ATOM      1  C   UNL     1       2.637   5.879  18.362  0.00  0.00    +0.000 A 
ATOM      2  C   UNL     1       2.019   4.636  18.509  0.00  0.00    +0.000 A 
ATOM      3  C   UNL     1       2.481   3.512  17.825  0.00  0.00    +0.000 A 
ATOM      4  C   UNL     1       3.588   3.609  16.987  0.00  0.00    +0.000 A 
ATOM      5  C   UNL     1       4.251   4.835  16.821  0.00  0.00    +0.000 A 
ATOM      6  C   UNL     1       3.747   5.971  17.501  0.00  0.00    +0.000 A 
ENDROOT
BRANCH   1   9
ATOM      7  C   UNL     1       1.975   8.293  18.572  0.00  0.00    +0.000 C 
ATOM      8  O   UNL     1       2.184   8.666  17.422  0.00  0.00    +0.000 OA
ATOM      9  N   UNL     1       2.225   7.024  19.089  0.00  0.00    +0.000 N 
ATOM     10  H   UNL     1       2.056   6.922  20.087  0.00  0.00    +0.000 HD
BRANCH   7  15
ATOM     11  C   UNL     1       0.706  11.420  20.001  0.00  0.00    +0.000 A 
ATOM     12  C   UNL     1       0.336  11.089  21.295  0.00  0.00    +0.000 A 
ATOM     13  C   UNL     1       0.541   9.785  21.728  0.00  0.00    +0.000 A 
ATOM     14  C   UNL     1       1.080   8.863  20.838  0.00  0.00    +0.000 A 
ATOM     15  C   UNL     1       1.389   9.278  19.541  0.00  0.00    +0.000 A 
ATOM     16  N   UNL     1       1.211  10.548  19.099  0.00  0.00    +0.000 NA
BRANCH  11  17
ATOM     17  O   UNL     1       0.491  12.730  19.619  0.00  0.00    +0.000 OA
BRANCH  17  19
ATOM     18  C   UNL     1      -1.465  12.338  18.305  0.00  0.00    +0.000 C 
ATOM     19  C   UNL     1      -0.901  13.044  19.524  0.00  0.00    +0.000 C 
ENDBRANCH  17  19
ENDBRANCH  11  17
ENDBRANCH   7  15
ENDBRANCH   1   9
BRANCH   5  20
ATOM     20  C   UNL     1       5.536   4.919  16.003  0.00  0.00    +0.000 C 
ATOM     21  C   UNL     1       5.591   3.898  14.856  0.00  0.00    +0.000 C 
BRANCH  20  22
ATOM     22  S   UNL     1       7.029   4.601  17.026  0.00  0.00    +0.000 S 
BRANCH  22  23
ATOM     23  C   UNL     1       7.498   6.200  17.458  0.00  0.00    +0.000 A 
ATOM     24  N   UNL     1       7.480   7.263  16.687  0.00  0.00    +0.000 NA
ATOM     25  N   UNL     1       7.933   8.326  17.438  0.00  0.00    +0.000 NA
ATOM     26  C   UNL     1       8.207   7.874  18.642  0.00  0.00    +0.000 A 
ATOM     27  N   UNL     1       7.962   6.535  18.697  0.00  0.00    +0.000 N 
ATOM     28  C   UNL     1       8.146   5.684  19.840  0.00  0.00    +0.000 C 
ENDBRANCH  22  23
ENDBRANCH  20  22
ENDBRANCH   5  20
TORSDOF 7
ENDMDL
MODEL 4
REMARK VINA RESULT:      -7.5      3.966      9.303
REMARK  Name = 
REMARK  10 active torsions:
REMARK  status: ('A' for Active; 'I' for Inactive)
REMARK    1  A    between atoms: C_1  and  C_2
REMARK    2  A    between atoms: C_2  and  O_3
REMARK    3  A    between atoms: O_3  and  C_4
REMARK    4  A    between atoms: C_8  and  C_9
REMARK    5  A    between atoms: N_11  and  C_12
REMARK    6  A    between atoms: C_16  and  C_17
REMARK    7  A    between atoms: C_17  and  C_18
REMARK    8  A    between atoms: C_17  and  S_19
REMARK    9  A    between atoms: S_19  and  C_20
REMARK   10  A    between atoms: N_24  and  C_25
REMARK                            x       y       z     vdW  Elec       q    Type
REMARK                         _______ _______ _______ _____ _____    ______ ____
ROOT
ATOM      1  C   UNL     1       2.578   5.823  19.895  0.00  0.00    +0.000 A 
ATOM      2  C   UNL     1       2.381   4.498  20.286  0.00  0.00    +0.000 A 
ATOM      3  C   UNL     1       3.031   3.448  19.639  0.00  0.00    +0.000 A 
ATOM      4  C   UNL     1       3.908   3.708  18.591  0.00  0.00    +0.000 A 
ATOM      5  C   UNL     1       4.150   5.026  18.174  0.00  0.00    +0.000 A 
ATOM      6  C   UNL     1       3.456   6.076  18.824  0.00  0.00    +0.000 A 
ENDROOT
BRANCH   1   9
ATOM      7  C   UNL     1       1.678   8.165  20.036  0.00  0.00    +0.000 C 
ATOM      8  O   UNL     1       1.993   8.575  18.923  0.00  0.00    +0.000 OA
ATOM      9  N   UNL     1       1.977   6.914  20.572  0.00  0.00    +0.000 N 
ATOM     10  H   UNL     1       1.696   6.780  21.540  0.00  0.00    +0.000 HD
BRANCH   7  15
ATOM     11  C   UNL     1      -0.216  11.063  21.235  0.00  0.00    +0.000 A 
ATOM     12  C   UNL     1      -0.537  10.754  22.547  0.00  0.00    +0.000 A 
ATOM     13  C   UNL     1      -0.085   9.549  23.072  0.00  0.00    +0.000 A 
ATOM     14  C   UNL     1       0.644   8.696  22.251  0.00  0.00    +0.000 A 
ATOM     15  C   UNL     1       0.889   9.076  20.931  0.00  0.00    +0.000 A 
ATOM     16  N   UNL     1       0.470  10.251  20.399  0.00  0.00    +0.000 NA
BRANCH  11  17
ATOM     17  O   UNL     1      -0.681  12.275  20.761  0.00  0.00    +0.000 OA
BRANCH  17  19
ATOM     18  C   UNL     1      -0.664  13.263  18.587  0.00  0.00    +0.000 C 
ATOM     19  C   UNL     1       0.185  12.835  19.769  0.00  0.00    +0.000 C 
ENDBRANCH  17  19
ENDBRANCH  11  17
ENDBRANCH   7  15
ENDBRANCH   1   9
BRANCH   5  20
ATOM     20  C   UNL     1       5.202   5.324  17.110  0.00  0.00    +0.000 C 
ATOM     21  C   UNL     1       4.790   6.450  16.149  0.00  0.00    +0.000 C 
BRANCH  20  22
ATOM     22  S   UNL     1       5.546   3.864  16.049  0.00  0.00    +0.000 S 
BRANCH  22  23
ATOM     23  C   UNL     1       6.634   4.527  14.891  0.00  0.00    +0.000 A 
ATOM     24  N   UNL     1       7.657   5.314  15.130  0.00  0.00    +0.000 NA
ATOM     25  N   UNL     1       8.250   5.601  13.919  0.00  0.00    +0.000 NA
ATOM     26  C   UNL     1       7.569   4.974  12.985  0.00  0.00    +0.000 A 
ATOM     27  N   UNL     1       6.531   4.296  13.550  0.00  0.00    +0.000 N 
ATOM     28  C   UNL     1       5.560   3.497  12.855  0.00  0.00    +0.000 C 
ENDBRANCH  22  23
ENDBRANCH  20  22
ENDBRANCH   5  20
TORSDOF 7
ENDMDL
MODEL 5
REMARK VINA RESULT:      -7.4      0.943      1.056
REMARK  Name = 
REMARK  10 active torsions:
REMARK  status: ('A' for Active; 'I' for Inactive)
REMARK    1  A    between atoms: C_1  and  C_2
REMARK    2  A    between atoms: C_2  and  O_3
REMARK    3  A    between atoms: O_3  and  C_4
REMARK    4  A    between atoms: C_8  and  C_9
REMARK    5  A    between atoms: N_11  and  C_12
REMARK    6  A    between atoms: C_16  and  C_17
REMARK    7  A    between atoms: C_17  and  C_18
REMARK    8  A    between atoms: C_17  and  S_19
REMARK    9  A    between atoms: S_19  and  C_20
REMARK   10  A    between atoms: N_24  and  C_25
REMARK                            x       y       z     vdW  Elec       q    Type
REMARK                         _______ _______ _______ _____ _____    ______ ____
ROOT
ATOM      1  C   UNL     1       1.411   8.715  19.983  0.00  0.00    +0.000 A 
ATOM      2  C   UNL     1       1.139   8.700  21.352  0.00  0.00    +0.000 A 
ATOM      3  C   UNL     1       0.356   9.689  21.945  0.00  0.00    +0.000 A 
ATOM      4  C   UNL     1      -0.184  10.712  21.172  0.00  0.00    +0.000 A 
ATOM      5  C   UNL     1       0.050  10.759  19.789  0.00  0.00    +0.000 A 
ATOM      6  C   UNL     1       0.873   9.762  19.210  0.00  0.00    +0.000 A 
ENDROOT
BRANCH   1   9
ATOM      7  C   UNL     1       2.186   6.343  19.694  0.00  0.00    +0.000 C 
ATOM      8  O   UNL     1       1.674   5.835  20.687  0.00  0.00    +0.000 OA
ATOM      9  N   UNL     1       2.154   7.691  19.343  0.00  0.00    +0.000 N 
ATOM     10  H   UNL     1       2.700   7.937  18.522  0.00  0.00    +0.000 HD
BRANCH   7  15
ATOM     11  C   UNL     1       4.872   4.919  17.648  0.00  0.00    +0.000 A 
ATOM     12  C   UNL     1       4.287   3.840  17.004  0.00  0.00    +0.000 A 
ATOM     13  C   UNL     1       2.940   3.586  17.230  0.00  0.00    +0.000 A 
ATOM     14  C   UNL     1       2.245   4.406  18.112  0.00  0.00    +0.000 A 
ATOM     15  C   UNL     1       2.927   5.448  18.743  0.00  0.00    +0.000 A 
ATOM     16  N   UNL     1       4.237   5.724  18.529  0.00  0.00    +0.000 NA
BRANCH  11  17
ATOM     17  O   UNL     1       6.211   5.137  17.385  0.00  0.00    +0.000 OA
BRANCH  17  19
ATOM     18  C   UNL     1       7.590   7.033  17.837  0.00  0.00    +0.000 C 
ATOM     19  C   UNL     1       6.860   5.848  18.442  0.00  0.00    +0.000 C 
ENDBRANCH  17  19
ENDBRANCH  11  17
ENDBRANCH   7  15
ENDBRANCH   1   9
BRANCH   5  20
ATOM     20  C   UNL     1      -0.641  11.805  18.919  0.00  0.00    +0.000 C 
ATOM     21  C   UNL     1      -0.350  13.248  19.361  0.00  0.00    +0.000 C 
BRANCH  20  22
ATOM     22  S   UNL     1      -2.470  11.633  18.951  0.00  0.00    +0.000 S 
BRANCH  22  23
ATOM     23  C   UNL     1      -2.786  11.011  17.377  0.00  0.00    +0.000 A 
ATOM     24  N   UNL     1      -1.981  10.279  16.642  0.00  0.00    +0.000 NA
ATOM     25  N   UNL     1      -2.637  10.003  15.461  0.00  0.00    +0.000 NA
ATOM     26  C   UNL     1      -3.820  10.573  15.520  0.00  0.00    +0.000 A 
ATOM     27  N   UNL     1      -3.953  11.233  16.705  0.00  0.00    +0.000 N 
ATOM     28  C   UNL     1      -5.100  11.983  17.135  0.00  0.00    +0.000 C 
ENDBRANCH  22  23
ENDBRANCH  20  22
ENDBRANCH   5  20
TORSDOF 7
ENDMDL
MODEL 6
REMARK VINA RESULT:      -7.4      1.321      1.480
REMARK  Name = 
REMARK  10 active torsions:
REMARK  status: ('A' for Active; 'I' for Inactive)
REMARK    1  A    between atoms: C_1  and  C_2
REMARK    2  A    between atoms: C_2  and  O_3
REMARK    3  A    between atoms: O_3  and  C_4
REMARK    4  A    between atoms: C_8  and  C_9
REMARK    5  A    between atoms: N_11  and  C_12
REMARK    6  A    between atoms: C_16  and  C_17
REMARK    7  A    between atoms: C_17  and  C_18
REMARK    8  A    between atoms: C_17  and  S_19
REMARK    9  A    between atoms: S_19  and  C_20
REMARK   10  A    between atoms: N_24  and  C_25
REMARK                            x       y       z     vdW  Elec       q    Type
REMARK                         _______ _______ _______ _____ _____    ______ ____
ROOT
ATOM      1  C   UNL     1       0.820   8.755  21.085  0.00  0.00    +0.000 A 
ATOM      2  C   UNL     1       0.493   9.155  22.382  0.00  0.00    +0.000 A 
ATOM      3  C   UNL     1      -0.158  10.364  22.624  0.00  0.00    +0.000 A 
ATOM      4  C   UNL     1      -0.509  11.194  21.564  0.00  0.00    +0.000 A 
ATOM      5  C   UNL     1      -0.214  10.825  20.242  0.00  0.00    +0.000 A 
ATOM      6  C   UNL     1       0.475   9.608  20.020  0.00  0.00    +0.000 A 
ENDROOT
BRANCH   1   9
ATOM      7  C   UNL     1       2.222   7.194  19.702  0.00  0.00    +0.000 C 
ATOM      8  O   UNL     1       2.428   7.910  18.727  0.00  0.00    +0.000 OA
ATOM      9  N   UNL     1       1.429   7.506  20.806  0.00  0.00    +0.000 N 
ATOM     10  H   UNL     1       1.316   6.756  21.483  0.00  0.00    +0.000 HD
BRANCH   7  15
ATOM     11  C   UNL     1       4.716   4.535  19.336  0.00  0.00    +0.000 A 
ATOM     12  C   UNL     1       4.080   3.392  19.794  0.00  0.00    +0.000 A 
ATOM     13  C   UNL     1       2.761   3.494  20.216  0.00  0.00    +0.000 A 
ATOM     14  C   UNL     1       2.145   4.741  20.186  0.00  0.00    +0.000 A 
ATOM     15  C   UNL     1       2.876   5.844  19.742  0.00  0.00    +0.000 A 
ATOM     16  N   UNL     1       4.161   5.767  19.314  0.00  0.00    +0.000 NA
BRANCH  11  17
ATOM     17  O   UNL     1       6.025   4.382  18.920  0.00  0.00    +0.000 OA
BRANCH  17  19
ATOM     18  C   UNL     1       7.506   6.068  18.102  0.00  0.00    +0.000 C 
ATOM     19  C   UNL     1       6.855   5.470  19.336  0.00  0.00    +0.000 C 
ENDBRANCH  17  19
ENDBRANCH  11  17
ENDBRANCH   7  15
ENDBRANCH   1   9
BRANCH   5  20
ATOM     20  C   UNL     1      -0.707  11.671  19.071  0.00  0.00    +0.000 C 
ATOM     21  C   UNL     1      -0.253  13.137  19.150  0.00  0.00    +0.000 C 
BRANCH  20  22
ATOM     22  S   UNL     1      -2.541  11.722  18.978  0.00  0.00    +0.000 S 
BRANCH  22  23
ATOM     23  C   UNL     1      -2.824  11.083  17.405  0.00  0.00    +0.000 A 
ATOM     24  N   UNL     1      -1.999  10.355  16.689  0.00  0.00    +0.000 NA
ATOM     25  N   UNL     1      -2.632  10.061  15.500  0.00  0.00    +0.000 NA
ATOM     26  C   UNL     1      -3.823  10.617  15.535  0.00  0.00    +0.000 A 
ATOM     27  N   UNL     1      -3.983  11.285  16.712  0.00  0.00    +0.000 N 
ATOM     28  C   UNL     1      -5.146  12.024  17.118  0.00  0.00    +0.000 C 
ENDBRANCH  22  23
ENDBRANCH  20  22
ENDBRANCH   5  20
TORSDOF 7
ENDMDL
MODEL 7
REMARK VINA RESULT:      -7.4      1.031      1.038
REMARK  Name = 
REMARK  10 active torsions:
REMARK  status: ('A' for Active; 'I' for Inactive)
REMARK    1  A    between atoms: C_1  and  C_2
REMARK    2  A    between atoms: C_2  and  O_3
REMARK    3  A    between atoms: O_3  and  C_4
REMARK    4  A    between atoms: C_8  and  C_9
REMARK    5  A    between atoms: N_11  and  C_12
REMARK    6  A    between atoms: C_16  and  C_17
REMARK    7  A    between atoms: C_17  and  C_18
REMARK    8  A    between atoms: C_17  and  S_19
REMARK    9  A    between atoms: S_19  and  C_20
REMARK   10  A    between atoms: N_24  and  C_25
REMARK                            x       y       z     vdW  Elec       q    Type
REMARK                         _______ _______ _______ _____ _____    ______ ____
ROOT
ATOM      1  C   UNL     1       1.299   8.491  20.373  0.00  0.00    +0.000 A 
ATOM      2  C   UNL     1       1.126   8.664  21.748  0.00  0.00    +0.000 A 
ATOM      3  C   UNL     1       0.539   9.818  22.264  0.00  0.00    +0.000 A 
ATOM      4  C   UNL     1       0.097  10.822  21.407  0.00  0.00    +0.000 A 
ATOM      5  C   UNL     1       0.235  10.684  20.017  0.00  0.00    +0.000 A 
ATOM      6  C   UNL     1       0.863   9.518  19.514  0.00  0.00    +0.000 A 
ENDROOT
BRANCH   1   9
ATOM      7  C   UNL     1       2.620   7.202  18.668  0.00  0.00    +0.000 C 
ATOM      8  O   UNL     1       2.872   8.105  17.876  0.00  0.00    +0.000 OA
ATOM      9  N   UNL     1       1.839   7.304  19.818  0.00  0.00    +0.000 N 
ATOM     10  H   UNL     1       1.681   6.429  20.312  0.00  0.00    +0.000 HD
BRANCH   7  15
ATOM     11  C   UNL     1       4.996   4.420  18.472  0.00  0.00    +0.000 A 
ATOM     12  C   UNL     1       4.272   3.379  17.912  0.00  0.00    +0.000 A 
ATOM     13  C   UNL     1       2.950   3.611  17.556  0.00  0.00    +0.000 A 
ATOM     14  C   UNL     1       2.402   4.866  17.800  0.00  0.00    +0.000 A 
ATOM     15  C   UNL     1       3.198   5.843  18.402  0.00  0.00    +0.000 A 
ATOM     16  N   UNL     1       4.494   5.645  18.747  0.00  0.00    +0.000 NA
BRANCH  11  17
ATOM     17  O   UNL     1       6.309   4.144  18.802  0.00  0.00    +0.000 OA
BRANCH  17  19
ATOM     18  C   UNL     1       7.948   5.868  19.020  0.00  0.00    +0.000 C 
ATOM     19  C   UNL     1       7.233   4.940  18.056  0.00  0.00    +0.000 C 
ENDBRANCH  17  19
ENDBRANCH  11  17
ENDBRANCH   7  15
ENDBRANCH   1   9
BRANCH   5  20
ATOM     20  C   UNL     1      -0.358  11.723  19.070  0.00  0.00    +0.000 C 
ATOM     21  C   UNL     1       0.378  13.071  19.111  0.00  0.00    +0.000 C 
BRANCH  20  22
ATOM     22  S   UNL     1      -2.112  12.101  19.470  0.00  0.00    +0.000 S 
BRANCH  22  23
ATOM     23  C   UNL     1      -2.903  11.654  18.008  0.00  0.00    +0.000 A 
ATOM     24  N   UNL     1      -2.334  11.273  16.888  0.00  0.00    +0.000 NA
ATOM     25  N   UNL     1      -3.339  11.010  15.982  0.00  0.00    +0.000 NA
ATOM     26  C   UNL     1      -4.486  11.236  16.584  0.00  0.00    +0.000 A 
ATOM     27  N   UNL     1      -4.260  11.658  17.859  0.00  0.00    +0.000 N 
ATOM     28  C   UNL     1      -5.261  12.010  18.828  0.00  0.00    +0.000 C 
ENDBRANCH  22  23
ENDBRANCH  20  22
ENDBRANCH   5  20
TORSDOF 7
ENDMDL
MODEL 8
REMARK VINA RESULT:      -7.4      6.599      9.130
REMARK  Name = 
REMARK  10 active torsions:
REMARK  status: ('A' for Active; 'I' for Inactive)
REMARK    1  A    between atoms: C_1  and  C_2
REMARK    2  A    between atoms: C_2  and  O_3
REMARK    3  A    between atoms: O_3  and  C_4
REMARK    4  A    between atoms: C_8  and  C_9
REMARK    5  A    between atoms: N_11  and  C_12
REMARK    6  A    between atoms: C_16  and  C_17
REMARK    7  A    between atoms: C_17  and  C_18
REMARK    8  A    between atoms: C_17  and  S_19
REMARK    9  A    between atoms: S_19  and  C_20
REMARK   10  A    between atoms: N_24  and  C_25
REMARK                            x       y       z     vdW  Elec       q    Type
REMARK                         _______ _______ _______ _____ _____    ______ ____
ROOT
ATOM      1  C   UNL     1       6.537   6.665  16.881  0.00  0.00    +0.000 A 
ATOM      2  C   UNL     1       7.021   5.974  15.769  0.00  0.00    +0.000 A 
ATOM      3  C   UNL     1       6.461   4.761  15.370  0.00  0.00    +0.000 A 
ATOM      4  C   UNL     1       5.389   4.220  16.074  0.00  0.00    +0.000 A 
ATOM      5  C   UNL     1       4.859   4.888  17.189  0.00  0.00    +0.000 A 
ATOM      6  C   UNL     1       5.462   6.103  17.597  0.00  0.00    +0.000 A 
ENDROOT
BRANCH   1   9
ATOM      7  C   UNL     1       8.051   8.165  18.212  0.00  0.00    +0.000 C 
ATOM      8  O   UNL     1       8.577   7.332  18.943  0.00  0.00    +0.000 OA
ATOM      9  N   UNL     1       7.048   7.927  17.273  0.00  0.00    +0.000 N 
ATOM     10  H   UNL     1       6.683   8.756  16.811  0.00  0.00    +0.000 HD
BRANCH   7  15
ATOM     11  C   UNL     1       8.292  11.781  17.671  0.00  0.00    +0.000 A 
ATOM     12  C   UNL     1       9.351  12.185  18.468  0.00  0.00    +0.000 A 
ATOM     13  C   UNL     1      10.036  11.220  19.195  0.00  0.00    +0.000 A 
ATOM     14  C   UNL     1       9.614   9.897  19.113  0.00  0.00    +0.000 A 
ATOM     15  C   UNL     1       8.514   9.589  18.311  0.00  0.00    +0.000 A 
ATOM     16  N   UNL     1       7.837  10.511  17.582  0.00  0.00    +0.000 NA
BRANCH  11  17
ATOM     17  O   UNL     1       7.646  12.775  16.960  0.00  0.00    +0.000 OA
BRANCH  17  19
ATOM     18  C   UNL     1       6.117  14.423  17.767  0.00  0.00    +0.000 C 
ATOM     19  C   UNL     1       7.573  14.002  17.692  0.00  0.00    +0.000 C 
ENDBRANCH  17  19
ENDBRANCH  11  17
ENDBRANCH   7  15
ENDBRANCH   1   9
BRANCH   5  20
ATOM     20  C   UNL     1       3.608   4.362  17.888  0.00  0.00    +0.000 C 
ATOM     21  C   UNL     1       3.246   5.151  19.155  0.00  0.00    +0.000 C 
BRANCH  20  22
ATOM     22  S   UNL     1       3.798   2.615  18.424  0.00  0.00    +0.000 S 
BRANCH  22  23
ATOM     23  C   UNL     1       2.967   2.626  19.932  0.00  0.00    +0.000 A 
ATOM     24  N   UNL     1       3.505   2.671  21.129  0.00  0.00    +0.000 NA
ATOM     25  N   UNL     1       2.476   2.665  22.046  0.00  0.00    +0.000 NA
ATOM     26  C   UNL     1       1.346   2.621  21.375  0.00  0.00    +0.000 A 
ATOM     27  N   UNL     1       1.607   2.580  20.038  0.00  0.00    +0.000 N 
ATOM     28  C   UNL     1       0.633   2.519  18.984  0.00  0.00    +0.000 C 
ENDBRANCH  22  23
ENDBRANCH  20  22
ENDBRANCH   5  20
TORSDOF 7
ENDMDL
MODEL 9
REMARK VINA RESULT:      -7.3      1.845      2.658
REMARK  Name = 
REMARK  10 active torsions:
REMARK  status: ('A' for Active; 'I' for Inactive)
REMARK    1  A    between atoms: C_1  and  C_2
REMARK    2  A    between atoms: C_2  and  O_3
REMARK    3  A    between atoms: O_3  and  C_4
REMARK    4  A    between atoms: C_8  and  C_9
REMARK    5  A    between atoms: N_11  and  C_12
REMARK    6  A    between atoms: C_16  and  C_17
REMARK    7  A    between atoms: C_17  and  C_18
REMARK    8  A    between atoms: C_17  and  S_19
REMARK    9  A    between atoms: S_19  and  C_20
REMARK   10  A    between atoms: N_24  and  C_25
REMARK                            x       y       z     vdW  Elec       q    Type
REMARK                         _______ _______ _______ _____ _____    ______ ____
ROOT
ATOM      1  C   UNL     1       1.179   8.833  20.063  0.00  0.00    +0.000 A 
ATOM      2  C   UNL     1       1.037   8.950  21.447  0.00  0.00    +0.000 A 
ATOM      3  C   UNL     1       0.399  10.050  22.018  0.00  0.00    +0.000 A 
ATOM      4  C   UNL     1      -0.125  11.054  21.209  0.00  0.00    +0.000 A 
ATOM      5  C   UNL     1      -0.020  10.970  19.812  0.00  0.00    +0.000 A 
ATOM      6  C   UNL     1       0.658   9.860  19.252  0.00  0.00    +0.000 A 
ENDROOT
BRANCH   1   9
ATOM      7  C   UNL     1       2.428   7.661  18.225  0.00  0.00    +0.000 C 
ATOM      8  O   UNL     1       2.502   8.575  17.410  0.00  0.00    +0.000 OA
ATOM      9  N   UNL     1       1.770   7.698  19.453  0.00  0.00    +0.000 N 
ATOM     10  H   UNL     1       1.753   6.818  19.961  0.00  0.00    +0.000 HD
BRANCH   7  15
ATOM     11  C   UNL     1       2.951   4.110  17.485  0.00  0.00    +0.000 A 
ATOM     12  C   UNL     1       4.320   3.986  17.315  0.00  0.00    +0.000 A 
ATOM     13  C   UNL     1       5.112   5.115  17.480  0.00  0.00    +0.000 A 
ATOM     14  C   UNL     1       4.495   6.325  17.781  0.00  0.00    +0.000 A 
ATOM     15  C   UNL     1       3.105   6.362  17.897  0.00  0.00    +0.000 A 
ATOM     16  N   UNL     1       2.312   5.271  17.754  0.00  0.00    +0.000 NA
BRANCH  11  17
ATOM     17  O   UNL     1       2.206   2.958  17.319  0.00  0.00    +0.000 OA
BRANCH  17  19
ATOM     18  C   UNL     1       1.494   2.422  19.535  0.00  0.00    +0.000 C 
ATOM     19  C   UNL     1       2.404   2.028  18.387  0.00  0.00    +0.000 C 
ENDBRANCH  17  19
ENDBRANCH  11  17
ENDBRANCH   7  15
ENDBRANCH   1   9
BRANCH   5  20
ATOM     20  C   UNL     1      -0.701  12.002  18.918  0.00  0.00    +0.000 C 
ATOM     21  C   UNL     1      -0.419  13.451  19.343  0.00  0.00    +0.000 C 
BRANCH  20  22
ATOM     22  S   UNL     1      -2.530  11.827  18.929  0.00  0.00    +0.000 S 
BRANCH  22  23
ATOM     23  C   UNL     1      -2.819  11.130  17.381  0.00  0.00    +0.000 A 
ATOM     24  N   UNL     1      -1.980  10.412  16.671  0.00  0.00    +0.000 NA
ATOM     25  N   UNL     1      -2.624  10.057  15.504  0.00  0.00    +0.000 NA
ATOM     26  C   UNL     1      -3.835  10.569  15.548  0.00  0.00    +0.000 A 
ATOM     27  N   UNL     1      -3.997  11.266  16.707  0.00  0.00    +0.000 N 
ATOM     28  C   UNL     1      -5.180  11.973  17.114  0.00  0.00    +0.000 C 
ENDBRANCH  22  23
ENDBRANCH  20  22
ENDBRANCH   5  20
TORSDOF 7
ENDMDL
