MODEL 1
REMARK VINA RESULT:      -9.8      0.000      0.000
REMARK  Name = 
REMARK  8 active torsions:
REMARK  status: ('A' for Active; 'I' for Inactive)
REMARK    1  A    between atoms: C_1  and  C_2
REMARK    2  A    between atoms: C_6  and  C_7
REMARK    3  A    between atoms: C_7  and  C_8
REMARK    4  A    between atoms: C_8  and  C_9
REMARK    5  A    between atoms: C_13  and  N_14
REMARK    6  A    between atoms: C_19  and  C_20
REMARK    7  A    between atoms: C_20  and  N_21
REMARK    8  A    between atoms: C_29  and  C_30
REMARK                            x       y       z     vdW  Elec       q    Type
REMARK                         _______ _______ _______ _____ _____    ______ ____
ROOT
ATOM      1  N   UNL     1       2.384   7.372  19.353  0.00  0.00    +0.000 N 
ATOM      2  C   UNL     1       1.612   7.707  20.527  0.00  0.00    +0.000 C 
ATOM      3  C   UNL     1       1.064   9.045  20.244  0.00  0.00    +0.000 A 
ATOM      4  C   UNL     1       1.369   9.414  18.938  0.00  0.00    +0.000 A 
ATOM      5  C   UNL     1       0.889  10.595  18.405  0.00  0.00    +0.000 A 
ATOM      6  C   UNL     1       0.087  11.417  19.232  0.00  0.00    +0.000 A 
ATOM      7  C   UNL     1      -0.165  11.051  20.573  0.00  0.00    +0.000 A 
ATOM      8  C   UNL     1       0.330   9.853  21.110  0.00  0.00    +0.000 A 
ATOM      9  C   UNL     1       2.244   8.353  18.358  0.00  0.00    +0.000 C 
ATOM     10  O   UNL     1       2.716   8.411  17.241  0.00  0.00    +0.000 OA
ENDROOT
BRANCH   1  15
ATOM     11  C   UNL     1       5.460   5.293  18.813  0.00  0.00    +0.000 A 
ATOM     12  C   UNL     1       4.981   4.041  19.206  0.00  0.00    +0.000 A 
ATOM     13  C   UNL     1       3.668   3.874  19.683  0.00  0.00    +0.000 A 
ATOM     14  C   UNL     1       2.784   4.960  19.779  0.00  0.00    +0.000 A 
ATOM     15  C   UNL     1       3.205   6.217  19.380  0.00  0.00    +0.000 A 
ATOM     16  C   UNL     1       4.532   6.343  18.922  0.00  0.00    +0.000 A 
BRANCH  11  17
ATOM     17  C   UNL     1       6.923   5.615  18.208  0.00  0.00    +0.000 C 
ATOM     18  C   UNL     1       7.992   5.919  19.304  0.00  0.00    +0.000 C 
ATOM     19  O   UNL     1       8.166   7.271  18.840  0.00  0.00    +0.000 OA
ATOM     20  C   UNL     1       7.276   7.045  17.726  0.00  0.00    +0.000 C 
BRANCH  17  21
ATOM     21  C   UNL     1       7.404   4.491  17.260  0.00  0.00    +0.000 C 
BRANCH  21  27
ATOM     22  C   UNL     1       4.467   3.530  15.855  0.00  0.00    +0.000 C 
ATOM     23  C   UNL     1       5.663   4.176  15.268  0.00  0.00    +0.000 A 
ATOM     24  C   UNL     1       5.827   4.499  13.941  0.00  0.00    +0.000 A 
ATOM     25  O   UNL     1       7.039   5.058  13.742  0.00  0.00    +0.000 OA
ATOM     26  N   UNL     1       7.714   5.124  14.939  0.00  0.00    +0.000 NA
ATOM     27  C   UNL     1       6.894   4.599  15.863  0.00  0.00    +0.000 A 
ENDBRANCH  21  27
ENDBRANCH  17  21
ENDBRANCH  11  17
ENDBRANCH   1  15
BRANCH   8  28
ATOM     28  C   UNL     1       0.092   9.487  22.550  0.00  0.00    +0.000 C 
ATOM     29  F   UNL     1      -0.717   8.402  22.715  0.00  0.00    +0.000 F 
ATOM     30  F   UNL     1       1.246   9.180  23.204  0.00  0.00    +0.000 F 
ATOM     31  F   UNL     1      -0.495  10.487  23.260  0.00  0.00    +0.000 F 
ENDBRANCH   8  28
BRANCH   6  32
ATOM     32  C   UNL     1      -0.571  12.680  18.704  0.00  0.00    +0.000 C 
BRANCH  32  33
ATOM     33  N   UNL     1      -0.302  13.849  19.554  0.00  0.00    +0.000 NA
ATOM     34  C   UNL     1      -1.539  14.412  20.120  0.00  0.00    +0.000 C 
ATOM     35  C   UNL     1      -1.296  15.906  20.251  0.00  0.00    +0.000 C 
ATOM     36  C   UNL     1      -0.340  16.181  19.138  0.00  0.00    +0.000 C 
ATOM     37  C   UNL     1       0.343  17.528  19.053  0.00  0.00    +0.000 C 
ATOM     38  C   UNL     1      -0.697  17.159  18.036  0.00  0.00    +0.000 C 
ATOM     39  C   UNL     1       0.392  14.910  18.800  0.00  0.00    +0.000 C 
ENDBRANCH  32  33
ENDBRANCH   6  32
TORSDOF 7
ENDMDL
MODEL 2
REMARK VINA RESULT:      -9.7      0.812      1.218
REMARK  Name = 
REMARK  8 active torsions:
REMARK  status: ('A' for Active; 'I' for Inactive)
REMARK    1  A    between atoms: C_1  and  C_2
REMARK    2  A    between atoms: C_6  and  C_7
REMARK    3  A    between atoms: C_7  and  C_8
REMARK    4  A    between atoms: C_8  and  C_9
REMARK    5  A    between atoms: C_13  and  N_14
REMARK    6  A    between atoms: C_19  and  C_20
REMARK    7  A    between atoms: C_20  and  N_21
REMARK    8  A    between atoms: C_29  and  C_30
REMARK                            x       y       z     vdW  Elec       q    Type
REMARK                         _______ _______ _______ _____ _____    ______ ____
ROOT
ATOM      1  N   UNL     1       2.416   7.418  19.313  0.00  0.00    +0.000 N 
ATOM      2  C   UNL     1       1.609   7.756  20.462  0.00  0.00    +0.000 C 
ATOM      3  C   UNL     1       1.107   9.112  20.179  0.00  0.00    +0.000 A 
ATOM      4  C   UNL     1       1.470   9.491  18.890  0.00  0.00    +0.000 A 
ATOM      5  C   UNL     1       1.041  10.692  18.359  0.00  0.00    +0.000 A 
ATOM      6  C   UNL     1       0.229  11.522  19.167  0.00  0.00    +0.000 A 
ATOM      7  C   UNL     1      -0.083  11.143  20.491  0.00  0.00    +0.000 A 
ATOM      8  C   UNL     1       0.361   9.925  21.029  0.00  0.00    +0.000 A 
ATOM      9  C   UNL     1       2.339   8.416  18.327  0.00  0.00    +0.000 C 
ATOM     10  O   UNL     1       2.854   8.477  17.231  0.00  0.00    +0.000 OA
ENDROOT
BRANCH   1  15
ATOM     11  C   UNL     1       5.445   5.258  18.822  0.00  0.00    +0.000 A 
ATOM     12  C   UNL     1       4.926   4.019  19.207  0.00  0.00    +0.000 A 
ATOM     13  C   UNL     1       3.602   3.887  19.663  0.00  0.00    +0.000 A 
ATOM     14  C   UNL     1       2.746   4.996  19.744  0.00  0.00    +0.000 A 
ATOM     15  C   UNL     1       3.206   6.241  19.353  0.00  0.00    +0.000 A 
ATOM     16  C   UNL     1       4.543   6.333  18.916  0.00  0.00    +0.000 A 
BRANCH  11  17
ATOM     17  C   UNL     1       6.925   5.541  18.241  0.00  0.00    +0.000 C 
ATOM     18  C   UNL     1       7.993   5.769  19.357  0.00  0.00    +0.000 C 
ATOM     19  O   UNL     1       8.225   7.127  18.937  0.00  0.00    +0.000 OA
ATOM     20  C   UNL     1       7.338   6.970  17.809  0.00  0.00    +0.000 C 
BRANCH  17  21
ATOM     21  C   UNL     1       7.373   4.430  17.263  0.00  0.00    +0.000 C 
BRANCH  21  27
ATOM     22  C   UNL     1       4.408   3.595  15.833  0.00  0.00    +0.000 C 
ATOM     23  C   UNL     1       5.624   4.221  15.264  0.00  0.00    +0.000 A 
ATOM     24  C   UNL     1       5.798   4.575  13.946  0.00  0.00    +0.000 A 
ATOM     25  O   UNL     1       7.027   5.103  13.762  0.00  0.00    +0.000 OA
ATOM     26  N   UNL     1       7.702   5.117  14.960  0.00  0.00    +0.000 NA
ATOM     27  C   UNL     1       6.867   4.591  15.869  0.00  0.00    +0.000 A 
ENDBRANCH  21  27
ENDBRANCH  17  21
ENDBRANCH  11  17
ENDBRANCH   1  15
BRANCH   8  28
ATOM     28  C   UNL     1       0.059   9.546  22.453  0.00  0.00    +0.000 C 
ATOM     29  F   UNL     1      -0.576  10.524  23.160  0.00  0.00    +0.000 F 
ATOM     30  F   UNL     1      -0.751   8.455  22.538  0.00  0.00    +0.000 F 
ATOM     31  F   UNL     1       1.176   9.250  23.170  0.00  0.00    +0.000 F 
ENDBRANCH   8  28
BRANCH   6  32
ATOM     32  C   UNL     1      -0.376  12.809  18.634  0.00  0.00    +0.000 C 
BRANCH  32  33
ATOM     33  N   UNL     1       0.138  13.999  19.327  0.00  0.00    +0.000 NA
ATOM     34  C   UNL     1      -0.419  15.242  18.769  0.00  0.00    +0.000 C 
ATOM     35  C   UNL     1       0.663  16.296  18.932  0.00  0.00    +0.000 C 
ATOM     36  C   UNL     1       1.918  15.490  18.856  0.00  0.00    +0.000 C 
ATOM     37  C   UNL     1       3.242  16.132  19.205  0.00  0.00    +0.000 C 
ATOM     38  C   UNL     1       2.949  15.765  17.780  0.00  0.00    +0.000 C 
ATOM     39  C   UNL     1       1.609  14.071  19.250  0.00  0.00    +0.000 C 
ENDBRANCH  32  33
ENDBRANCH   6  32
TORSDOF 7
ENDMDL
MODEL 3
REMARK VINA RESULT:      -9.6      0.880      1.326
REMARK  Name = 
REMARK  8 active torsions:
REMARK  status: ('A' for Active; 'I' for Inactive)
REMARK    1  A    between atoms: C_1  and  C_2
REMARK    2  A    between atoms: C_6  and  C_7
REMARK    3  A    between atoms: C_7  and  C_8
REMARK    4  A    between atoms: C_8  and  C_9
REMARK    5  A    between atoms: C_13  and  N_14
REMARK    6  A    between atoms: C_19  and  C_20
REMARK    7  A    between atoms: C_20  and  N_21
REMARK    8  A    between atoms: C_29  and  C_30
REMARK                            x       y       z     vdW  Elec       q    Type
REMARK                         _______ _______ _______ _____ _____    ______ ____
ROOT
ATOM      1  N   UNL     1       2.396   7.330  19.311  0.00  0.00    +0.000 N 
ATOM      2  C   UNL     1       1.624   7.704  20.473  0.00  0.00    +0.000 C 
ATOM      3  C   UNL     1       1.029   9.005  20.123  0.00  0.00    +0.000 A 
ATOM      4  C   UNL     1       1.309   9.311  18.795  0.00  0.00    +0.000 A 
ATOM      5  C   UNL     1       0.786  10.445  18.205  0.00  0.00    +0.000 A 
ATOM      6  C   UNL     1      -0.036  11.285  18.994  0.00  0.00    +0.000 A 
ATOM      7  C   UNL     1      -0.263  10.985  20.355  0.00  0.00    +0.000 A 
ATOM      8  C   UNL     1       0.276   9.835  20.952  0.00  0.00    +0.000 A 
ATOM      9  C   UNL     1       2.214   8.250  18.265  0.00  0.00    +0.000 C 
ATOM     10  O   UNL     1       2.673   8.261  17.142  0.00  0.00    +0.000 OA
ENDROOT
BRANCH   1  15
ATOM     11  C   UNL     1       5.528   5.320  18.835  0.00  0.00    +0.000 A 
ATOM     12  C   UNL     1       5.098   4.080  19.316  0.00  0.00    +0.000 A 
ATOM     13  C   UNL     1       3.801   3.902  19.829  0.00  0.00    +0.000 A 
ATOM     14  C   UNL     1       2.883   4.963  19.876  0.00  0.00    +0.000 A 
ATOM     15  C   UNL     1       3.255   6.205  19.392  0.00  0.00    +0.000 A 
ATOM     16  C   UNL     1       4.568   6.345  18.899  0.00  0.00    +0.000 A 
BRANCH  11  17
ATOM     17  C   UNL     1       6.968   5.650  18.181  0.00  0.00    +0.000 C 
ATOM     18  C   UNL     1       8.070   5.967  19.241  0.00  0.00    +0.000 C 
ATOM     19  O   UNL     1       8.218   7.318  18.766  0.00  0.00    +0.000 OA
ATOM     20  C   UNL     1       7.294   7.080  17.683  0.00  0.00    +0.000 C 
BRANCH  17  21
ATOM     21  C   UNL     1       7.426   4.525  17.224  0.00  0.00    +0.000 C 
BRANCH  21  27
ATOM     22  C   UNL     1       4.433   3.619  15.902  0.00  0.00    +0.000 C 
ATOM     23  C   UNL     1       5.628   4.232  15.279  0.00  0.00    +0.000 A 
ATOM     24  C   UNL     1       5.765   4.541  13.945  0.00  0.00    +0.000 A 
ATOM     25  O   UNL     1       6.984   5.070  13.711  0.00  0.00    +0.000 OA
ATOM     26  N   UNL     1       7.690   5.131  14.889  0.00  0.00    +0.000 NA
ATOM     27  C   UNL     1       6.883   4.633  15.838  0.00  0.00    +0.000 A 
ENDBRANCH  21  27
ENDBRANCH  17  21
ENDBRANCH  11  17
ENDBRANCH   1  15
BRANCH   8  28
ATOM     28  C   UNL     1       0.064   9.542  22.412  0.00  0.00    +0.000 C 
ATOM     29  F   UNL     1      -0.751   8.473  22.646  0.00  0.00    +0.000 F 
ATOM     30  F   UNL     1       1.228   9.255  23.058  0.00  0.00    +0.000 F 
ATOM     31  F   UNL     1      -0.500  10.580  23.084  0.00  0.00    +0.000 F 
ENDBRANCH   8  28
BRANCH   6  32
ATOM     32  C   UNL     1      -0.740  12.494  18.405  0.00  0.00    +0.000 C 
BRANCH  32  33
ATOM     33  N   UNL     1       0.075  13.715  18.493  0.00  0.00    +0.000 NA
ATOM     34  C   UNL     1       1.516  13.413  18.490  0.00  0.00    +0.000 C 
ATOM     35  C   UNL     1       2.170  14.492  19.336  0.00  0.00    +0.000 C 
ATOM     36  C   UNL     1       1.094  14.841  20.311  0.00  0.00    +0.000 C 
ATOM     37  C   UNL     1       1.255  16.051  21.203  0.00  0.00    +0.000 C 
ATOM     38  C   UNL     1       1.317  14.676  21.801  0.00  0.00    +0.000 C 
ATOM     39  C   UNL     1      -0.239  14.483  19.712  0.00  0.00    +0.000 C 
ENDBRANCH  32  33
ENDBRANCH   6  32
TORSDOF 7
ENDMDL
MODEL 4
REMARK VINA RESULT:      -9.5      2.729      9.397
REMARK  Name = 
REMARK  8 active torsions:
REMARK  status: ('A' for Active; 'I' for Inactive)
REMARK    1  A    between atoms: C_1  and  C_2
REMARK    2  A    between atoms: C_6  and  C_7
REMARK    3  A    between atoms: C_7  and  C_8
REMARK    4  A    between atoms: C_8  and  C_9
REMARK    5  A    between atoms: C_13  and  N_14
REMARK    6  A    between atoms: C_19  and  C_20
REMARK    7  A    between atoms: C_20  and  N_21
REMARK    8  A    between atoms: C_29  and  C_30
REMARK                            x       y       z     vdW  Elec       q    Type
REMARK                         _______ _______ _______ _____ _____    ______ ____
ROOT
ATOM      1  N   UNL     1       1.433   8.080  20.236  0.00  0.00    +0.000 N 
ATOM      2  C   UNL     1       1.530   6.745  20.779  0.00  0.00    +0.000 C 
ATOM      3  C   UNL     1       2.236   5.972  19.743  0.00  0.00    +0.000 A 
ATOM      4  C   UNL     1       2.657   6.821  18.724  0.00  0.00    +0.000 A 
ATOM      5  C   UNL     1       3.419   6.344  17.674  0.00  0.00    +0.000 A 
ATOM      6  C   UNL     1       3.750   4.968  17.668  0.00  0.00    +0.000 A 
ATOM      7  C   UNL     1       3.267   4.113  18.683  0.00  0.00    +0.000 A 
ATOM      8  C   UNL     1       2.488   4.602  19.742  0.00  0.00    +0.000 A 
ATOM      9  C   UNL     1       2.122   8.183  19.016  0.00  0.00    +0.000 C 
ATOM     10  O   UNL     1       2.281   9.136  18.284  0.00  0.00    +0.000 OA
ENDROOT
BRANCH   1  15
ATOM     11  C   UNL     1      -0.750  11.105  20.642  0.00  0.00    +0.000 A 
ATOM     12  C   UNL     1      -0.885  11.123  22.033  0.00  0.00    +0.000 A 
ATOM     13  C   UNL     1      -0.299  10.133  22.840  0.00  0.00    +0.000 A 
ATOM     14  C   UNL     1       0.451   9.087  22.282  0.00  0.00    +0.000 A 
ATOM     15  C   UNL     1       0.632   9.037  20.911  0.00  0.00    +0.000 A 
ATOM     16  C   UNL     1       0.016  10.040  20.136  0.00  0.00    +0.000 A 
BRANCH  11  17
ATOM     17  C   UNL     1      -1.332  12.199  19.605  0.00  0.00    +0.000 C 
ATOM     18  C   UNL     1      -2.800  11.908  19.160  0.00  0.00    +0.000 C 
ATOM     19  O   UNL     1      -2.405  11.708  17.790  0.00  0.00    +0.000 OA
ATOM     20  C   UNL     1      -1.041  12.074  18.089  0.00  0.00    +0.000 C 
BRANCH  17  21
ATOM     21  C   UNL     1      -1.194  13.635  20.161  0.00  0.00    +0.000 C 
BRANCH  21  27
ATOM     22  C   UNL     1       2.152  13.242  20.587  0.00  0.00    +0.000 C 
ATOM     23  C   UNL     1       1.378  14.243  19.818  0.00  0.00    +0.000 A 
ATOM     24  C   UNL     1       1.912  15.294  19.108  0.00  0.00    +0.000 A 
ATOM     25  O   UNL     1       0.928  16.023  18.540  0.00  0.00    +0.000 OA
ATOM     26  N   UNL     1      -0.291  15.470  18.856  0.00  0.00    +0.000 NA
ATOM     27  C   UNL     1      -0.032  14.399  19.621  0.00  0.00    +0.000 A 
ENDBRANCH  21  27
ENDBRANCH  17  21
ENDBRANCH  11  17
ENDBRANCH   1  15
BRANCH   8  28
ATOM     28  C   UNL     1       1.943   3.679  20.799  0.00  0.00    +0.000 C 
ATOM     29  F   UNL     1       2.315   2.376  20.636  0.00  0.00    +0.000 F 
ATOM     30  F   UNL     1       2.360   4.019  22.049  0.00  0.00    +0.000 F 
ATOM     31  F   UNL     1       0.584   3.665  20.840  0.00  0.00    +0.000 F 
ENDBRANCH   8  28
BRANCH   6  32
ATOM     32  C   UNL     1       4.669   4.374  16.615  0.00  0.00    +0.000 C 
BRANCH  32  33
ATOM     33  N   UNL     1       6.082   4.706  16.851  0.00  0.00    +0.000 NA
ATOM     34  C   UNL     1       6.428   4.641  18.281  0.00  0.00    +0.000 C 
ATOM     35  C   UNL     1       7.508   5.688  18.497  0.00  0.00    +0.000 C 
ATOM     36  C   UNL     1       7.180   6.714  17.464  0.00  0.00    +0.000 C 
ATOM     37  C   UNL     1       8.158   7.833  17.183  0.00  0.00    +0.000 C 
ATOM     38  C   UNL     1       6.857   8.140  17.864  0.00  0.00    +0.000 C 
ATOM     39  C   UNL     1       6.406   6.056  16.354  0.00  0.00    +0.000 C 
ENDBRANCH  32  33
ENDBRANCH   6  32
TORSDOF 7
ENDMDL
MODEL 5
REMARK VINA RESULT:      -9.5      1.502      2.625
REMARK  Name = 
REMARK  8 active torsions:
REMARK  status: ('A' for Active; 'I' for Inactive)
REMARK    1  A    between atoms: C_1  and  C_2
REMARK    2  A    between atoms: C_6  and  C_7
REMARK    3  A    between atoms: C_7  and  C_8
REMARK    4  A    between atoms: C_8  and  C_9
REMARK    5  A    between atoms: C_13  and  N_14
REMARK    6  A    between atoms: C_19  and  C_20
REMARK    7  A    between atoms: C_20  and  N_21
REMARK    8  A    between atoms: C_29  and  C_30
REMARK                            x       y       z     vdW  Elec       q    Type
REMARK                         _______ _______ _______ _____ _____    ______ ____
ROOT
ATOM      1  N   UNL     1       2.114   7.549  19.573  0.00  0.00    +0.000 N 
ATOM      2  C   UNL     1       1.327   7.837  20.750  0.00  0.00    +0.000 C 
ATOM      3  C   UNL     1       0.846   9.215  20.549  0.00  0.00    +0.000 A 
ATOM      4  C   UNL     1       1.201   9.659  19.280  0.00  0.00    +0.000 A 
ATOM      5  C   UNL     1       0.789  10.896  18.821  0.00  0.00    +0.000 A 
ATOM      6  C   UNL     1       0.002  11.694  19.685  0.00  0.00    +0.000 A 
ATOM      7  C   UNL     1      -0.302  11.247  20.990  0.00  0.00    +0.000 A 
ATOM      8  C   UNL     1       0.125   9.993  21.452  0.00  0.00    +0.000 A 
ATOM      9  C   UNL     1       2.044   8.603  18.647  0.00  0.00    +0.000 C 
ATOM     10  O   UNL     1       2.548   8.716  17.549  0.00  0.00    +0.000 OA
ENDROOT
BRANCH   1  15
ATOM     11  C   UNL     1       5.075   5.354  18.869  0.00  0.00    +0.000 A 
ATOM     12  C   UNL     1       4.551   4.113  19.238  0.00  0.00    +0.000 A 
ATOM     13  C   UNL     1       3.248   3.989  19.752  0.00  0.00    +0.000 A 
ATOM     14  C   UNL     1       2.418   5.109  19.910  0.00  0.00    +0.000 A 
ATOM     15  C   UNL     1       2.883   6.358  19.538  0.00  0.00    +0.000 A 
ATOM     16  C   UNL     1       4.199   6.441  19.041  0.00  0.00    +0.000 A 
BRANCH  11  17
ATOM     17  C   UNL     1       6.532   5.631  18.228  0.00  0.00    +0.000 C 
ATOM     18  C   UNL     1       7.399   4.340  18.085  0.00  0.00    +0.000 C 
ATOM     19  O   UNL     1       8.382   4.829  19.016  0.00  0.00    +0.000 OA
ATOM     20  C   UNL     1       7.706   6.100  19.123  0.00  0.00    +0.000 C 
BRANCH  17  21
ATOM     21  C   UNL     1       6.424   6.380  16.880  0.00  0.00    +0.000 C 
BRANCH  21  27
ATOM     22  C   UNL     1       4.222   4.020  15.827  0.00  0.00    +0.000 C 
ATOM     23  C   UNL     1       5.501   4.488  15.247  0.00  0.00    +0.000 A 
ATOM     24  C   UNL     1       6.091   3.991  14.107  0.00  0.00    +0.000 A 
ATOM     25  O   UNL     1       7.258   4.627  13.869  0.00  0.00    +0.000 OA
ATOM     26  N   UNL     1       7.472   5.569  14.847  0.00  0.00    +0.000 NA
ATOM     27  C   UNL     1       6.422   5.496  15.679  0.00  0.00    +0.000 A 
ENDBRANCH  21  27
ENDBRANCH  17  21
ENDBRANCH  11  17
ENDBRANCH   1  15
BRANCH   8  28
ATOM     28  C   UNL     1      -0.167   9.539  22.857  0.00  0.00    +0.000 C 
ATOM     29  F   UNL     1       0.952   9.309  23.604  0.00  0.00    +0.000 F 
ATOM     30  F   UNL     1      -0.886  10.457  23.559  0.00  0.00    +0.000 F 
ATOM     31  F   UNL     1      -0.877   8.381  22.903  0.00  0.00    +0.000 F 
ENDBRANCH   8  28
BRANCH   6  32
ATOM     32  C   UNL     1      -0.586  13.019  19.233  0.00  0.00    +0.000 C 
BRANCH  32  33
ATOM     33  N   UNL     1      -1.877  12.856  18.550  0.00  0.00    +0.000 NA
ATOM     34  C   UNL     1      -2.917  12.344  19.458  0.00  0.00    +0.000 C 
ATOM     35  C   UNL     1      -3.845  11.503  18.597  0.00  0.00    +0.000 C 
ATOM     36  C   UNL     1      -2.933  10.997  17.530  0.00  0.00    +0.000 C 
ATOM     37  C   UNL     1      -3.511  10.294  16.321  0.00  0.00    +0.000 C 
ATOM     38  C   UNL     1      -2.726   9.509  17.331  0.00  0.00    +0.000 C 
ATOM     39  C   UNL     1      -1.764  11.937  17.403  0.00  0.00    +0.000 C 
ENDBRANCH  32  33
ENDBRANCH   6  32
TORSDOF 7
ENDMDL
MODEL 6
REMARK VINA RESULT:      -9.5      2.812      9.235
REMARK  Name = 
REMARK  8 active torsions:
REMARK  status: ('A' for Active; 'I' for Inactive)
REMARK    1  A    between atoms: C_1  and  C_2
REMARK    2  A    between atoms: C_6  and  C_7
REMARK    3  A    between atoms: C_7  and  C_8
REMARK    4  A    between atoms: C_8  and  C_9
REMARK    5  A    between atoms: C_13  and  N_14
REMARK    6  A    between atoms: C_19  and  C_20
REMARK    7  A    between atoms: C_20  and  N_21
REMARK    8  A    between atoms: C_29  and  C_30
REMARK                            x       y       z     vdW  Elec       q    Type
REMARK                         _______ _______ _______ _____ _____    ______ ____
ROOT
ATOM      1  N   UNL     1       1.479   8.095  20.109  0.00  0.00    +0.000 N 
ATOM      2  C   UNL     1       1.560   6.774  20.688  0.00  0.00    +0.000 C 
ATOM      3  C   UNL     1       2.278   5.970  19.684  0.00  0.00    +0.000 A 
ATOM      4  C   UNL     1       2.721   6.790  18.651  0.00  0.00    +0.000 A 
ATOM      5  C   UNL     1       3.497   6.282  17.627  0.00  0.00    +0.000 A 
ATOM      6  C   UNL     1       3.821   4.905  17.661  0.00  0.00    +0.000 A 
ATOM      7  C   UNL     1       3.317   4.079  18.690  0.00  0.00    +0.000 A 
ATOM      8  C   UNL     1       2.523   4.599  19.724  0.00  0.00    +0.000 A 
ATOM      9  C   UNL     1       2.189   8.162  18.899  0.00  0.00    +0.000 C 
ATOM     10  O   UNL     1       2.366   9.096  18.144  0.00  0.00    +0.000 OA
ENDROOT
BRANCH   1  15
ATOM     11  C   UNL     1      -0.800  11.064  20.383  0.00  0.00    +0.000 A 
ATOM     12  C   UNL     1      -0.873  11.187  21.773  0.00  0.00    +0.000 A 
ATOM     13  C   UNL     1      -0.213  10.285  22.626  0.00  0.00    +0.000 A 
ATOM     14  C   UNL     1       0.552   9.225  22.115  0.00  0.00    +0.000 A 
ATOM     15  C   UNL     1       0.673   9.073  20.745  0.00  0.00    +0.000 A 
ATOM     16  C   UNL     1      -0.015   9.990  19.925  0.00  0.00    +0.000 A 
BRANCH  11  17
ATOM     17  C   UNL     1      -1.469  12.051  19.294  0.00  0.00    +0.000 C 
ATOM     18  C   UNL     1      -3.024  12.132  19.407  0.00  0.00    +0.000 C 
ATOM     19  O   UNL     1      -3.206  11.553  18.102  0.00  0.00    +0.000 OA
ATOM     20  C   UNL     1      -1.782  11.544  17.864  0.00  0.00    +0.000 C 
BRANCH  17  21
ATOM     21  C   UNL     1      -0.834  13.460  19.342  0.00  0.00    +0.000 C 
BRANCH  21  27
ATOM     22  C   UNL     1       1.295  14.505  21.771  0.00  0.00    +0.000 C 
ATOM     23  C   UNL     1       1.552  13.926  20.433  0.00  0.00    +0.000 A 
ATOM     24  C   UNL     1       2.793  13.718  19.877  0.00  0.00    +0.000 A 
ATOM     25  O   UNL     1       2.668  13.192  18.640  0.00  0.00    +0.000 OA
ATOM     26  N   UNL     1       1.335  13.031  18.343  0.00  0.00    +0.000 NA
ATOM     27  C   UNL     1       0.656  13.466  19.416  0.00  0.00    +0.000 A 
ENDBRANCH  21  27
ENDBRANCH  17  21
ENDBRANCH  11  17
ENDBRANCH   1  15
BRANCH   8  28
ATOM     28  C   UNL     1       1.955   3.708  20.795  0.00  0.00    +0.000 C 
ATOM     29  F   UNL     1       2.353   4.042  22.056  0.00  0.00    +0.000 F 
ATOM     30  F   UNL     1       0.594   3.737  20.825  0.00  0.00    +0.000 F 
ATOM     31  F   UNL     1       2.306   2.404  20.638  0.00  0.00    +0.000 F 
ENDBRANCH   8  28
BRANCH   6  32
ATOM     32  C   UNL     1       4.754   4.279  16.640  0.00  0.00    +0.000 C 
BRANCH  32  33
ATOM     33  N   UNL     1       6.160   4.647  16.864  0.00  0.00    +0.000 NA
ATOM     34  C   UNL     1       6.519   4.595  18.291  0.00  0.00    +0.000 C 
ATOM     35  C   UNL     1       7.574   5.670  18.495  0.00  0.00    +0.000 C 
ATOM     36  C   UNL     1       7.212   6.684  17.462  0.00  0.00    +0.000 C 
ATOM     37  C   UNL     1       8.159   7.827  17.169  0.00  0.00    +0.000 C 
ATOM     38  C   UNL     1       6.855   8.102  17.861  0.00  0.00    +0.000 C 
ATOM     39  C   UNL     1       6.445   6.003  16.360  0.00  0.00    +0.000 C 
ENDBRANCH  32  33
ENDBRANCH   6  32
TORSDOF 7
ENDMDL
MODEL 7
REMARK VINA RESULT:      -9.4      2.911      9.267
REMARK  Name = 
REMARK  8 active torsions:
REMARK  status: ('A' for Active; 'I' for Inactive)
REMARK    1  A    between atoms: C_1  and  C_2
REMARK    2  A    between atoms: C_6  and  C_7
REMARK    3  A    between atoms: C_7  and  C_8
REMARK    4  A    between atoms: C_8  and  C_9
REMARK    5  A    between atoms: C_13  and  N_14
REMARK    6  A    between atoms: C_19  and  C_20
REMARK    7  A    between atoms: C_20  and  N_21
REMARK    8  A    between atoms: C_29  and  C_30
REMARK                            x       y       z     vdW  Elec       q    Type
REMARK                         _______ _______ _______ _____ _____    ______ ____
ROOT
ATOM      1  N   UNL     1       1.469   7.992  20.205  0.00  0.00    +0.000 N 
ATOM      2  C   UNL     1       1.555   6.664  20.767  0.00  0.00    +0.000 C 
ATOM      3  C   UNL     1       2.262   5.873  19.745  0.00  0.00    +0.000 A 
ATOM      4  C   UNL     1       2.694   6.705  18.717  0.00  0.00    +0.000 A 
ATOM      5  C   UNL     1       3.459   6.209  17.679  0.00  0.00    +0.000 A 
ATOM      6  C   UNL     1       3.782   4.832  17.693  0.00  0.00    +0.000 A 
ATOM      7  C   UNL     1       3.288   3.994  18.717  0.00  0.00    +0.000 A 
ATOM      8  C   UNL     1       2.506   4.501  19.765  0.00  0.00    +0.000 A 
ATOM      9  C   UNL     1       2.165   8.074  18.988  0.00  0.00    +0.000 C 
ATOM     10  O   UNL     1       2.335   9.017  18.244  0.00  0.00    +0.000 OA
ENDROOT
BRANCH   1  15
ATOM     11  C   UNL     1      -0.284  11.271  20.713  0.00  0.00    +0.000 A 
ATOM     12  C   UNL     1      -0.764  11.092  22.012  0.00  0.00    +0.000 A 
ATOM     13  C   UNL     1      -0.553   9.892  22.714  0.00  0.00    +0.000 A 
ATOM     14  C   UNL     1       0.155   8.826  22.139  0.00  0.00    +0.000 A 
ATOM     15  C   UNL     1       0.670   8.963  20.862  0.00  0.00    +0.000 A 
ATOM     16  C   UNL     1       0.424  10.176  20.187  0.00  0.00    +0.000 A 
BRANCH  11  17
ATOM     17  C   UNL     1      -0.416  12.607  19.814  0.00  0.00    +0.000 C 
ATOM     18  C   UNL     1       0.906  13.434  19.738  0.00  0.00    +0.000 C 
ATOM     19  O   UNL     1       0.309  14.557  20.415  0.00  0.00    +0.000 OA
ATOM     20  C   UNL     1      -0.983  13.912  20.428  0.00  0.00    +0.000 C 
BRANCH  17  21
ATOM     21  C   UNL     1      -0.953  12.287  18.400  0.00  0.00    +0.000 C 
BRANCH  21  27
ATOM     22  C   UNL     1      -2.385   9.894  16.463  0.00  0.00    +0.000 C 
ATOM     23  C   UNL     1      -2.945  10.739  17.543  0.00  0.00    +0.000 A 
ATOM     24  C   UNL     1      -4.253  10.729  17.969  0.00  0.00    +0.000 A 
ATOM     25  O   UNL     1      -4.431  11.632  18.956  0.00  0.00    +0.000 OA
ATOM     26  N   UNL     1      -3.238  12.266  19.215  0.00  0.00    +0.000 NA
ATOM     27  C   UNL     1      -2.338  11.734  18.374  0.00  0.00    +0.000 A 
ENDBRANCH  21  27
ENDBRANCH  17  21
ENDBRANCH  11  17
ENDBRANCH   1  15
BRANCH   8  28
ATOM     28  C   UNL     1       1.949   3.596  20.831  0.00  0.00    +0.000 C 
ATOM     29  F   UNL     1       2.350   3.922  22.093  0.00  0.00    +0.000 F 
ATOM     30  F   UNL     1       0.589   3.616  20.868  0.00  0.00    +0.000 F 
ATOM     31  F   UNL     1       2.308   2.296  20.662  0.00  0.00    +0.000 F 
ENDBRANCH   8  28
BRANCH   6  32
ATOM     32  C   UNL     1       4.704   4.218  16.654  0.00  0.00    +0.000 C 
BRANCH  32  33
ATOM     33  N   UNL     1       6.110   4.593  16.860  0.00  0.00    +0.000 NA
ATOM     34  C   UNL     1       6.486   4.551  18.283  0.00  0.00    +0.000 C 
ATOM     35  C   UNL     1       7.538   5.630  18.469  0.00  0.00    +0.000 C 
ATOM     36  C   UNL     1       7.162   6.637  17.434  0.00  0.00    +0.000 C 
ATOM     37  C   UNL     1       8.101   7.782  17.124  0.00  0.00    +0.000 C 
ATOM     38  C   UNL     1       6.804   8.056  17.828  0.00  0.00    +0.000 C 
ATOM     39  C   UNL     1       6.385   5.947  16.345  0.00  0.00    +0.000 C 
ENDBRANCH  32  33
ENDBRANCH   6  32
TORSDOF 7
ENDMDL
MODEL 8
REMARK VINA RESULT:      -9.3      1.288      2.747
REMARK  Name = 
REMARK  8 active torsions:
REMARK  status: ('A' for Active; 'I' for Inactive)
REMARK    1  A    between atoms: C_1  and  C_2
REMARK    2  A    between atoms: C_6  and  C_7
REMARK    3  A    between atoms: C_7  and  C_8
REMARK    4  A    between atoms: C_8  and  C_9
REMARK    5  A    between atoms: C_13  and  N_14
REMARK    6  A    between atoms: C_19  and  C_20
REMARK    7  A    between atoms: C_20  and  N_21
REMARK    8  A    between atoms: C_29  and  C_30
REMARK                            x       y       z     vdW  Elec       q    Type
REMARK                         _______ _______ _______ _____ _____    ______ ____
ROOT
ATOM      1  N   UNL     1       2.384   7.253  19.122  0.00  0.00    +0.000 N 
ATOM      2  C   UNL     1       1.626   7.625  20.294  0.00  0.00    +0.000 C 
ATOM      3  C   UNL     1       1.223   9.020  20.050  0.00  0.00    +0.000 A 
ATOM      4  C   UNL     1       1.590   9.401  18.763  0.00  0.00    +0.000 A 
ATOM      5  C   UNL     1       1.244  10.643  18.266  0.00  0.00    +0.000 A 
ATOM      6  C   UNL     1       0.512  11.513  19.108  0.00  0.00    +0.000 A 
ATOM      7  C   UNL     1       0.197  11.129  20.430  0.00  0.00    +0.000 A 
ATOM      8  C   UNL     1       0.556   9.869  20.932  0.00  0.00    +0.000 A 
ATOM      9  C   UNL     1       2.364   8.277  18.160  0.00  0.00    +0.000 C 
ATOM     10  O   UNL     1       2.862   8.324  17.055  0.00  0.00    +0.000 OA
ENDROOT
BRANCH   1  15
ATOM     11  C   UNL     1       4.714   4.590  17.873  0.00  0.00    +0.000 A 
ATOM     12  C   UNL     1       4.480   3.595  18.826  0.00  0.00    +0.000 A 
ATOM     13  C   UNL     1       3.592   3.799  19.897  0.00  0.00    +0.000 A 
ATOM     14  C   UNL     1       2.901   5.010  20.051  0.00  0.00    +0.000 A 
ATOM     15  C   UNL     1       3.082   6.019  19.121  0.00  0.00    +0.000 A 
ATOM     16  C   UNL     1       3.991   5.780  18.071  0.00  0.00    +0.000 A 
BRANCH  11  17
ATOM     17  C   UNL     1       5.668   4.473  16.575  0.00  0.00    +0.000 C 
ATOM     18  C   UNL     1       5.310   5.495  15.451  0.00  0.00    +0.000 C 
ATOM     19  O   UNL     1       4.950   4.445  14.533  0.00  0.00    +0.000 OA
ATOM     20  C   UNL     1       5.366   3.429  15.471  0.00  0.00    +0.000 C 
BRANCH  17  21
ATOM     21  C   UNL     1       7.163   4.573  16.960  0.00  0.00    +0.000 C 
BRANCH  21  27
ATOM     22  C   UNL     1       8.014   5.654  20.064  0.00  0.00    +0.000 C 
ATOM     23  C   UNL     1       7.925   6.371  18.772  0.00  0.00    +0.000 A 
ATOM     24  C   UNL     1       8.158   7.714  18.586  0.00  0.00    +0.000 A 
ATOM     25  O   UNL     1       7.973   8.046  17.291  0.00  0.00    +0.000 OA
ATOM     26  N   UNL     1       7.614   6.926  16.579  0.00  0.00    +0.000 NA
ATOM     27  C   UNL     1       7.585   5.913  17.459  0.00  0.00    +0.000 A 
ENDBRANCH  21  27
ENDBRANCH  17  21
ENDBRANCH  11  17
ENDBRANCH   1  15
BRANCH   8  28
ATOM     28  C   UNL     1       0.253   9.480  22.354  0.00  0.00    +0.000 C 
ATOM     29  F   UNL     1      -0.303  10.485  23.091  0.00  0.00    +0.000 F 
ATOM     30  F   UNL     1      -0.628   8.446  22.432  0.00  0.00    +0.000 F 
ATOM     31  F   UNL     1       1.358   9.094  23.044  0.00  0.00    +0.000 F 
ENDBRANCH   8  28
BRANCH   6  32
ATOM     32  C   UNL     1      -0.003  12.854  18.615  0.00  0.00    +0.000 C 
BRANCH  32  33
ATOM     33  N   UNL     1       0.659  13.987  19.278  0.00  0.00    +0.000 NA
ATOM     34  C   UNL     1       0.094  15.278  18.852  0.00  0.00    +0.000 C 
ATOM     35  C   UNL     1       1.239  16.274  18.907  0.00  0.00    +0.000 C 
ATOM     36  C   UNL     1       2.431  15.419  18.626  0.00  0.00    +0.000 C 
ATOM     37  C   UNL     1       3.820  15.984  18.815  0.00  0.00    +0.000 C 
ATOM     38  C   UNL     1       3.319  15.697  17.430  0.00  0.00    +0.000 C 
ATOM     39  C   UNL     1       2.108  13.997  19.002  0.00  0.00    +0.000 C 
ENDBRANCH  32  33
ENDBRANCH   6  32
TORSDOF 7
ENDMDL
MODEL 9
REMARK VINA RESULT:      -9.3      0.843      1.290
REMARK  Name = 
REMARK  8 active torsions:
REMARK  status: ('A' for Active; 'I' for Inactive)
REMARK    1  A    between atoms: C_1  and  C_2
REMARK    2  A    between atoms: C_6  and  C_7
REMARK    3  A    between atoms: C_7  and  C_8
REMARK    4  A    between atoms: C_8  and  C_9
REMARK    5  A    between atoms: C_13  and  N_14
REMARK    6  A    between atoms: C_19  and  C_20
REMARK    7  A    between atoms: C_20  and  N_21
REMARK    8  A    between atoms: C_29  and  C_30
REMARK                            x       y       z     vdW  Elec       q    Type
REMARK                         _______ _______ _______ _____ _____    ______ ____
ROOT
ATOM      1  N   UNL     1       2.095   7.541  19.495  0.00  0.00    +0.000 N 
ATOM      2  C   UNL     1       1.318   7.857  20.671  0.00  0.00    +0.000 C 
ATOM      3  C   UNL     1       0.817   9.222  20.431  0.00  0.00    +0.000 A 
ATOM      4  C   UNL     1       1.150   9.629  19.144  0.00  0.00    +0.000 A 
ATOM      5  C   UNL     1       0.716  10.844  18.650  0.00  0.00    +0.000 A 
ATOM      6  C   UNL     1      -0.071  11.660  19.497  0.00  0.00    +0.000 A 
ATOM      7  C   UNL     1      -0.353  11.252  20.819  0.00  0.00    +0.000 A 
ATOM      8  C   UNL     1       0.096  10.019  21.317  0.00  0.00    +0.000 A 
ATOM      9  C   UNL     1       1.999   8.563  18.535  0.00  0.00    +0.000 C 
ATOM     10  O   UNL     1       2.488   8.646  17.428  0.00  0.00    +0.000 OA
ENDROOT
BRANCH   1  15
ATOM     11  C   UNL     1       5.087   5.370  18.852  0.00  0.00    +0.000 A 
ATOM     12  C   UNL     1       4.577   4.130  19.246  0.00  0.00    +0.000 A 
ATOM     13  C   UNL     1       3.273   4.000  19.756  0.00  0.00    +0.000 A 
ATOM     14  C   UNL     1       2.427   5.113  19.885  0.00  0.00    +0.000 A 
ATOM     15  C   UNL     1       2.878   6.360  19.489  0.00  0.00    +0.000 A 
ATOM     16  C   UNL     1       4.196   6.449  18.996  0.00  0.00    +0.000 A 
BRANCH  11  17
ATOM     17  C   UNL     1       6.543   5.651  18.213  0.00  0.00    +0.000 C 
ATOM     18  C   UNL     1       7.417   4.365  18.078  0.00  0.00    +0.000 C 
ATOM     19  O   UNL     1       8.396   4.863  19.008  0.00  0.00    +0.000 OA
ATOM     20  C   UNL     1       7.713   6.131  19.107  0.00  0.00    +0.000 C 
BRANCH  17  21
ATOM     21  C   UNL     1       6.434   6.393  16.860  0.00  0.00    +0.000 C 
BRANCH  21  27
ATOM     22  C   UNL     1       4.214   4.033  15.845  0.00  0.00    +0.000 C 
ATOM     23  C   UNL     1       5.489   4.492  15.249  0.00  0.00    +0.000 A 
ATOM     24  C   UNL     1       6.065   3.987  14.106  0.00  0.00    +0.000 A 
ATOM     25  O   UNL     1       7.231   4.618  13.852  0.00  0.00    +0.000 OA
ATOM     26  N   UNL     1       7.458   5.566  14.822  0.00  0.00    +0.000 NA
ATOM     27  C   UNL     1       6.416   5.501  15.665  0.00  0.00    +0.000 A 
ENDBRANCH  21  27
ENDBRANCH  17  21
ENDBRANCH  11  17
ENDBRANCH   1  15
BRANCH   8  28
ATOM     28  C   UNL     1      -0.173   9.609  22.740  0.00  0.00    +0.000 C 
ATOM     29  F   UNL     1       0.956   9.338  23.457  0.00  0.00    +0.000 F 
ATOM     30  F   UNL     1      -0.824  10.575  23.444  0.00  0.00    +0.000 F 
ATOM     31  F   UNL     1      -0.937   8.488  22.832  0.00  0.00    +0.000 F 
ENDBRANCH   8  28
BRANCH   6  32
ATOM     32  C   UNL     1      -0.682  12.962  19.009  0.00  0.00    +0.000 C 
BRANCH  32  33
ATOM     33  N   UNL     1       0.335  13.984  18.721  0.00  0.00    +0.000 NA
ATOM     34  C   UNL     1       1.358  14.052  19.777  0.00  0.00    +0.000 C 
ATOM     35  C   UNL     1       1.808  15.503  19.830  0.00  0.00    +0.000 C 
ATOM     36  C   UNL     1       0.583  16.240  19.399  0.00  0.00    +0.000 C 
ATOM     37  C   UNL     1       0.669  17.719  19.092  0.00  0.00    +0.000 C 
ATOM     38  C   UNL     1      -0.070  17.257  20.313  0.00  0.00    +0.000 C 
ATOM     39  C   UNL     1      -0.274  15.319  18.573  0.00  0.00    +0.000 C 
ENDBRANCH  32  33
ENDBRANCH   6  32
TORSDOF 7
ENDMDL
