MODEL 1
REMARK VINA RESULT:     -10.3      0.000      0.000
REMARK  Name = 
REMARK  8 active torsions:
REMARK  status: ('A' for Active; 'I' for Inactive)
REMARK    1  A    between atoms: C_1  and  C_2
REMARK    2  A    between atoms: C_2  and  C_3
REMARK    3  A    between atoms: C_2  and  N_32
REMARK    4  A    between atoms: C_7  and  C_8
REMARK    5  A    between atoms: N_14  and  C_15
REMARK    6  A    between atoms: C_19  and  C_20
REMARK    7  A    between atoms: C_22  and  C_23
REMARK    8  A    between atoms: N_27  and  C_28
REMARK                            x       y       z     vdW  Elec       q    Type
REMARK                         _______ _______ _______ _____ _____    ______ ____
ROOT
ATOM      1  C   UNL     1       0.247  11.359  19.240  0.00  0.00    +0.000 A 
ATOM      2  C   UNL     1       1.024  10.446  18.517  0.00  0.00    +0.000 A 
ATOM      3  C   UNL     1       1.383   9.268  19.145  0.00  0.00    +0.000 A 
ATOM      4  C   UNL     1       1.007   8.952  20.448  0.00  0.00    +0.000 A 
ATOM      5  C   UNL     1       0.284   9.861  21.209  0.00  0.00    +0.000 A 
ATOM      6  C   UNL     1      -0.088  11.068  20.588  0.00  0.00    +0.000 A 
ATOM      7  C   UNL     1       1.455   7.560  20.765  0.00  0.00    +0.000 C 
ATOM      8  N   UNL     1       2.182   7.156  19.570  0.00  0.00    +0.000 N 
ATOM      9  C   UNL     1       2.140   8.142  18.586  0.00  0.00    +0.000 C 
ATOM     10  O   UNL     1       2.579   8.173  17.451  0.00  0.00    +0.000 OA
ENDROOT
BRANCH   8  11
ATOM     11  C   UNL     1       2.794   5.882  19.448  0.00  0.00    +0.000 A 
ATOM     12  C   UNL     1       2.609   4.894  20.415  0.00  0.00    +0.000 A 
ATOM     13  C   UNL     1       3.213   3.649  20.282  0.00  0.00    +0.000 A 
ATOM     14  C   UNL     1       4.050   3.396  19.198  0.00  0.00    +0.000 A 
ATOM     15  C   UNL     1       4.300   4.361  18.205  0.00  0.00    +0.000 A 
ATOM     16  C   UNL     1       3.609   5.579  18.336  0.00  0.00    +0.000 A 
BRANCH  15  17
ATOM     17  C   UNL     1       5.249   4.013  17.075  0.00  0.00    +0.000 C 
ATOM     18  C   UNL     1       5.371   4.784  15.809  0.00  0.00    +0.000 C 
ATOM     19  C   UNL     1       6.561   4.708  16.757  0.00  0.00    +0.000 C 
BRANCH  19  20
ATOM     20  C   UNL     1       7.070   6.059  17.243  0.00  0.00    +0.000 A 
ATOM     21  N   UNL     1       7.128   7.168  16.534  0.00  0.00    +0.000 NA
ATOM     22  N   UNL     1       7.761   8.134  17.281  0.00  0.00    +0.000 NA
ATOM     23  C   UNL     1       8.089   7.591  18.429  0.00  0.00    +0.000 A 
ATOM     24  N   UNL     1       7.663   6.300  18.456  0.00  0.00    +0.000 N 
ATOM     25  C   UNL     1       7.849   5.368  19.534  0.00  0.00    +0.000 C 
ENDBRANCH  19  20
ENDBRANCH  15  17
ENDBRANCH   8  11
BRANCH   5  26
ATOM     26  C   UNL     1      -0.131   9.603  22.634  0.00  0.00    +0.000 C 
ATOM     27  F   UNL     1       0.908   9.368  23.476  0.00  0.00    +0.000 F 
ATOM     28  F   UNL     1      -0.805  10.658  23.167  0.00  0.00    +0.000 F 
ATOM     29  F   UNL     1      -0.961   8.531  22.752  0.00  0.00    +0.000 F 
ENDBRANCH   5  26
BRANCH   1  31
ATOM     30  C   UNL     1      -0.380  13.754  19.545  0.00  0.00    +0.000 C 
ATOM     31  C   UNL     1      -0.337  12.588  18.544  0.00  0.00    +0.000 C 
BRANCH  31  32
ATOM     32  N   UNL     1      -1.667  12.288  17.978  0.00  0.00    +0.000 NA
ATOM     33  C   UNL     1      -1.750  11.042  17.204  0.00  0.00    +0.000 C 
ATOM     34  C   UNL     1      -2.883  10.215  17.801  0.00  0.00    +0.000 C 
ATOM     35  C   UNL     1      -3.761  11.243  18.466  0.00  0.00    +0.000 C 
ATOM     36  F   UNL     1      -4.565  11.821  17.534  0.00  0.00    +0.000 F 
ATOM     37  C   UNL     1      -2.753  12.253  18.984  0.00  0.00    +0.000 C 
ENDBRANCH  31  32
ENDBRANCH   1  31
TORSDOF 6
ENDMDL
MODEL 2
REMARK VINA RESULT:     -10.0      2.822      8.997
REMARK  Name = 
REMARK  8 active torsions:
REMARK  status: ('A' for Active; 'I' for Inactive)
REMARK    1  A    between atoms: C_1  and  C_2
REMARK    2  A    between atoms: C_2  and  C_3
REMARK    3  A    between atoms: C_2  and  N_32
REMARK    4  A    between atoms: C_7  and  C_8
REMARK    5  A    between atoms: N_14  and  C_15
REMARK    6  A    between atoms: C_19  and  C_20
REMARK    7  A    between atoms: C_22  and  C_23
REMARK    8  A    between atoms: N_27  and  C_28
REMARK                            x       y       z     vdW  Elec       q    Type
REMARK                         _______ _______ _______ _____ _____    ______ ____
ROOT
ATOM      1  C   UNL     1       3.870   5.252  17.868  0.00  0.00    +0.000 A 
ATOM      2  C   UNL     1       3.416   6.575  17.941  0.00  0.00    +0.000 A 
ATOM      3  C   UNL     1       2.567   6.907  18.981  0.00  0.00    +0.000 A 
ATOM      4  C   UNL     1       2.151   5.996  19.947  0.00  0.00    +0.000 A 
ATOM      5  C   UNL     1       2.539   4.665  19.870  0.00  0.00    +0.000 A 
ATOM      6  C   UNL     1       3.400   4.307  18.816  0.00  0.00    +0.000 A 
ATOM      7  C   UNL     1       1.347   6.713  20.986  0.00  0.00    +0.000 C 
ATOM      8  N   UNL     1       1.276   8.076  20.479  0.00  0.00    +0.000 N 
ATOM      9  C   UNL     1       2.007   8.224  19.300  0.00  0.00    +0.000 C 
ATOM     10  O   UNL     1       2.229   9.197  18.602  0.00  0.00    +0.000 OA
ENDROOT
BRANCH   8  11
ATOM     11  C   UNL     1       0.583   9.107  21.165  0.00  0.00    +0.000 A 
ATOM     12  C   UNL     1       0.226   8.970  22.506  0.00  0.00    +0.000 A 
ATOM     13  C   UNL     1      -0.452   9.988  23.168  0.00  0.00    +0.000 A 
ATOM     14  C   UNL     1      -0.821  11.140  22.475  0.00  0.00    +0.000 A 
ATOM     15  C   UNL     1      -0.516  11.324  21.114  0.00  0.00    +0.000 A 
ATOM     16  C   UNL     1       0.237  10.305  20.504  0.00  0.00    +0.000 A 
BRANCH  15  17
ATOM     17  C   UNL     1      -0.984  12.594  20.430  0.00  0.00    +0.000 C 
ATOM     18  C   UNL     1      -0.481  13.076  19.116  0.00  0.00    +0.000 C 
ATOM     19  C   UNL     1      -1.946  12.681  19.258  0.00  0.00    +0.000 C 
BRANCH  19  20
ATOM     20  C   UNL     1      -2.398  11.579  18.308  0.00  0.00    +0.000 A 
ATOM     21  N   UNL     1      -1.613  10.800  17.593  0.00  0.00    +0.000 NA
ATOM     22  N   UNL     1      -2.397  10.025  16.770  0.00  0.00    +0.000 NA
ATOM     23  C   UNL     1      -3.647  10.356  16.991  0.00  0.00    +0.000 A 
ATOM     24  N   UNL     1      -3.696  11.313  17.955  0.00  0.00    +0.000 N 
ATOM     25  C   UNL     1      -4.883  11.946  18.461  0.00  0.00    +0.000 C 
ENDBRANCH  19  20
ENDBRANCH  15  17
ENDBRANCH   8  11
BRANCH   5  26
ATOM     26  C   UNL     1       2.104   3.616  20.860  0.00  0.00    +0.000 C 
ATOM     27  F   UNL     1       2.461   3.889  22.142  0.00  0.00    +0.000 F 
ATOM     28  F   UNL     1       0.751   3.464  20.880  0.00  0.00    +0.000 F 
ATOM     29  F   UNL     1       2.614   2.387  20.579  0.00  0.00    +0.000 F 
ENDBRANCH   5  26
BRANCH   1  31
ATOM     30  C   UNL     1       4.660   3.454  16.330  0.00  0.00    +0.000 C 
ATOM     31  C   UNL     1       4.951   4.868  16.859  0.00  0.00    +0.000 C 
BRANCH  31  32
ATOM     32  N   UNL     1       6.294   4.972  17.463  0.00  0.00    +0.000 NA
ATOM     33  C   UNL     1       7.148   6.030  16.906  0.00  0.00    +0.000 C 
ATOM     34  C   UNL     1       7.612   6.896  18.072  0.00  0.00    +0.000 C 
ATOM     35  C   UNL     1       7.509   5.976  19.261  0.00  0.00    +0.000 C 
ATOM     36  F   UNL     1       8.609   5.178  19.311  0.00  0.00    +0.000 F 
ATOM     37  C   UNL     1       6.279   5.149  18.933  0.00  0.00    +0.000 C 
ENDBRANCH  31  32
ENDBRANCH   1  31
TORSDOF 6
ENDMDL
MODEL 3
REMARK VINA RESULT:      -9.8      3.375      9.643
REMARK  Name = 
REMARK  8 active torsions:
REMARK  status: ('A' for Active; 'I' for Inactive)
REMARK    1  A    between atoms: C_1  and  C_2
REMARK    2  A    between atoms: C_2  and  C_3
REMARK    3  A    between atoms: C_2  and  N_32
REMARK    4  A    between atoms: C_7  and  C_8
REMARK    5  A    between atoms: N_14  and  C_15
REMARK    6  A    between atoms: C_19  and  C_20
REMARK    7  A    between atoms: C_22  and  C_23
REMARK    8  A    between atoms: N_27  and  C_28
REMARK                            x       y       z     vdW  Elec       q    Type
REMARK                         _______ _______ _______ _____ _____    ______ ____
ROOT
ATOM      1  C   UNL     1       3.888   5.304  17.809  0.00  0.00    +0.000 A 
ATOM      2  C   UNL     1       3.441   6.627  17.912  0.00  0.00    +0.000 A 
ATOM      3  C   UNL     1       2.574   6.935  18.945  0.00  0.00    +0.000 A 
ATOM      4  C   UNL     1       2.134   5.999  19.876  0.00  0.00    +0.000 A 
ATOM      5  C   UNL     1       2.515   4.667  19.767  0.00  0.00    +0.000 A 
ATOM      6  C   UNL     1       3.395   4.334  18.720  0.00  0.00    +0.000 A 
ATOM      7  C   UNL     1       1.314   6.690  20.920  0.00  0.00    +0.000 C 
ATOM      8  N   UNL     1       1.262   8.068  20.451  0.00  0.00    +0.000 N 
ATOM      9  C   UNL     1       2.015   8.246  19.292  0.00  0.00    +0.000 C 
ATOM     10  O   UNL     1       2.257   9.237  18.627  0.00  0.00    +0.000 OA
ENDROOT
BRANCH   8  11
ATOM     11  C   UNL     1       0.561   9.083  21.154  0.00  0.00    +0.000 A 
ATOM     12  C   UNL     1       0.386   9.017  22.537  0.00  0.00    +0.000 A 
ATOM     13  C   UNL     1      -0.300  10.019  23.213  0.00  0.00    +0.000 A 
ATOM     14  C   UNL     1      -0.861  11.078  22.502  0.00  0.00    +0.000 A 
ATOM     15  C   UNL     1      -0.744  11.185  21.104  0.00  0.00    +0.000 A 
ATOM     16  C   UNL     1       0.024  10.193  20.468  0.00  0.00    +0.000 A 
BRANCH  15  17
ATOM     17  C   UNL     1      -1.411  12.354  20.406  0.00  0.00    +0.000 C 
ATOM     18  C   UNL     1      -2.774  12.313  19.811  0.00  0.00    +0.000 C 
ATOM     19  C   UNL     1      -2.497  13.245  20.984  0.00  0.00    +0.000 C 
BRANCH  19  20
ATOM     20  C   UNL     1      -3.381  13.007  22.202  0.00  0.00    +0.000 A 
ATOM     21  N   UNL     1      -4.549  12.398  22.207  0.00  0.00    +0.000 NA
ATOM     22  N   UNL     1      -5.089  12.496  23.468  0.00  0.00    +0.000 NA
ATOM     23  C   UNL     1      -4.244  13.175  24.206  0.00  0.00    +0.000 A 
ATOM     24  N   UNL     1      -3.156  13.502  23.461  0.00  0.00    +0.000 N 
ATOM     25  C   UNL     1      -2.019  14.260  23.907  0.00  0.00    +0.000 C 
ENDBRANCH  19  20
ENDBRANCH  15  17
ENDBRANCH   8  11
BRANCH   5  26
ATOM     26  C   UNL     1       2.055   3.594  20.718  0.00  0.00    +0.000 C 
ATOM     27  F   UNL     1       0.706   3.444  20.768  0.00  0.00    +0.000 F 
ATOM     28  F   UNL     1       2.548   2.370  20.381  0.00  0.00    +0.000 F 
ATOM     29  F   UNL     1       2.457   3.820  21.998  0.00  0.00    +0.000 F 
ENDBRANCH   5  26
BRANCH   1  31
ATOM     30  C   UNL     1       4.718   3.530  16.264  0.00  0.00    +0.000 C 
ATOM     31  C   UNL     1       4.986   4.942  16.810  0.00  0.00    +0.000 C 
BRANCH  31  32
ATOM     32  N   UNL     1       6.320   5.055  17.432  0.00  0.00    +0.000 NA
ATOM     33  C   UNL     1       7.159   6.146  16.916  0.00  0.00    +0.000 C 
ATOM     34  C   UNL     1       7.592   6.987  18.111  0.00  0.00    +0.000 C 
ATOM     35  C   UNL     1       7.495   6.031  19.272  0.00  0.00    +0.000 C 
ATOM     36  F   UNL     1       8.610   5.254  19.311  0.00  0.00    +0.000 F 
ATOM     37  C   UNL     1       6.285   5.189  18.906  0.00  0.00    +0.000 C 
ENDBRANCH  31  32
ENDBRANCH   1  31
TORSDOF 6
ENDMDL
MODEL 4
REMARK VINA RESULT:      -9.7      3.169      8.872
REMARK  Name = 
REMARK  8 active torsions:
REMARK  status: ('A' for Active; 'I' for Inactive)
REMARK    1  A    between atoms: C_1  and  C_2
REMARK    2  A    between atoms: C_2  and  C_3
REMARK    3  A    between atoms: C_2  and  N_32
REMARK    4  A    between atoms: C_7  and  C_8
REMARK    5  A    between atoms: N_14  and  C_15
REMARK    6  A    between atoms: C_19  and  C_20
REMARK    7  A    between atoms: C_22  and  C_23
REMARK    8  A    between atoms: N_27  and  C_28
REMARK                            x       y       z     vdW  Elec       q    Type
REMARK                         _______ _______ _______ _____ _____    ______ ____
ROOT
ATOM      1  C   UNL     1       3.898   5.257  17.773  0.00  0.00    +0.000 A 
ATOM      2  C   UNL     1       3.452   6.583  17.828  0.00  0.00    +0.000 A 
ATOM      3  C   UNL     1       2.590   6.930  18.853  0.00  0.00    +0.000 A 
ATOM      4  C   UNL     1       2.153   6.030  19.820  0.00  0.00    +0.000 A 
ATOM      5  C   UNL     1       2.533   4.695  19.759  0.00  0.00    +0.000 A 
ATOM      6  C   UNL     1       3.408   4.323  18.721  0.00  0.00    +0.000 A 
ATOM      7  C   UNL     1       1.339   6.761  20.841  0.00  0.00    +0.000 C 
ATOM      8  N   UNL     1       1.285   8.120  20.322  0.00  0.00    +0.000 N 
ATOM      9  C   UNL     1       2.034   8.254  19.153  0.00  0.00    +0.000 C 
ATOM     10  O   UNL     1       2.273   9.219  18.451  0.00  0.00    +0.000 OA
ENDROOT
BRANCH   8  11
ATOM     11  C   UNL     1       0.589   9.161  20.989  0.00  0.00    +0.000 A 
ATOM     12  C   UNL     1       0.278   9.070  22.346  0.00  0.00    +0.000 A 
ATOM     13  C   UNL     1      -0.403  10.098  22.989  0.00  0.00    +0.000 A 
ATOM     14  C   UNL     1      -0.822  11.211  22.264  0.00  0.00    +0.000 A 
ATOM     15  C   UNL     1      -0.565  11.348  20.887  0.00  0.00    +0.000 A 
ATOM     16  C   UNL     1       0.193  10.323  20.294  0.00  0.00    +0.000 A 
BRANCH  15  17
ATOM     17  C   UNL     1      -1.085  12.578  20.170  0.00  0.00    +0.000 C 
ATOM     18  C   UNL     1      -1.556  13.814  20.850  0.00  0.00    +0.000 C 
ATOM     19  C   UNL     1      -0.330  13.876  19.948  0.00  0.00    +0.000 C 
BRANCH  19  20
ATOM     20  C   UNL     1       0.935  14.376  20.636  0.00  0.00    +0.000 A 
ATOM     21  N   UNL     1       1.503  13.842  21.699  0.00  0.00    +0.000 NA
ATOM     22  N   UNL     1       2.546  14.651  22.090  0.00  0.00    +0.000 NA
ATOM     23  C   UNL     1       2.585  15.669  21.265  0.00  0.00    +0.000 A 
ATOM     24  N   UNL     1       1.607  15.531  20.331  0.00  0.00    +0.000 N 
ATOM     25  C   UNL     1       1.316  16.451  19.266  0.00  0.00    +0.000 C 
ENDBRANCH  19  20
ENDBRANCH  15  17
ENDBRANCH   8  11
BRANCH   5  26
ATOM     26  C   UNL     1       2.077   3.658  20.751  0.00  0.00    +0.000 C 
ATOM     27  F   UNL     1       2.430   3.931  22.034  0.00  0.00    +0.000 F 
ATOM     28  F   UNL     1       0.722   3.526  20.763  0.00  0.00    +0.000 F 
ATOM     29  F   UNL     1       2.571   2.420  20.479  0.00  0.00    +0.000 F 
ENDBRANCH   5  26
BRANCH   1  31
ATOM     30  C   UNL     1       4.728   3.421  16.303  0.00  0.00    +0.000 C 
ATOM     31  C   UNL     1       4.991   4.858  16.783  0.00  0.00    +0.000 C 
BRANCH  31  32
ATOM     32  N   UNL     1       6.329   5.007  17.390  0.00  0.00    +0.000 NA
ATOM     33  C   UNL     1       7.133   6.118  16.861  0.00  0.00    +0.000 C 
ATOM     34  C   UNL     1       7.558   6.972  18.050  0.00  0.00    +0.000 C 
ATOM     35  C   UNL     1       7.499   6.017  19.214  0.00  0.00    +0.000 C 
ATOM     36  F   UNL     1       8.634   5.269  19.242  0.00  0.00    +0.000 F 
ATOM     37  C   UNL     1       6.307   5.144  18.863  0.00  0.00    +0.000 C 
ENDBRANCH  31  32
ENDBRANCH   1  31
TORSDOF 6
ENDMDL
MODEL 5
REMARK VINA RESULT:      -9.7      1.694      2.585
REMARK  Name = 
REMARK  8 active torsions:
REMARK  status: ('A' for Active; 'I' for Inactive)
REMARK    1  A    between atoms: C_1  and  C_2
REMARK    2  A    between atoms: C_2  and  C_3
REMARK    3  A    between atoms: C_2  and  N_32
REMARK    4  A    between atoms: C_7  and  C_8
REMARK    5  A    between atoms: N_14  and  C_15
REMARK    6  A    between atoms: C_19  and  C_20
REMARK    7  A    between atoms: C_22  and  C_23
REMARK    8  A    between atoms: N_27  and  C_28
REMARK                            x       y       z     vdW  Elec       q    Type
REMARK                         _______ _______ _______ _____ _____    ______ ____
ROOT
ATOM      1  C   UNL     1       0.131  11.710  19.678  0.00  0.00    +0.000 A 
ATOM      2  C   UNL     1       0.882  10.876  18.842  0.00  0.00    +0.000 A 
ATOM      3  C   UNL     1       1.263   9.642  19.337  0.00  0.00    +0.000 A 
ATOM      4  C   UNL     1       0.933   9.198  20.615  0.00  0.00    +0.000 A 
ATOM      5  C   UNL     1       0.237  10.025  21.487  0.00  0.00    +0.000 A 
ATOM      6  C   UNL     1      -0.156  11.286  21.002  0.00  0.00    +0.000 A 
ATOM      7  C   UNL     1       1.391   7.783  20.777  0.00  0.00    +0.000 C 
ATOM      8  N   UNL     1       2.075   7.502  19.523  0.00  0.00    +0.000 N 
ATOM      9  C   UNL     1       1.999   8.580  18.643  0.00  0.00    +0.000 C 
ATOM     10  O   UNL     1       2.398   8.724  17.502  0.00  0.00    +0.000 OA
ENDROOT
BRANCH   8  11
ATOM     11  C   UNL     1       2.683   6.247  19.254  0.00  0.00    +0.000 A 
ATOM     12  C   UNL     1       2.496   5.156  20.102  0.00  0.00    +0.000 A 
ATOM     13  C   UNL     1       3.095   3.932  19.825  0.00  0.00    +0.000 A 
ATOM     14  C   UNL     1       3.929   3.802  18.717  0.00  0.00    +0.000 A 
ATOM     15  C   UNL     1       4.180   4.874  17.840  0.00  0.00    +0.000 A 
ATOM     16  C   UNL     1       3.494   6.071  18.112  0.00  0.00    +0.000 A 
BRANCH  15  17
ATOM     17  C   UNL     1       5.125   4.655  16.675  0.00  0.00    +0.000 C 
ATOM     18  C   UNL     1       5.323   5.617  15.558  0.00  0.00    +0.000 C 
ATOM     19  C   UNL     1       6.487   5.300  16.489  0.00  0.00    +0.000 C 
BRANCH  19  20
ATOM     20  C   UNL     1       7.076   6.513  17.199  0.00  0.00    +0.000 A 
ATOM     21  N   UNL     1       7.170   7.731  16.706  0.00  0.00    +0.000 NA
ATOM     22  N   UNL     1       7.871   8.511  17.597  0.00  0.00    +0.000 NA
ATOM     23  C   UNL     1       8.202   7.749  18.612  0.00  0.00    +0.000 A 
ATOM     24  N   UNL     1       7.713   6.496  18.413  0.00  0.00    +0.000 N 
ATOM     25  C   UNL     1       7.882   5.371  19.291  0.00  0.00    +0.000 C 
ENDBRANCH  19  20
ENDBRANCH  15  17
ENDBRANCH   8  11
BRANCH   5  26
ATOM     26  C   UNL     1      -0.128   9.626  22.893  0.00  0.00    +0.000 C 
ATOM     27  F   UNL     1      -0.882   8.498  22.966  0.00  0.00    +0.000 F 
ATOM     28  F   UNL     1       0.973   9.380  23.655  0.00  0.00    +0.000 F 
ATOM     29  F   UNL     1      -0.828  10.591  23.547  0.00  0.00    +0.000 F 
ENDBRANCH   5  26
BRANCH   1  31
ATOM     30  C   UNL     1      -0.599  12.882  17.600  0.00  0.00    +0.000 C 
ATOM     31  C   UNL     1      -0.477  13.000  19.128  0.00  0.00    +0.000 C 
BRANCH  31  32
ATOM     32  N   UNL     1       0.322  14.172  19.536  0.00  0.00    +0.000 NA
ATOM     33  C   UNL     1       1.766  14.061  19.283  0.00  0.00    +0.000 C 
ATOM     34  C   UNL     1       2.174  15.278  18.460  0.00  0.00    +0.000 C 
ATOM     35  C   UNL     1       1.115  16.299  18.786  0.00  0.00    +0.000 C 
ATOM     36  F   UNL     1       1.415  16.898  19.969  0.00  0.00    +0.000 F 
ATOM     37  C   UNL     1      -0.132  15.446  18.934  0.00  0.00    +0.000 C 
ENDBRANCH  31  32
ENDBRANCH   1  31
TORSDOF 6
ENDMDL
MODEL 6
REMARK VINA RESULT:      -9.7      4.057      8.854
REMARK  Name = 
REMARK  8 active torsions:
REMARK  status: ('A' for Active; 'I' for Inactive)
REMARK    1  A    between atoms: C_1  and  C_2
REMARK    2  A    between atoms: C_2  and  C_3
REMARK    3  A    between atoms: C_2  and  N_32
REMARK    4  A    between atoms: C_7  and  C_8
REMARK    5  A    between atoms: N_14  and  C_15
REMARK    6  A    between atoms: C_19  and  C_20
REMARK    7  A    between atoms: C_22  and  C_23
REMARK    8  A    between atoms: N_27  and  C_28
REMARK                            x       y       z     vdW  Elec       q    Type
REMARK                         _______ _______ _______ _____ _____    ______ ____
ROOT
ATOM      1  C   UNL     1       4.986   4.366  16.373  0.00  0.00    +0.000 A 
ATOM      2  C   UNL     1       4.636   5.705  16.583  0.00  0.00    +0.000 A 
ATOM      3  C   UNL     1       3.694   5.979  17.558  0.00  0.00    +0.000 A 
ATOM      4  C   UNL     1       3.088   4.993  18.332  0.00  0.00    +0.000 A 
ATOM      5  C   UNL     1       3.372   3.652  18.108  0.00  0.00    +0.000 A 
ATOM      6  C   UNL     1       4.326   3.354  17.117  0.00  0.00    +0.000 A 
ATOM      7  C   UNL     1       2.222   5.641  19.365  0.00  0.00    +0.000 C 
ATOM      8  N   UNL     1       2.327   7.060  19.054  0.00  0.00    +0.000 N 
ATOM      9  C   UNL     1       3.207   7.291  17.998  0.00  0.00    +0.000 C 
ATOM     10  O   UNL     1       3.594   8.320  17.476  0.00  0.00    +0.000 OA
ENDROOT
BRANCH   8  11
ATOM     11  C   UNL     1       1.639   8.054  19.799  0.00  0.00    +0.000 A 
ATOM     12  C   UNL     1       1.344   7.871  21.150  0.00  0.00    +0.000 A 
ATOM     13  C   UNL     1       0.673   8.853  21.868  0.00  0.00    +0.000 A 
ATOM     14  C   UNL     1       0.246  10.014  21.226  0.00  0.00    +0.000 A 
ATOM     15  C   UNL     1       0.488  10.244  19.858  0.00  0.00    +0.000 A 
ATOM     16  C   UNL     1       1.237   9.261  19.188  0.00  0.00    +0.000 A 
BRANCH  15  17
ATOM     17  C   UNL     1      -0.038  11.520  19.232  0.00  0.00    +0.000 C 
ATOM     18  C   UNL     1      -0.550  12.686  20.000  0.00  0.00    +0.000 C 
ATOM     19  C   UNL     1       0.697  12.845  19.139  0.00  0.00    +0.000 C 
BRANCH  19  20
ATOM     20  C   UNL     1       1.935  13.307  19.898  0.00  0.00    +0.000 A 
ATOM     21  N   UNL     1       2.194  13.082  21.170  0.00  0.00    +0.000 NA
ATOM     22  N   UNL     1       3.338  13.766  21.511  0.00  0.00    +0.000 NA
ATOM     23  C   UNL     1       3.747  14.407  20.443  0.00  0.00    +0.000 A 
ATOM     24  N   UNL     1       2.909  14.138  19.407  0.00  0.00    +0.000 N 
ATOM     25  C   UNL     1       3.011  14.666  18.074  0.00  0.00    +0.000 C 
ENDBRANCH  19  20
ENDBRANCH  15  17
ENDBRANCH   8  11
BRANCH   5  26
ATOM     26  C   UNL     1       2.733   2.529  18.883  0.00  0.00    +0.000 C 
ATOM     27  F   UNL     1       2.947   2.595  20.223  0.00  0.00    +0.000 F 
ATOM     28  F   UNL     1       1.381   2.508  18.727  0.00  0.00    +0.000 F 
ATOM     29  F   UNL     1       3.174   1.304  18.490  0.00  0.00    +0.000 F 
ENDBRANCH   5  26
BRANCH   1  31
ATOM     30  C   UNL     1       7.386   4.823  15.871  0.00  0.00    +0.000 C 
ATOM     31  C   UNL     1       6.149   4.014  15.447  0.00  0.00    +0.000 C 
BRANCH  31  32
ATOM     32  N   UNL     1       5.786   4.248  14.035  0.00  0.00    +0.000 NA
ATOM     33  C   UNL     1       6.920   4.476  13.129  0.00  0.00    +0.000 C 
ATOM     34  C   UNL     1       6.797   3.471  11.990  0.00  0.00    +0.000 C 
ATOM     35  C   UNL     1       5.328   3.136  11.969  0.00  0.00    +0.000 C 
ATOM     36  F   UNL     1       4.653   4.105  11.295  0.00  0.00    +0.000 F 
ATOM     37  C   UNL     1       4.960   3.173  13.442  0.00  0.00    +0.000 C 
ENDBRANCH  31  32
ENDBRANCH   1  31
TORSDOF 6
ENDMDL
MODEL 7
REMARK VINA RESULT:      -9.6      2.986      9.477
REMARK  Name = 
REMARK  8 active torsions:
REMARK  status: ('A' for Active; 'I' for Inactive)
REMARK    1  A    between atoms: C_1  and  C_2
REMARK    2  A    between atoms: C_2  and  C_3
REMARK    3  A    between atoms: C_2  and  N_32
REMARK    4  A    between atoms: C_7  and  C_8
REMARK    5  A    between atoms: N_14  and  C_15
REMARK    6  A    between atoms: C_19  and  C_20
REMARK    7  A    between atoms: C_22  and  C_23
REMARK    8  A    between atoms: N_27  and  C_28
REMARK                            x       y       z     vdW  Elec       q    Type
REMARK                         _______ _______ _______ _____ _____    ______ ____
ROOT
ATOM      1  C   UNL     1       3.809   5.286  17.861  0.00  0.00    +0.000 A 
ATOM      2  C   UNL     1       3.365   6.612  17.932  0.00  0.00    +0.000 A 
ATOM      3  C   UNL     1       2.530   6.956  18.979  0.00  0.00    +0.000 A 
ATOM      4  C   UNL     1       2.119   6.053  19.956  0.00  0.00    +0.000 A 
ATOM      5  C   UNL     1       2.498   4.719  19.882  0.00  0.00    +0.000 A 
ATOM      6  C   UNL     1       3.345   4.349  18.820  0.00  0.00    +0.000 A 
ATOM      7  C   UNL     1       1.332   6.781  20.999  0.00  0.00    +0.000 C 
ATOM      8  N   UNL     1       1.264   8.141  20.485  0.00  0.00    +0.000 N 
ATOM      9  C   UNL     1       1.981   8.278  19.298  0.00  0.00    +0.000 C 
ATOM     10  O   UNL     1       2.202   9.245  18.591  0.00  0.00    +0.000 OA
ENDROOT
BRANCH   8  11
ATOM     11  C   UNL     1       0.585   9.181  21.173  0.00  0.00    +0.000 A 
ATOM     12  C   UNL     1       0.036   8.973  22.438  0.00  0.00    +0.000 A 
ATOM     13  C   UNL     1      -0.625  10.000  23.103  0.00  0.00    +0.000 A 
ATOM     14  C   UNL     1      -0.784  11.238  22.484  0.00  0.00    +0.000 A 
ATOM     15  C   UNL     1      -0.278  11.500  21.197  0.00  0.00    +0.000 A 
ATOM     16  C   UNL     1       0.450  10.460  20.593  0.00  0.00    +0.000 A 
BRANCH  15  17
ATOM     17  C   UNL     1      -0.523  12.865  20.584  0.00  0.00    +0.000 C 
ATOM     18  C   UNL     1      -1.103  13.091  19.233  0.00  0.00    +0.000 C 
ATOM     19  C   UNL     1      -1.862  13.570  20.464  0.00  0.00    +0.000 C 
BRANCH  19  20
ATOM     20  C   UNL     1      -3.264  12.989  20.608  0.00  0.00    +0.000 A 
ATOM     21  N   UNL     1      -3.990  12.465  19.641  0.00  0.00    +0.000 NA
ATOM     22  N   UNL     1      -5.238  12.172  20.140  0.00  0.00    +0.000 NA
ATOM     23  C   UNL     1      -5.253  12.535  21.400  0.00  0.00    +0.000 A 
ATOM     24  N   UNL     1      -4.036  13.037  21.740  0.00  0.00    +0.000 N 
ATOM     25  C   UNL     1      -3.663  13.557  23.026  0.00  0.00    +0.000 C 
ENDBRANCH  19  20
ENDBRANCH  15  17
ENDBRANCH   8  11
BRANCH   5  26
ATOM     26  C   UNL     1       2.068   3.679  20.883  0.00  0.00    +0.000 C 
ATOM     27  F   UNL     1       2.576   2.442  20.644  0.00  0.00    +0.000 F 
ATOM     28  F   UNL     1       2.457   3.998  22.148  0.00  0.00    +0.000 F 
ATOM     29  F   UNL     1       0.717   3.527  20.935  0.00  0.00    +0.000 F 
ENDBRANCH   5  26
BRANCH   1  31
ATOM     30  C   UNL     1       4.564   3.478  16.318  0.00  0.00    +0.000 C 
ATOM     31  C   UNL     1       4.876   4.889  16.842  0.00  0.00    +0.000 C 
BRANCH  31  32
ATOM     32  N   UNL     1       6.226   4.979  17.433  0.00  0.00    +0.000 NA
ATOM     33  C   UNL     1       7.078   6.042  16.884  0.00  0.00    +0.000 C 
ATOM     34  C   UNL     1       7.557   6.888  18.058  0.00  0.00    +0.000 C 
ATOM     35  C   UNL     1       7.464   5.949  19.233  0.00  0.00    +0.000 C 
ATOM     36  F   UNL     1       8.562   5.147  19.258  0.00  0.00    +0.000 F 
ATOM     37  C   UNL     1       6.227   5.132  18.905  0.00  0.00    +0.000 C 
ENDBRANCH  31  32
ENDBRANCH   1  31
TORSDOF 6
ENDMDL
MODEL 8
REMARK VINA RESULT:      -9.6      3.248      8.731
REMARK  Name = 
REMARK  8 active torsions:
REMARK  status: ('A' for Active; 'I' for Inactive)
REMARK    1  A    between atoms: C_1  and  C_2
REMARK    2  A    between atoms: C_2  and  C_3
REMARK    3  A    between atoms: C_2  and  N_32
REMARK    4  A    between atoms: C_7  and  C_8
REMARK    5  A    between atoms: N_14  and  C_15
REMARK    6  A    between atoms: C_19  and  C_20
REMARK    7  A    between atoms: C_22  and  C_23
REMARK    8  A    between atoms: N_27  and  C_28
REMARK                            x       y       z     vdW  Elec       q    Type
REMARK                         _______ _______ _______ _____ _____    ______ ____
ROOT
ATOM      1  C   UNL     1       4.412   4.841  18.267  0.00  0.00    +0.000 A 
ATOM      2  C   UNL     1       3.951   6.158  18.159  0.00  0.00    +0.000 A 
ATOM      3  C   UNL     1       2.965   6.568  19.038  0.00  0.00    +0.000 A 
ATOM      4  C   UNL     1       2.420   5.740  20.015  0.00  0.00    +0.000 A 
ATOM      5  C   UNL     1       2.817   4.412  20.110  0.00  0.00    +0.000 A 
ATOM      6  C   UNL     1       3.818   3.975  19.221  0.00  0.00    +0.000 A 
ATOM      7  C   UNL     1       1.479   6.533  20.865  0.00  0.00    +0.000 C 
ATOM      8  N   UNL     1       1.477   7.845  20.234  0.00  0.00    +0.000 N 
ATOM      9  C   UNL     1       2.363   7.900  19.159  0.00  0.00    +0.000 C 
ATOM     10  O   UNL     1       2.678   8.811  18.415  0.00  0.00    +0.000 OA
ENDROOT
BRANCH   8  11
ATOM     11  C   UNL     1       0.693   8.923  20.724  0.00  0.00    +0.000 A 
ATOM     12  C   UNL     1       0.446   9.076  22.088  0.00  0.00    +0.000 A 
ATOM     13  C   UNL     1      -0.322  10.137  22.555  0.00  0.00    +0.000 A 
ATOM     14  C   UNL     1      -0.892  11.032  21.652  0.00  0.00    +0.000 A 
ATOM     15  C   UNL     1      -0.704  10.913  20.262  0.00  0.00    +0.000 A 
ATOM     16  C   UNL     1       0.142   9.873  19.838  0.00  0.00    +0.000 A 
BRANCH  15  17
ATOM     17  C   UNL     1      -1.387  11.912  19.349  0.00  0.00    +0.000 C 
ATOM     18  C   UNL     1      -1.793  13.284  19.755  0.00  0.00    +0.000 C 
ATOM     19  C   UNL     1      -0.734  13.105  18.674  0.00  0.00    +0.000 C 
BRANCH  19  20
ATOM     20  C   UNL     1       0.604  13.766  18.985  0.00  0.00    +0.000 A 
ATOM     21  N   UNL     1       1.690  13.155  19.414  0.00  0.00    +0.000 NA
ATOM     22  N   UNL     1       2.643  14.106  19.699  0.00  0.00    +0.000 NA
ATOM     23  C   UNL     1       2.115  15.280  19.450  0.00  0.00    +0.000 A 
ATOM     24  N   UNL     1       0.847  15.115  18.988  0.00  0.00    +0.000 N 
ATOM     25  C   UNL     1      -0.065  16.164  18.623  0.00  0.00    +0.000 C 
ENDBRANCH  19  20
ENDBRANCH  15  17
ENDBRANCH   8  11
BRANCH   5  26
ATOM     26  C   UNL     1       2.252   3.448  21.119  0.00  0.00    +0.000 C 
ATOM     27  F   UNL     1       2.849   2.228  21.110  0.00  0.00    +0.000 F 
ATOM     28  F   UNL     1       2.381   3.910  22.393  0.00  0.00    +0.000 F 
ATOM     29  F   UNL     1       0.923   3.219  20.938  0.00  0.00    +0.000 F 
ENDBRANCH   5  26
BRANCH   1  31
ATOM     30  C   UNL     1       6.851   5.204  17.887  0.00  0.00    +0.000 C 
ATOM     31  C   UNL     1       5.624   4.385  17.455  0.00  0.00    +0.000 C 
BRANCH  31  32
ATOM     32  N   UNL     1       5.359   4.499  16.007  0.00  0.00    +0.000 NA
ATOM     33  C   UNL     1       6.018   5.630  15.339  0.00  0.00    +0.000 C 
ATOM     34  C   UNL     1       6.814   5.062  14.170  0.00  0.00    +0.000 C 
ATOM     35  C   UNL     1       6.114   3.764  13.861  0.00  0.00    +0.000 C 
ATOM     36  F   UNL     1       5.017   4.013  13.098  0.00  0.00    +0.000 F 
ATOM     37  C   UNL     1       5.694   3.280  15.238  0.00  0.00    +0.000 C 
ENDBRANCH  31  32
ENDBRANCH   1  31
TORSDOF 6
ENDMDL
MODEL 9
REMARK VINA RESULT:      -9.6      3.033      8.868
REMARK  Name = 
REMARK  8 active torsions:
REMARK  status: ('A' for Active; 'I' for Inactive)
REMARK    1  A    between atoms: C_1  and  C_2
REMARK    2  A    between atoms: C_2  and  C_3
REMARK    3  A    between atoms: C_2  and  N_32
REMARK    4  A    between atoms: C_7  and  C_8
REMARK    5  A    between atoms: N_14  and  C_15
REMARK    6  A    between atoms: C_19  and  C_20
REMARK    7  A    between atoms: C_22  and  C_23
REMARK    8  A    between atoms: N_27  and  C_28
REMARK                            x       y       z     vdW  Elec       q    Type
REMARK                         _______ _______ _______ _____ _____    ______ ____
ROOT
ATOM      1  C   UNL     1       4.266   4.881  18.308  0.00  0.00    +0.000 A 
ATOM      2  C   UNL     1       3.834   6.212  18.264  0.00  0.00    +0.000 A 
ATOM      3  C   UNL     1       2.852   6.600  19.156  0.00  0.00    +0.000 A 
ATOM      4  C   UNL     1       2.281   5.736  20.086  0.00  0.00    +0.000 A 
ATOM      5  C   UNL     1       2.648   4.396  20.117  0.00  0.00    +0.000 A 
ATOM      6  C   UNL     1       3.645   3.982  19.213  0.00  0.00    +0.000 A 
ATOM      7  C   UNL     1       1.351   6.506  20.969  0.00  0.00    +0.000 C 
ATOM      8  N   UNL     1       1.383   7.848  20.405  0.00  0.00    +0.000 N 
ATOM      9  C   UNL     1       2.278   7.937  19.341  0.00  0.00    +0.000 C 
ATOM     10  O   UNL     1       2.619   8.877  18.645  0.00  0.00    +0.000 OA
ENDROOT
BRANCH   8  11
ATOM     11  C   UNL     1       0.619   8.917  20.944  0.00  0.00    +0.000 A 
ATOM     12  C   UNL     1       0.104   8.857  22.239  0.00  0.00    +0.000 A 
ATOM     13  C   UNL     1      -0.641   9.911  22.755  0.00  0.00    +0.000 A 
ATOM     14  C   UNL     1      -0.918  11.021  21.959  0.00  0.00    +0.000 A 
ATOM     15  C   UNL     1      -0.452  11.127  20.635  0.00  0.00    +0.000 A 
ATOM     16  C   UNL     1       0.362  10.075  20.179  0.00  0.00    +0.000 A 
BRANCH  15  17
ATOM     17  C   UNL     1      -0.826  12.355  19.829  0.00  0.00    +0.000 C 
ATOM     18  C   UNL     1      -0.252  12.697  18.500  0.00  0.00    +0.000 C 
ATOM     19  C   UNL     1      -1.740  12.390  18.617  0.00  0.00    +0.000 C 
BRANCH  19  20
ATOM     20  C   UNL     1      -2.217  11.235  17.745  0.00  0.00    +0.000 A 
ATOM     21  N   UNL     1      -1.462  10.280  17.241  0.00  0.00    +0.000 NA
ATOM     22  N   UNL     1      -2.236   9.502  16.411  0.00  0.00    +0.000 NA
ATOM     23  C   UNL     1      -3.447  10.006  16.415  0.00  0.00    +0.000 A 
ATOM     24  N   UNL     1      -3.485  11.081  17.247  0.00  0.00    +0.000 N 
ATOM     25  C   UNL     1      -4.628  11.913  17.506  0.00  0.00    +0.000 C 
ENDBRANCH  19  20
ENDBRANCH  15  17
ENDBRANCH   8  11
BRANCH   5  26
ATOM     26  C   UNL     1       2.054   3.396  21.073  0.00  0.00    +0.000 C 
ATOM     27  F   UNL     1       2.495   2.125  20.884  0.00  0.00    +0.000 F 
ATOM     28  F   UNL     1       2.341   3.696  22.369  0.00  0.00    +0.000 F 
ATOM     29  F   UNL     1       0.697   3.339  20.995  0.00  0.00    +0.000 F 
ENDBRANCH   5  26
BRANCH   1  31
ATOM     30  C   UNL     1       6.688   5.297  17.876  0.00  0.00    +0.000 C 
ATOM     31  C   UNL     1       5.473   4.440  17.482  0.00  0.00    +0.000 C 
BRANCH  31  32
ATOM     32  N   UNL     1       5.179   4.520  16.038  0.00  0.00    +0.000 NA
ATOM     33  C   UNL     1       5.723   5.702  15.355  0.00  0.00    +0.000 C 
ATOM     34  C   UNL     1       6.551   5.201  14.177  0.00  0.00    +0.000 C 
ATOM     35  C   UNL     1       5.969   3.842  13.885  0.00  0.00    +0.000 C 
ATOM     36  F   UNL     1       4.842   3.984  13.137  0.00  0.00    +0.000 F 
ATOM     37  C   UNL     1       5.614   3.331  15.270  0.00  0.00    +0.000 C 
ENDBRANCH  31  32
ENDBRANCH   1  31
TORSDOF 6
ENDMDL
