MODEL 1
REMARK VINA RESULT:      -9.2      0.000      0.000
REMARK  Name = 
REMARK  7 active torsions:
REMARK  status: ('A' for Active; 'I' for Inactive)
REMARK    1  A    between atoms: C_1  and  N_2
REMARK    2  A    between atoms: C_6  and  C_7
REMARK    3  A    between atoms: C_7  and  C_8
REMARK    4  A    between atoms: C_8  and  C_9
REMARK    5  A    between atoms: C_13  and  N_14
REMARK    6  A    between atoms: C_15  and  C_17
REMARK    7  A    between atoms: C_23  and  C_24
REMARK                            x       y       z     vdW  Elec       q    Type
REMARK                         _______ _______ _______ _____ _____    ______ ____
ROOT
ATOM      1  N   UNL     1       7.057   7.516  17.038  0.00  0.00    +0.000 N 
ATOM      2  C   UNL     1       7.942   7.826  18.064  0.00  0.00    +0.000 C 
ATOM      3  O   UNL     1       8.462   7.030  18.836  0.00  0.00    +0.000 OA
ATOM      4  H   UNL     1       6.807   8.309  16.448  0.00  0.00    +0.000 HD
ENDROOT
BRANCH   2   5
ATOM      5  C   UNL     1       8.253   9.248  18.126  0.00  0.00    +0.000 A 
ATOM      6  N   UNL     1       7.600  10.176  17.453  0.00  0.00    +0.000 NA
ATOM      7  C   UNL     1       8.245  11.352  17.736  0.00  0.00    +0.000 A 
ATOM      8  C   UNL     1       7.952  12.636  17.267  0.00  0.00    +0.000 A 
ATOM      9  C   UNL     1       8.779  13.695  17.637  0.00  0.00    +0.000 A 
ATOM     10  C   UNL     1       9.895  13.472  18.445  0.00  0.00    +0.000 A 
ATOM     11  C   UNL     1      10.231  12.189  18.937  0.00  0.00    +0.000 A 
ATOM     12  C   UNL     1       9.341  11.152  18.576  0.00  0.00    +0.000 A 
ATOM     13  N   UNL     1       9.273   9.805  18.868  0.00  0.00    +0.000 N 
ATOM     14  H   UNL     1       9.879   9.278  19.485  0.00  0.00    +0.000 HD
BRANCH  11  15
ATOM     15  C   UNL     1      11.498  12.016  19.742  0.00  0.00    +0.000 C 
ATOM     16  F   UNL     1      12.248  13.153  19.828  0.00  0.00    +0.000 F 
ATOM     17  F   UNL     1      11.263  11.627  21.024  0.00  0.00    +0.000 F 
ATOM     18  F   UNL     1      12.323  11.072  19.211  0.00  0.00    +0.000 F 
ENDBRANCH  11  15
ENDBRANCH   2   5
BRANCH   1  23
ATOM     19  C   UNL     1       5.035   4.349  17.083  0.00  0.00    +0.000 A 
ATOM     20  C   UNL     1       5.587   3.718  15.951  0.00  0.00    +0.000 A 
ATOM     21  C   UNL     1       6.603   4.304  15.201  0.00  0.00    +0.000 A 
ATOM     22  C   UNL     1       7.100   5.556  15.552  0.00  0.00    +0.000 A 
ATOM     23  C   UNL     1       6.589   6.240  16.652  0.00  0.00    +0.000 A 
ATOM     24  C   UNL     1       5.573   5.622  17.415  0.00  0.00    +0.000 A 
BRANCH  19  25
ATOM     25  C   UNL     1       3.872   3.620  17.941  0.00  0.00    +0.000 C 
ATOM     26  C   UNL     1       4.210   3.328  19.437  0.00  0.00    +0.000 C 
ATOM     27  O   UNL     1       4.065   1.909  19.260  0.00  0.00    +0.000 OA
ATOM     28  C   UNL     1       3.745   2.074  17.862  0.00  0.00    +0.000 C 
BRANCH  25  29
ATOM     29  C   UNL     1       2.549   4.403  17.830  0.00  0.00    +0.000 C 
BRANCH  29  35
ATOM     30  C   UNL     1       0.977   3.854  20.551  0.00  0.00    +0.000 C 
ATOM     31  N   UNL     1       1.571   5.083  20.104  0.00  0.00    +0.000 N 
ATOM     32  C   UNL     1       1.500   6.268  20.777  0.00  0.00    +0.000 A 
ATOM     33  N   UNL     1       2.155   7.191  20.116  0.00  0.00    +0.000 NA
ATOM     34  N   UNL     1       2.652   6.609  18.978  0.00  0.00    +0.000 NA
ATOM     35  C   UNL     1       2.287   5.341  18.961  0.00  0.00    +0.000 A 
ENDBRANCH  29  35
ENDBRANCH  25  29
ENDBRANCH  19  25
ENDBRANCH   1  23
TORSDOF 6
ENDMDL
MODEL 2
REMARK VINA RESULT:      -9.1      5.413      8.381
REMARK  Name = 
REMARK  7 active torsions:
REMARK  status: ('A' for Active; 'I' for Inactive)
REMARK    1  A    between atoms: C_1  and  N_2
REMARK    2  A    between atoms: C_6  and  C_7
REMARK    3  A    between atoms: C_7  and  C_8
REMARK    4  A    between atoms: C_8  and  C_9
REMARK    5  A    between atoms: C_13  and  N_14
REMARK    6  A    between atoms: C_15  and  C_17
REMARK    7  A    between atoms: C_23  and  C_24
REMARK                            x       y       z     vdW  Elec       q    Type
REMARK                         _______ _______ _______ _____ _____    ______ ____
ROOT
ATOM      1  N   UNL     1       2.066   6.772  19.154  0.00  0.00    +0.000 N 
ATOM      2  C   UNL     1       1.994   8.115  18.804  0.00  0.00    +0.000 C 
ATOM      3  O   UNL     1       2.437   8.619  17.779  0.00  0.00    +0.000 OA
ATOM      4  H   UNL     1       1.555   6.535  20.005  0.00  0.00    +0.000 HD
ENDROOT
BRANCH   2   5
ATOM      5  C   UNL     1       1.272   8.914  19.785  0.00  0.00    +0.000 A 
ATOM      6  N   UNL     1       0.992   8.505  21.006  0.00  0.00    +0.000 NA
ATOM      7  C   UNL     1       0.255   9.515  21.569  0.00  0.00    +0.000 A 
ATOM      8  C   UNL     1      -0.298   9.575  22.852  0.00  0.00    +0.000 A 
ATOM      9  C   UNL     1      -1.069  10.681  23.204  0.00  0.00    +0.000 A 
ATOM     10  C   UNL     1      -1.305  11.701  22.282  0.00  0.00    +0.000 A 
ATOM     11  C   UNL     1      -0.771  11.678  20.971  0.00  0.00    +0.000 A 
ATOM     12  C   UNL     1       0.043  10.562  20.671  0.00  0.00    +0.000 A 
ATOM     13  N   UNL     1       0.771  10.180  19.563  0.00  0.00    +0.000 N 
ATOM     14  H   UNL     1       0.901  10.699  18.703  0.00  0.00    +0.000 HD
BRANCH  11  15
ATOM     15  C   UNL     1      -1.135  12.781  20.006  0.00  0.00    +0.000 C 
ATOM     16  F   UNL     1      -1.584  12.325  18.801  0.00  0.00    +0.000 F 
ATOM     17  F   UNL     1      -2.112  13.601  20.480  0.00  0.00    +0.000 F 
ATOM     18  F   UNL     1      -0.077  13.589  19.722  0.00  0.00    +0.000 F 
ENDBRANCH  11  15
ENDBRANCH   2   5
BRANCH   1  23
ATOM     19  C   UNL     1       4.625   4.783  17.254  0.00  0.00    +0.000 A 
ATOM     20  C   UNL     1       3.846   3.647  16.956  0.00  0.00    +0.000 A 
ATOM     21  C   UNL     1       2.515   3.540  17.353  0.00  0.00    +0.000 A 
ATOM     22  C   UNL     1       1.915   4.567  18.075  0.00  0.00    +0.000 A 
ATOM     23  C   UNL     1       2.633   5.711  18.414  0.00  0.00    +0.000 A 
ATOM     24  C   UNL     1       3.975   5.813  17.987  0.00  0.00    +0.000 A 
BRANCH  19  25
ATOM     25  C   UNL     1       6.161   4.876  16.752  0.00  0.00    +0.000 C 
ATOM     26  C   UNL     1       7.250   4.659  17.849  0.00  0.00    +0.000 C 
ATOM     27  O   UNL     1       7.793   5.977  17.662  0.00  0.00    +0.000 OA
ATOM     28  C   UNL     1       6.824   6.276  16.636  0.00  0.00    +0.000 C 
BRANCH  25  29
ATOM     29  C   UNL     1       6.398   3.927  15.562  0.00  0.00    +0.000 C 
BRANCH  29  35
ATOM     30  C   UNL     1       5.790   3.335  12.486  0.00  0.00    +0.000 C 
ATOM     31  N   UNL     1       6.725   4.274  13.039  0.00  0.00    +0.000 N 
ATOM     32  C   UNL     1       7.574   5.047  12.302  0.00  0.00    +0.000 A 
ATOM     33  N   UNL     1       8.285   5.806  13.100  0.00  0.00    +0.000 NA
ATOM     34  N   UNL     1       7.911   5.517  14.387  0.00  0.00    +0.000 NA
ATOM     35  C   UNL     1       6.981   4.580  14.353  0.00  0.00    +0.000 A 
ENDBRANCH  29  35
ENDBRANCH  25  29
ENDBRANCH  19  25
ENDBRANCH   1  23
TORSDOF 6
ENDMDL
MODEL 3
REMARK VINA RESULT:      -8.8      4.968      7.601
REMARK  Name = 
REMARK  7 active torsions:
REMARK  status: ('A' for Active; 'I' for Inactive)
REMARK    1  A    between atoms: C_1  and  N_2
REMARK    2  A    between atoms: C_6  and  C_7
REMARK    3  A    between atoms: C_7  and  C_8
REMARK    4  A    between atoms: C_8  and  C_9
REMARK    5  A    between atoms: C_13  and  N_14
REMARK    6  A    between atoms: C_15  and  C_17
REMARK    7  A    between atoms: C_23  and  C_24
REMARK                            x       y       z     vdW  Elec       q    Type
REMARK                         _______ _______ _______ _____ _____    ______ ____
ROOT
ATOM      1  N   UNL     1       2.135   6.937  18.629  0.00  0.00    +0.000 N 
ATOM      2  C   UNL     1       2.275   8.195  18.057  0.00  0.00    +0.000 C 
ATOM      3  O   UNL     1       2.867   8.454  17.016  0.00  0.00    +0.000 OA
ATOM      4  H   UNL     1       1.527   6.917  19.449  0.00  0.00    +0.000 HD
ENDROOT
BRANCH   2   5
ATOM      5  C   UNL     1       1.590   9.236  18.812  0.00  0.00    +0.000 A 
ATOM      6  N   UNL     1       1.581  10.509  18.471  0.00  0.00    +0.000 NA
ATOM      7  C   UNL     1       0.894  11.149  19.470  0.00  0.00    +0.000 A 
ATOM      8  C   UNL     1       0.609  12.512  19.592  0.00  0.00    +0.000 A 
ATOM      9  C   UNL     1      -0.059  12.963  20.728  0.00  0.00    +0.000 A 
ATOM     10  C   UNL     1      -0.418  12.071  21.739  0.00  0.00    +0.000 A 
ATOM     11  C   UNL     1      -0.144  10.685  21.660  0.00  0.00    +0.000 A 
ATOM     12  C   UNL     1       0.493  10.263  20.471  0.00  0.00    +0.000 A 
ATOM     13  N   UNL     1       0.889   9.035  19.983  0.00  0.00    +0.000 N 
ATOM     14  H   UNL     1       0.741   8.127  20.407  0.00  0.00    +0.000 HD
BRANCH  11  15
ATOM     15  C   UNL     1      -0.494   9.796  22.830  0.00  0.00    +0.000 C 
ATOM     16  F   UNL     1      -1.473  10.310  23.631  0.00  0.00    +0.000 F 
ATOM     17  F   UNL     1      -0.933   8.566  22.450  0.00  0.00    +0.000 F 
ATOM     18  F   UNL     1       0.571   9.575  23.648  0.00  0.00    +0.000 F 
ENDBRANCH  11  15
ENDBRANCH   2   5
BRANCH   1  23
ATOM     19  C   UNL     1       4.384   4.469  16.906  0.00  0.00    +0.000 A 
ATOM     20  C   UNL     1       3.642   3.294  17.138  0.00  0.00    +0.000 A 
ATOM     21  C   UNL     1       2.431   3.309  17.827  0.00  0.00    +0.000 A 
ATOM     22  C   UNL     1       1.921   4.506  18.319  0.00  0.00    +0.000 A 
ATOM     23  C   UNL     1       2.611   5.701  18.137  0.00  0.00    +0.000 A 
ATOM     24  C   UNL     1       3.827   5.672  17.419  0.00  0.00    +0.000 A 
BRANCH  19  25
ATOM     25  C   UNL     1       5.774   4.409  16.080  0.00  0.00    +0.000 C 
ATOM     26  C   UNL     1       5.940   5.471  14.948  0.00  0.00    +0.000 C 
ATOM     27  O   UNL     1       6.047   4.463  13.929  0.00  0.00    +0.000 OA
ATOM     28  C   UNL     1       5.899   3.406  14.900  0.00  0.00    +0.000 C 
BRANCH  25  29
ATOM     29  C   UNL     1       6.976   4.455  17.043  0.00  0.00    +0.000 C 
BRANCH  29  35
ATOM     30  C   UNL     1       7.979   5.570  19.859  0.00  0.00    +0.000 C 
ATOM     31  N   UNL     1       7.832   6.288  18.624  0.00  0.00    +0.000 N 
ATOM     32  C   UNL     1       8.052   7.626  18.475  0.00  0.00    +0.000 A 
ATOM     33  N   UNL     1       7.847   7.971  17.227  0.00  0.00    +0.000 NA
ATOM     34  N   UNL     1       7.468   6.844  16.544  0.00  0.00    +0.000 NA
ATOM     35  C   UNL     1       7.442   5.830  17.389  0.00  0.00    +0.000 A 
ENDBRANCH  29  35
ENDBRANCH  25  29
ENDBRANCH  19  25
ENDBRANCH   1  23
TORSDOF 6
ENDMDL
MODEL 4
REMARK VINA RESULT:      -8.7      5.193      8.195
REMARK  Name = 
REMARK  7 active torsions:
REMARK  status: ('A' for Active; 'I' for Inactive)
REMARK    1  A    between atoms: C_1  and  N_2
REMARK    2  A    between atoms: C_6  and  C_7
REMARK    3  A    between atoms: C_7  and  C_8
REMARK    4  A    between atoms: C_8  and  C_9
REMARK    5  A    between atoms: C_13  and  N_14
REMARK    6  A    between atoms: C_15  and  C_17
REMARK    7  A    between atoms: C_23  and  C_24
REMARK                            x       y       z     vdW  Elec       q    Type
REMARK                         _______ _______ _______ _____ _____    ______ ____
ROOT
ATOM      1  N   UNL     1       2.032   6.681  18.968  0.00  0.00    +0.000 N 
ATOM      2  C   UNL     1       1.834   6.778  20.340  0.00  0.00    +0.000 C 
ATOM      3  O   UNL     1       2.151   5.942  21.177  0.00  0.00    +0.000 OA
ATOM      4  H   UNL     1       1.781   7.523  18.450  0.00  0.00    +0.000 HD
ENDROOT
BRANCH   2   5
ATOM      5  C   UNL     1       1.222   8.041  20.732  0.00  0.00    +0.000 A 
ATOM      6  N   UNL     1       0.771   8.298  21.944  0.00  0.00    +0.000 NA
ATOM      7  C   UNL     1       0.220   9.550  21.870  0.00  0.00    +0.000 A 
ATOM      8  C   UNL     1      -0.403  10.285  22.884  0.00  0.00    +0.000 A 
ATOM      9  C   UNL     1      -0.952  11.528  22.576  0.00  0.00    +0.000 A 
ATOM     10  C   UNL     1      -0.901  12.021  21.272  0.00  0.00    +0.000 A 
ATOM     11  C   UNL     1      -0.287  11.309  20.215  0.00  0.00    +0.000 A 
ATOM     12  C   UNL     1       0.298  10.074  20.579  0.00  0.00    +0.000 A 
ATOM     13  N   UNL     1       1.012   9.115  19.892  0.00  0.00    +0.000 N 
ATOM     14  H   UNL     1       1.311   9.146  18.924  0.00  0.00    +0.000 HD
BRANCH  11  15
ATOM     15  C   UNL     1      -0.341  11.873  18.815  0.00  0.00    +0.000 C 
ATOM     16  F   UNL     1      -1.290  12.842  18.654  0.00  0.00    +0.000 F 
ATOM     17  F   UNL     1       0.834  12.435  18.422  0.00  0.00    +0.000 F 
ATOM     18  F   UNL     1      -0.628  10.921  17.884  0.00  0.00    +0.000 F 
ENDBRANCH  11  15
ENDBRANCH   2   5
BRANCH   1  23
ATOM     19  C   UNL     1       4.705   4.748  17.170  0.00  0.00    +0.000 A 
ATOM     20  C   UNL     1       3.964   3.595  16.845  0.00  0.00    +0.000 A 
ATOM     21  C   UNL     1       2.622   3.457  17.192  0.00  0.00    +0.000 A 
ATOM     22  C   UNL     1       1.972   4.471  17.889  0.00  0.00    +0.000 A 
ATOM     23  C   UNL     1       2.651   5.632  18.252  0.00  0.00    +0.000 A 
ATOM     24  C   UNL     1       4.005   5.764  17.875  0.00  0.00    +0.000 A 
BRANCH  19  25
ATOM     25  C   UNL     1       6.256   4.876  16.726  0.00  0.00    +0.000 C 
ATOM     26  C   UNL     1       7.307   4.714  17.869  0.00  0.00    +0.000 C 
ATOM     27  O   UNL     1       7.820   6.044  17.674  0.00  0.00    +0.000 OA
ATOM     28  C   UNL     1       6.884   6.292  16.604  0.00  0.00    +0.000 C 
BRANCH  25  29
ATOM     29  C   UNL     1       6.568   3.909  15.567  0.00  0.00    +0.000 C 
BRANCH  29  35
ATOM     30  C   UNL     1       5.669   3.358  12.556  0.00  0.00    +0.000 C 
ATOM     31  N   UNL     1       6.662   4.283  13.029  0.00  0.00    +0.000 N 
ATOM     32  C   UNL     1       7.445   5.057  12.224  0.00  0.00    +0.000 A 
ATOM     33  N   UNL     1       8.234   5.801  12.960  0.00  0.00    +0.000 NA
ATOM     34  N   UNL     1       7.979   5.500  14.273  0.00  0.00    +0.000 NA
ATOM     35  C   UNL     1       7.042   4.572  14.316  0.00  0.00    +0.000 A 
ENDBRANCH  29  35
ENDBRANCH  25  29
ENDBRANCH  19  25
ENDBRANCH   1  23
TORSDOF 6
ENDMDL
MODEL 5
REMARK VINA RESULT:      -8.7      7.213     10.207
REMARK  Name = 
REMARK  7 active torsions:
REMARK  status: ('A' for Active; 'I' for Inactive)
REMARK    1  A    between atoms: C_1  and  N_2
REMARK    2  A    between atoms: C_6  and  C_7
REMARK    3  A    between atoms: C_7  and  C_8
REMARK    4  A    between atoms: C_8  and  C_9
REMARK    5  A    between atoms: C_13  and  N_14
REMARK    6  A    between atoms: C_15  and  C_17
REMARK    7  A    between atoms: C_23  and  C_24
REMARK                            x       y       z     vdW  Elec       q    Type
REMARK                         _______ _______ _______ _____ _____    ______ ____
ROOT
ATOM      1  N   UNL     1       0.453   9.111  18.645  0.00  0.00    +0.000 N 
ATOM      2  C   UNL     1       1.737   9.218  18.125  0.00  0.00    +0.000 C 
ATOM      3  O   UNL     1       2.236  10.222  17.634  0.00  0.00    +0.000 OA
ATOM      4  H   UNL     1       0.257   8.215  19.093  0.00  0.00    +0.000 HD
ENDROOT
BRANCH   2   5
ATOM      5  C   UNL     1       2.501   7.984  18.257  0.00  0.00    +0.000 A 
ATOM      6  N   UNL     1       3.490   7.641  17.456  0.00  0.00    +0.000 NA
ATOM      7  C   UNL     1       3.886   6.398  17.878  0.00  0.00    +0.000 A 
ATOM      8  C   UNL     1       4.896   5.585  17.355  0.00  0.00    +0.000 A 
ATOM      9  C   UNL     1       5.096   4.320  17.903  0.00  0.00    +0.000 A 
ATOM     10  C   UNL     1       4.284   3.862  18.942  0.00  0.00    +0.000 A 
ATOM     11  C   UNL     1       3.246   4.648  19.496  0.00  0.00    +0.000 A 
ATOM     12  C   UNL     1       3.108   5.941  18.943  0.00  0.00    +0.000 A 
ATOM     13  N   UNL     1       2.281   7.012  19.211  0.00  0.00    +0.000 N 
ATOM     14  H   UNL     1       1.590   7.087  19.948  0.00  0.00    +0.000 HD
BRANCH  11  15
ATOM     15  C   UNL     1       2.361   4.053  20.566  0.00  0.00    +0.000 C 
ATOM     16  F   UNL     1       1.044   3.990  20.210  0.00  0.00    +0.000 F 
ATOM     17  F   UNL     1       2.716   2.785  20.905  0.00  0.00    +0.000 F 
ATOM     18  F   UNL     1       2.394   4.771  21.722  0.00  0.00    +0.000 F 
ENDBRANCH  11  15
ENDBRANCH   2   5
BRANCH   1  23
ATOM     19  C   UNL     1      -1.654  11.840  20.137  0.00  0.00    +0.000 A 
ATOM     20  C   UNL     1      -2.450  12.144  19.015  0.00  0.00    +0.000 A 
ATOM     21  C   UNL     1      -2.312  11.466  17.807  0.00  0.00    +0.000 A 
ATOM     22  C   UNL     1      -1.361  10.459  17.673  0.00  0.00    +0.000 A 
ATOM     23  C   UNL     1      -0.533  10.119  18.740  0.00  0.00    +0.000 A 
ATOM     24  C   UNL     1      -0.698  10.802  19.964  0.00  0.00    +0.000 A 
BRANCH  19  25
ATOM     25  C   UNL     1      -1.864  12.638  21.530  0.00  0.00    +0.000 C 
ATOM     26  C   UNL     1      -0.597  13.344  22.108  0.00  0.00    +0.000 C 
ATOM     27  O   UNL     1      -0.627  12.555  23.310  0.00  0.00    +0.000 OA
ATOM     28  C   UNL     1      -1.799  11.842  22.863  0.00  0.00    +0.000 C 
BRANCH  25  29
ATOM     29  C   UNL     1      -3.030  13.638  21.408  0.00  0.00    +0.000 C 
BRANCH  29  35
ATOM     30  C   UNL     1      -3.846  14.677  24.312  0.00  0.00    +0.000 C 
ATOM     31  N   UNL     1      -4.536  13.726  23.485  0.00  0.00    +0.000 N 
ATOM     32  C   UNL     1      -5.661  13.050  23.856  0.00  0.00    +0.000 A 
ATOM     33  N   UNL     1      -6.052  12.272  22.877  0.00  0.00    +0.000 NA
ATOM     34  N   UNL     1      -5.159  12.425  21.848  0.00  0.00    +0.000 NA
ATOM     35  C   UNL     1      -4.233  13.289  22.219  0.00  0.00    +0.000 A 
ENDBRANCH  29  35
ENDBRANCH  25  29
ENDBRANCH  19  25
ENDBRANCH   1  23
TORSDOF 6
ENDMDL
MODEL 6
REMARK VINA RESULT:      -8.5      6.633      9.931
REMARK  Name = 
REMARK  7 active torsions:
REMARK  status: ('A' for Active; 'I' for Inactive)
REMARK    1  A    between atoms: C_1  and  N_2
REMARK    2  A    between atoms: C_6  and  C_7
REMARK    3  A    between atoms: C_7  and  C_8
REMARK    4  A    between atoms: C_8  and  C_9
REMARK    5  A    between atoms: C_13  and  N_14
REMARK    6  A    between atoms: C_15  and  C_17
REMARK    7  A    between atoms: C_23  and  C_24
REMARK                            x       y       z     vdW  Elec       q    Type
REMARK                         _______ _______ _______ _____ _____    ______ ____
ROOT
ATOM      1  N   UNL     1       1.416   8.453  20.249  0.00  0.00    +0.000 N 
ATOM      2  C   UNL     1       1.725   8.610  18.903  0.00  0.00    +0.000 C 
ATOM      3  O   UNL     1       1.408   9.557  18.194  0.00  0.00    +0.000 OA
ATOM      4  H   UNL     1       1.850   7.639  20.685  0.00  0.00    +0.000 HD
ENDROOT
BRANCH   2   5
ATOM      5  C   UNL     1       2.538   7.518  18.383  0.00  0.00    +0.000 A 
ATOM      6  N   UNL     1       3.584   7.687  17.598  0.00  0.00    +0.000 NA
ATOM      7  C   UNL     1       4.013   6.423  17.286  0.00  0.00    +0.000 A 
ATOM      8  C   UNL     1       5.088   6.048  16.475  0.00  0.00    +0.000 A 
ATOM      9  C   UNL     1       5.316   4.693  16.241  0.00  0.00    +0.000 A 
ATOM     10  C   UNL     1       4.471   3.728  16.790  0.00  0.00    +0.000 A 
ATOM     11  C   UNL     1       3.369   4.064  17.612  0.00  0.00    +0.000 A 
ATOM     12  C   UNL     1       3.201   5.445  17.861  0.00  0.00    +0.000 A 
ATOM     13  N   UNL     1       2.311   6.178  18.618  0.00  0.00    +0.000 N 
ATOM     14  H   UNL     1       1.578   5.824  19.222  0.00  0.00    +0.000 HD
BRANCH  11  15
ATOM     15  C   UNL     1       2.455   2.966  18.105  0.00  0.00    +0.000 C 
ATOM     16  F   UNL     1       1.129   3.275  18.003  0.00  0.00    +0.000 F 
ATOM     17  F   UNL     1       2.618   1.796  17.431  0.00  0.00    +0.000 F 
ATOM     18  F   UNL     1       2.663   2.673  19.418  0.00  0.00    +0.000 F 
ENDBRANCH  11  15
ENDBRANCH   2   5
BRANCH   1  23
ATOM     19  C   UNL     1       0.026  11.681  21.578  0.00  0.00    +0.000 A 
ATOM     20  C   UNL     1      -0.694  11.175  22.679  0.00  0.00    +0.000 A 
ATOM     21  C   UNL     1      -0.714   9.817  22.987  0.00  0.00    +0.000 A 
ATOM     22  C   UNL     1      -0.017   8.909  22.195  0.00  0.00    +0.000 A 
ATOM     23  C   UNL     1       0.703   9.342  21.085  0.00  0.00    +0.000 A 
ATOM     24  C   UNL     1       0.730  10.724  20.798  0.00  0.00    +0.000 A 
BRANCH  19  25
ATOM     25  C   UNL     1       0.041  13.270  21.270  0.00  0.00    +0.000 C 
ATOM     26  C   UNL     1       1.441  13.959  21.315  0.00  0.00    +0.000 C 
ATOM     27  O   UNL     1       1.049  14.832  22.388  0.00  0.00    +0.000 OA
ATOM     28  C   UNL     1      -0.274  14.257  22.427  0.00  0.00    +0.000 C 
BRANCH  25  29
ATOM     29  C   UNL     1      -0.663  13.567  19.932  0.00  0.00    +0.000 C 
BRANCH  29  35
ATOM     30  C   UNL     1      -1.673  11.299  17.929  0.00  0.00    +0.000 C 
ATOM     31  N   UNL     1      -2.439  12.025  18.903  0.00  0.00    +0.000 N 
ATOM     32  C   UNL     1      -3.784  11.892  19.086  0.00  0.00    +0.000 A 
ATOM     33  N   UNL     1      -4.178  12.679  20.058  0.00  0.00    +0.000 NA
ATOM     34  N   UNL     1      -3.075  13.357  20.511  0.00  0.00    +0.000 NA
ATOM     35  C   UNL     1      -2.028  12.976  19.805  0.00  0.00    +0.000 A 
ENDBRANCH  29  35
ENDBRANCH  25  29
ENDBRANCH  19  25
ENDBRANCH   1  23
TORSDOF 6
ENDMDL
MODEL 7
REMARK VINA RESULT:      -8.5      6.592      9.667
REMARK  Name = 
REMARK  7 active torsions:
REMARK  status: ('A' for Active; 'I' for Inactive)
REMARK    1  A    between atoms: C_1  and  N_2
REMARK    2  A    between atoms: C_6  and  C_7
REMARK    3  A    between atoms: C_7  and  C_8
REMARK    4  A    between atoms: C_8  and  C_9
REMARK    5  A    between atoms: C_13  and  N_14
REMARK    6  A    between atoms: C_15  and  C_17
REMARK    7  A    between atoms: C_23  and  C_24
REMARK                            x       y       z     vdW  Elec       q    Type
REMARK                         _______ _______ _______ _____ _____    ______ ____
ROOT
ATOM      1  N   UNL     1       1.148   9.133  17.955  0.00  0.00    +0.000 N 
ATOM      2  C   UNL     1       1.757   8.339  18.919  0.00  0.00    +0.000 C 
ATOM      3  O   UNL     1       1.561   8.390  20.127  0.00  0.00    +0.000 OA
ATOM      4  H   UNL     1       1.377   8.873  16.995  0.00  0.00    +0.000 HD
ENDROOT
BRANCH   2   5
ATOM      5  C   UNL     1       2.667   7.356  18.344  0.00  0.00    +0.000 A 
ATOM      6  N   UNL     1       3.627   7.652  17.491  0.00  0.00    +0.000 NA
ATOM      7  C   UNL     1       4.194   6.451  17.151  0.00  0.00    +0.000 A 
ATOM      8  C   UNL     1       5.251   6.209  16.268  0.00  0.00    +0.000 A 
ATOM      9  C   UNL     1       5.636   4.894  16.020  0.00  0.00    +0.000 A 
ATOM     10  C   UNL     1       4.961   3.833  16.625  0.00  0.00    +0.000 A 
ATOM     11  C   UNL     1       3.883   4.031  17.519  0.00  0.00    +0.000 A 
ATOM     12  C   UNL     1       3.555   5.381  17.779  0.00  0.00    +0.000 A 
ATOM     13  N   UNL     1       2.631   6.001  18.594  0.00  0.00    +0.000 N 
ATOM     14  H   UNL     1       1.992   5.560  19.246  0.00  0.00    +0.000 HD
BRANCH  11  15
ATOM     15  C   UNL     1       3.153   2.830  18.073  0.00  0.00    +0.000 C 
ATOM     16  F   UNL     1       2.335   2.223  17.164  0.00  0.00    +0.000 F 
ATOM     17  F   UNL     1       3.992   1.859  18.524  0.00  0.00    +0.000 F 
ATOM     18  F   UNL     1       2.354   3.152  19.127  0.00  0.00    +0.000 F 
ENDBRANCH  11  15
ENDBRANCH   2   5
BRANCH   1  23
ATOM     19  C   UNL     1      -0.365  12.416  18.980  0.00  0.00    +0.000 A 
ATOM     20  C   UNL     1      -1.689  12.192  18.553  0.00  0.00    +0.000 A 
ATOM     21  C   UNL     1      -2.081  10.995  17.959  0.00  0.00    +0.000 A 
ATOM     22  C   UNL     1      -1.155   9.976  17.761  0.00  0.00    +0.000 A 
ATOM     23  C   UNL     1       0.173  10.138  18.147  0.00  0.00    +0.000 A 
ATOM     24  C   UNL     1       0.550  11.350  18.766  0.00  0.00    +0.000 A 
BRANCH  19  25
ATOM     25  C   UNL     1       0.042  13.814  19.687  0.00  0.00    +0.000 C 
ATOM     26  C   UNL     1      -0.065  15.087  18.790  0.00  0.00    +0.000 C 
ATOM     27  O   UNL     1       1.340  15.369  18.913  0.00  0.00    +0.000 OA
ATOM     28  C   UNL     1       1.542  14.210  19.749  0.00  0.00    +0.000 C 
BRANCH  25  29
ATOM     29  C   UNL     1      -0.751  14.008  20.995  0.00  0.00    +0.000 C 
BRANCH  29  35
ATOM     30  C   UNL     1      -3.410  12.701  22.179  0.00  0.00    +0.000 C 
ATOM     31  N   UNL     1      -2.054  12.259  22.350  0.00  0.00    +0.000 N 
ATOM     32  C   UNL     1      -1.675  11.202  23.125  0.00  0.00    +0.000 A 
ATOM     33  N   UNL     1      -0.375  11.049  23.058  0.00  0.00    +0.000 NA
ATOM     34  N   UNL     1       0.115  12.032  22.238  0.00  0.00    +0.000 NA
ATOM     35  C   UNL     1      -0.895  12.774  21.822  0.00  0.00    +0.000 A 
ENDBRANCH  29  35
ENDBRANCH  25  29
ENDBRANCH  19  25
ENDBRANCH   1  23
TORSDOF 6
ENDMDL
MODEL 8
REMARK VINA RESULT:      -8.5      4.872      7.910
REMARK  Name = 
REMARK  7 active torsions:
REMARK  status: ('A' for Active; 'I' for Inactive)
REMARK    1  A    between atoms: C_1  and  N_2
REMARK    2  A    between atoms: C_6  and  C_7
REMARK    3  A    between atoms: C_7  and  C_8
REMARK    4  A    between atoms: C_8  and  C_9
REMARK    5  A    between atoms: C_13  and  N_14
REMARK    6  A    between atoms: C_15  and  C_17
REMARK    7  A    between atoms: C_23  and  C_24
REMARK                            x       y       z     vdW  Elec       q    Type
REMARK                         _______ _______ _______ _____ _____    ______ ____
ROOT
ATOM      1  N   UNL     1       2.208   6.239  19.417  0.00  0.00    +0.000 N 
ATOM      2  C   UNL     1       2.286   7.570  19.024  0.00  0.00    +0.000 C 
ATOM      3  O   UNL     1       2.866   7.998  18.034  0.00  0.00    +0.000 OA
ATOM      4  H   UNL     1       1.600   6.076  20.221  0.00  0.00    +0.000 HD
ENDROOT
BRANCH   2   5
ATOM      5  C   UNL     1       1.547   8.461  19.908  0.00  0.00    +0.000 A 
ATOM      6  N   UNL     1       1.308   8.207  21.180  0.00  0.00    +0.000 NA
ATOM      7  C   UNL     1       0.537   9.250  21.622  0.00  0.00    +0.000 A 
ATOM      8  C   UNL     1       0.006   9.457  22.899  0.00  0.00    +0.000 A 
ATOM      9  C   UNL     1      -0.808  10.566  23.120  0.00  0.00    +0.000 A 
ATOM     10  C   UNL     1      -1.108  11.443  22.077  0.00  0.00    +0.000 A 
ATOM     11  C   UNL     1      -0.599  11.268  20.769  0.00  0.00    +0.000 A 
ATOM     12  C   UNL     1       0.260  10.158  20.598  0.00  0.00    +0.000 A 
ATOM     13  N   UNL     1       0.984   9.663  19.534  0.00  0.00    +0.000 N 
ATOM     14  H   UNL     1       1.074  10.068  18.609  0.00  0.00    +0.000 HD
BRANCH  11  15
ATOM     15  C   UNL     1      -1.031  12.216  19.675  0.00  0.00    +0.000 C 
ATOM     16  F   UNL     1      -0.666  11.808  18.425  0.00  0.00    +0.000 F 
ATOM     17  F   UNL     1      -2.379  12.396  19.630  0.00  0.00    +0.000 F 
ATOM     18  F   UNL     1      -0.495  13.459  19.827  0.00  0.00    +0.000 F 
ENDBRANCH  11  15
ENDBRANCH   2   5
BRANCH   1  23
ATOM     19  C   UNL     1       4.462   4.190  17.218  0.00  0.00    +0.000 A 
ATOM     20  C   UNL     1       3.895   2.920  17.442  0.00  0.00    +0.000 A 
ATOM     21  C   UNL     1       2.796   2.739  18.278  0.00  0.00    +0.000 A 
ATOM     22  C   UNL     1       2.227   3.828  18.932  0.00  0.00    +0.000 A 
ATOM     23  C   UNL     1       2.748   5.108  18.765  0.00  0.00    +0.000 A 
ATOM     24  C   UNL     1       3.850   5.278  17.898  0.00  0.00    +0.000 A 
BRANCH  19  25
ATOM     25  C   UNL     1       5.725   4.358  16.220  0.00  0.00    +0.000 C 
ATOM     26  C   UNL     1       5.634   5.537  15.200  0.00  0.00    +0.000 C 
ATOM     27  O   UNL     1       5.692   4.650  14.070  0.00  0.00    +0.000 OA
ATOM     28  C   UNL     1       5.776   3.494  14.930  0.00  0.00    +0.000 C 
BRANCH  25  29
ATOM     29  C   UNL     1       7.039   4.437  17.020  0.00  0.00    +0.000 C 
BRANCH  29  35
ATOM     30  C   UNL     1       7.947   5.575  19.859  0.00  0.00    +0.000 C 
ATOM     31  N   UNL     1       7.815   6.289  18.620  0.00  0.00    +0.000 N 
ATOM     32  C   UNL     1       8.010   7.632  18.475  0.00  0.00    +0.000 A 
ATOM     33  N   UNL     1       7.828   7.971  17.222  0.00  0.00    +0.000 NA
ATOM     34  N   UNL     1       7.491   6.836  16.532  0.00  0.00    +0.000 NA
ATOM     35  C   UNL     1       7.466   5.822  17.376  0.00  0.00    +0.000 A 
ENDBRANCH  29  35
ENDBRANCH  25  29
ENDBRANCH  19  25
ENDBRANCH   1  23
TORSDOF 6
ENDMDL
MODEL 9
REMARK VINA RESULT:      -8.5      6.321      9.473
REMARK  Name = 
REMARK  7 active torsions:
REMARK  status: ('A' for Active; 'I' for Inactive)
REMARK    1  A    between atoms: C_1  and  N_2
REMARK    2  A    between atoms: C_6  and  C_7
REMARK    3  A    between atoms: C_7  and  C_8
REMARK    4  A    between atoms: C_8  and  C_9
REMARK    5  A    between atoms: C_13  and  N_14
REMARK    6  A    between atoms: C_15  and  C_17
REMARK    7  A    between atoms: C_23  and  C_24
REMARK                            x       y       z     vdW  Elec       q    Type
REMARK                         _______ _______ _______ _____ _____    ______ ____
ROOT
ATOM      1  N   UNL     1       1.789   8.189  19.593  0.00  0.00    +0.000 N 
ATOM      2  C   UNL     1       2.246   8.378  18.294  0.00  0.00    +0.000 C 
ATOM      3  O   UNL     1       2.012   9.344  17.579  0.00  0.00    +0.000 OA
ATOM      4  H   UNL     1       2.172   7.362  20.054  0.00  0.00    +0.000 HD
ENDROOT
BRANCH   2   5
ATOM      5  C   UNL     1       3.110   7.296  17.839  0.00  0.00    +0.000 A 
ATOM      6  N   UNL     1       4.130   7.462  17.021  0.00  0.00    +0.000 NA
ATOM      7  C   UNL     1       4.624   6.203  16.796  0.00  0.00    +0.000 A 
ATOM      8  C   UNL     1       5.704   5.826  15.990  0.00  0.00    +0.000 A 
ATOM      9  C   UNL     1       6.004   4.472  15.855  0.00  0.00    +0.000 A 
ATOM     10  C   UNL     1       5.225   3.507  16.494  0.00  0.00    +0.000 A 
ATOM     11  C   UNL     1       4.121   3.843  17.312  0.00  0.00    +0.000 A 
ATOM     12  C   UNL     1       3.879   5.228  17.461  0.00  0.00    +0.000 A 
ATOM     13  N   UNL     1       2.963   5.967  18.180  0.00  0.00    +0.000 N 
ATOM     14  H   UNL     1       2.263   5.621  18.825  0.00  0.00    +0.000 HD
BRANCH  11  15
ATOM     15  C   UNL     1       3.280   2.739  17.907  0.00  0.00    +0.000 C 
ATOM     16  F   UNL     1       3.177   2.805  19.267  0.00  0.00    +0.000 F 
ATOM     17  F   UNL     1       2.003   2.730  17.437  0.00  0.00    +0.000 F 
ATOM     18  F   UNL     1       3.784   1.503  17.638  0.00  0.00    +0.000 F 
ENDBRANCH  11  15
ENDBRANCH   2   5
BRANCH   1  23
ATOM     19  C   UNL     1      -0.604  10.964  20.420  0.00  0.00    +0.000 A 
ATOM     20  C   UNL     1      -0.636  10.819  21.821  0.00  0.00    +0.000 A 
ATOM     21  C   UNL     1       0.116   9.849  22.480  0.00  0.00    +0.000 A 
ATOM     22  C   UNL     1       0.924   8.978  21.756  0.00  0.00    +0.000 A 
ATOM     23  C   UNL     1       0.990   9.059  20.367  0.00  0.00    +0.000 A 
ATOM     24  C   UNL     1       0.238  10.061  19.716  0.00  0.00    +0.000 A 
BRANCH  19  25
ATOM     25  C   UNL     1      -1.476  12.121  19.697  0.00  0.00    +0.000 C 
ATOM     26  C   UNL     1      -2.582  12.788  20.574  0.00  0.00    +0.000 C 
ATOM     27  O   UNL     1      -3.632  12.355  19.692  0.00  0.00    +0.000 OA
ATOM     28  C   UNL     1      -2.687  11.703  18.818  0.00  0.00    +0.000 C 
BRANCH  25  29
ATOM     29  C   UNL     1      -0.550  13.193  19.088  0.00  0.00    +0.000 C 
BRANCH  29  35
ATOM     30  C   UNL     1       2.537  12.749  18.416  0.00  0.00    +0.000 C 
ATOM     31  N   UNL     1       1.960  13.288  19.617  0.00  0.00    +0.000 N 
ATOM     32  C   UNL     1       2.672  13.652  20.722  0.00  0.00    +0.000 A 
ATOM     33  N   UNL     1       1.858  14.119  21.637  0.00  0.00    +0.000 NA
ATOM     34  N   UNL     1       0.585  14.045  21.134  0.00  0.00    +0.000 NA
ATOM     35  C   UNL     1       0.642  13.528  19.921  0.00  0.00    +0.000 A 
ENDBRANCH  29  35
ENDBRANCH  25  29
ENDBRANCH  19  25
ENDBRANCH   1  23
TORSDOF 6
ENDMDL
