MODEL 1
REMARK VINA RESULT:      -9.2      0.000      0.000
REMARK  Name = 
REMARK  7 active torsions:
REMARK  status: ('A' for Active; 'I' for Inactive)
REMARK    1  A    between atoms: C_1  and  C_2
REMARK    2  A    between atoms: C_4  and  C_5
REMARK    3  A    between atoms: N_7  and  C_8
REMARK    4  A    between atoms: C_12  and  C_13
REMARK    5  A    between atoms: C_13  and  C_14
REMARK    6  A    between atoms: C_14  and  C_15
REMARK    7  A    between atoms: N_19  and  C_20
REMARK                            x       y       z     vdW  Elec       q    Type
REMARK                         _______ _______ _______ _____ _____    ______ ____
ROOT
ATOM      1  C   UNL     1       2.482   6.220  18.354  0.00  0.00    +0.000 A 
ATOM      2  C   UNL     1       1.685   5.084  18.217  0.00  0.00    +0.000 A 
ATOM      3  C   UNL     1       2.193   3.933  17.625  0.00  0.00    +0.000 A 
ATOM      4  C   UNL     1       3.512   3.901  17.182  0.00  0.00    +0.000 A 
ATOM      5  C   UNL     1       4.367   5.012  17.309  0.00  0.00    +0.000 A 
ATOM      6  C   UNL     1       3.801   6.179  17.879  0.00  0.00    +0.000 A 
ENDROOT
BRANCH   1   9
ATOM      7  C   UNL     1       1.857   8.630  18.319  0.00  0.00    +0.000 C 
ATOM      8  O   UNL     1       1.994   8.828  17.113  0.00  0.00    +0.000 OA
ATOM      9  N   UNL     1       2.024   7.416  18.953  0.00  0.00    +0.000 N 
ATOM     10  H   UNL     1       1.738   7.360  19.932  0.00  0.00    +0.000 HD
BRANCH   7  14
ATOM     11  C   UNL     1       1.534  13.532  19.020  0.00  0.00    +0.000 C 
ATOM     12  C   UNL     1       1.262  12.148  19.554  0.00  0.00    +0.000 A 
ATOM     13  C   UNL     1       1.677  11.000  18.700  0.00  0.00    +0.000 A 
ATOM     14  C   UNL     1       1.447   9.768  19.193  0.00  0.00    +0.000 A 
ATOM     15  N   UNL     1       0.842   9.631  20.437  0.00  0.00    +0.000 N 
ATOM     16  N   UNL     1       0.528   8.481  21.111  0.00  0.00    +0.000 NA
ATOM     17  C   UNL     1      -0.066   8.906  22.229  0.00  0.00    +0.000 A 
ATOM     18  C   UNL     1      -0.136  10.302  22.316  0.00  0.00    +0.000 A 
ATOM     19  C   UNL     1       0.463  10.764  21.168  0.00  0.00    +0.000 A 
ATOM     20  N   UNL     1       0.687  12.034  20.717  0.00  0.00    +0.000 NA
ENDBRANCH   7  14
ENDBRANCH   1   9
BRANCH   5  21
ATOM     21  C   UNL     1       5.911   4.922  16.887  0.00  0.00    +0.000 C 
ATOM     22  C   UNL     1       6.741   6.230  16.772  0.00  0.00    +0.000 C 
ATOM     23  O   UNL     1       7.830   5.638  17.534  0.00  0.00    +0.000 OA
ATOM     24  C   UNL     1       6.930   4.613  18.018  0.00  0.00    +0.000 C 
BRANCH  21  25
ATOM     25  C   UNL     1       6.101   3.957  15.699  0.00  0.00    +0.000 C 
BRANCH  25  26
ATOM     26  C   UNL     1       6.830   4.555  14.539  0.00  0.00    +0.000 A 
ATOM     27  N   UNL     1       7.809   5.435  14.597  0.00  0.00    +0.000 NA
ATOM     28  N   UNL     1       8.215   5.715  13.314  0.00  0.00    +0.000 NA
ATOM     29  C   UNL     1       7.481   4.995  12.499  0.00  0.00    +0.000 A 
ATOM     30  N   UNL     1       6.599   4.253  13.221  0.00  0.00    +0.000 N 
ATOM     31  C   UNL     1       5.636   3.331  12.685  0.00  0.00    +0.000 C 
ENDBRANCH  25  26
ENDBRANCH  21  25
ENDBRANCH   5  21
TORSDOF 5
ENDMDL
MODEL 2
REMARK VINA RESULT:      -9.2      1.154      2.191
REMARK  Name = 
REMARK  7 active torsions:
REMARK  status: ('A' for Active; 'I' for Inactive)
REMARK    1  A    between atoms: C_1  and  C_2
REMARK    2  A    between atoms: C_4  and  C_5
REMARK    3  A    between atoms: N_7  and  C_8
REMARK    4  A    between atoms: C_12  and  C_13
REMARK    5  A    between atoms: C_13  and  C_14
REMARK    6  A    between atoms: C_14  and  C_15
REMARK    7  A    between atoms: N_19  and  C_20
REMARK                            x       y       z     vdW  Elec       q    Type
REMARK                         _______ _______ _______ _____ _____    ______ ____
ROOT
ATOM      1  C   UNL     1       2.628   6.087  18.199  0.00  0.00    +0.000 A 
ATOM      2  C   UNL     1       1.858   4.930  18.086  0.00  0.00    +0.000 A 
ATOM      3  C   UNL     1       2.388   3.782  17.507  0.00  0.00    +0.000 A 
ATOM      4  C   UNL     1       3.703   3.775  17.052  0.00  0.00    +0.000 A 
ATOM      5  C   UNL     1       4.532   4.908  17.155  0.00  0.00    +0.000 A 
ATOM      6  C   UNL     1       3.944   6.071  17.713  0.00  0.00    +0.000 A 
ENDROOT
BRANCH   1   9
ATOM      7  C   UNL     1       1.597   7.403  20.044  0.00  0.00    +0.000 C 
ATOM      8  O   UNL     1       1.529   6.506  20.882  0.00  0.00    +0.000 OA
ATOM      9  N   UNL     1       2.147   7.280  18.784  0.00  0.00    +0.000 N 
ATOM     10  H   UNL     1       2.269   8.139  18.245  0.00  0.00    +0.000 HD
BRANCH   7  14
ATOM     11  C   UNL     1      -0.903  10.292  23.211  0.00  0.00    +0.000 C 
ATOM     12  C   UNL     1      -0.118  10.191  21.927  0.00  0.00    +0.000 A 
ATOM     13  C   UNL     1       0.395   8.843  21.554  0.00  0.00    +0.000 A 
ATOM     14  C   UNL     1       1.079   8.758  20.396  0.00  0.00    +0.000 A 
ATOM     15  N   UNL     1       1.273   9.902  19.631  0.00  0.00    +0.000 N 
ATOM     16  N   UNL     1       1.928  10.029  18.435  0.00  0.00    +0.000 NA
ATOM     17  C   UNL     1       1.859  11.333  18.157  0.00  0.00    +0.000 A 
ATOM     18  C   UNL     1       1.162  12.063  19.127  0.00  0.00    +0.000 A 
ATOM     19  C   UNL     1       0.775  11.137  20.066  0.00  0.00    +0.000 A 
ATOM     20  N   UNL     1       0.064  11.271  21.225  0.00  0.00    +0.000 NA
ENDBRANCH   7  14
ENDBRANCH   1   9
BRANCH   5  21
ATOM     21  C   UNL     1       6.075   4.849  16.720  0.00  0.00    +0.000 C 
ATOM     22  C   UNL     1       6.886   6.171  16.629  0.00  0.00    +0.000 C 
ATOM     23  O   UNL     1       7.989   5.576  17.369  0.00  0.00    +0.000 OA
ATOM     24  C   UNL     1       7.105   4.528  17.836  0.00  0.00    +0.000 C 
BRANCH  21  25
ATOM     25  C   UNL     1       6.268   3.914  15.508  0.00  0.00    +0.000 C 
BRANCH  25  26
ATOM     26  C   UNL     1       6.954   4.556  14.346  0.00  0.00    +0.000 A 
ATOM     27  N   UNL     1       7.901   5.472  14.403  0.00  0.00    +0.000 NA
ATOM     28  N   UNL     1       8.274   5.787  13.117  0.00  0.00    +0.000 NA
ATOM     29  C   UNL     1       7.554   5.052  12.303  0.00  0.00    +0.000 A 
ATOM     30  N   UNL     1       6.712   4.267  13.028  0.00  0.00    +0.000 N 
ATOM     31  C   UNL     1       5.776   3.317  12.493  0.00  0.00    +0.000 C 
ENDBRANCH  25  26
ENDBRANCH  21  25
ENDBRANCH   5  21
TORSDOF 5
ENDMDL
MODEL 3
REMARK VINA RESULT:      -9.1      3.353      9.073
REMARK  Name = 
REMARK  7 active torsions:
REMARK  status: ('A' for Active; 'I' for Inactive)
REMARK    1  A    between atoms: C_1  and  C_2
REMARK    2  A    between atoms: C_4  and  C_5
REMARK    3  A    between atoms: N_7  and  C_8
REMARK    4  A    between atoms: C_12  and  C_13
REMARK    5  A    between atoms: C_13  and  C_14
REMARK    6  A    between atoms: C_14  and  C_15
REMARK    7  A    between atoms: N_19  and  C_20
REMARK                            x       y       z     vdW  Elec       q    Type
REMARK                         _______ _______ _______ _____ _____    ______ ____
ROOT
ATOM      1  C   UNL     1       0.968   8.661  21.110  0.00  0.00    +0.000 A 
ATOM      2  C   UNL     1       0.511   8.915  22.403  0.00  0.00    +0.000 A 
ATOM      3  C   UNL     1      -0.251  10.047  22.672  0.00  0.00    +0.000 A 
ATOM      4  C   UNL     1      -0.580  10.926  21.645  0.00  0.00    +0.000 A 
ATOM      5  C   UNL     1      -0.160  10.711  20.318  0.00  0.00    +0.000 A 
ATOM      6  C   UNL     1       0.648   9.570  20.091  0.00  0.00    +0.000 A 
ENDROOT
BRANCH   1   9
ATOM      7  C   UNL     1       2.324   7.272  19.550  0.00  0.00    +0.000 C 
ATOM      8  O   UNL     1       2.337   8.046  18.594  0.00  0.00    +0.000 OA
ATOM      9  N   UNL     1       1.739   7.525  20.774  0.00  0.00    +0.000 N 
ATOM     10  H   UNL     1       1.926   6.857  21.525  0.00  0.00    +0.000 HD
BRANCH   7  14
ATOM     11  C   UNL     1       5.950   4.571  17.504  0.00  0.00    +0.000 C 
ATOM     12  C   UNL     1       4.777   4.620  18.452  0.00  0.00    +0.000 A 
ATOM     13  C   UNL     1       4.070   5.925  18.585  0.00  0.00    +0.000 A 
ATOM     14  C   UNL     1       3.013   5.955  19.419  0.00  0.00    +0.000 A 
ATOM     15  N   UNL     1       2.649   4.801  20.103  0.00  0.00    +0.000 N 
ATOM     16  N   UNL     1       1.616   4.621  20.984  0.00  0.00    +0.000 NA
ATOM     17  C   UNL     1       1.735   3.350  21.378  0.00  0.00    +0.000 A 
ATOM     18  C   UNL     1       2.806   2.686  20.767  0.00  0.00    +0.000 A 
ATOM     19  C   UNL     1       3.382   3.619  19.938  0.00  0.00    +0.000 A 
ATOM     20  N   UNL     1       4.452   3.535  19.093  0.00  0.00    +0.000 NA
ENDBRANCH   7  14
ENDBRANCH   1   9
BRANCH   5  21
ATOM     21  C   UNL     1      -0.636  11.679  19.131  0.00  0.00    +0.000 C 
ATOM     22  C   UNL     1      -1.317  13.030  19.485  0.00  0.00    +0.000 C 
ATOM     23  O   UNL     1      -0.475  13.735  18.530  0.00  0.00    +0.000 OA
ATOM     24  C   UNL     1       0.440  12.613  18.515  0.00  0.00    +0.000 C 
BRANCH  21  25
ATOM     25  C   UNL     1      -1.366  10.881  18.031  0.00  0.00    +0.000 C 
BRANCH  25  26
ATOM     26  C   UNL     1      -2.812  11.229  17.885  0.00  0.00    +0.000 A 
ATOM     27  N   UNL     1      -3.628  11.612  18.847  0.00  0.00    +0.000 NA
ATOM     28  N   UNL     1      -4.865  11.851  18.295  0.00  0.00    +0.000 NA
ATOM     29  C   UNL     1      -4.778  11.615  17.007  0.00  0.00    +0.000 A 
ATOM     30  N   UNL     1      -3.511  11.222  16.705  0.00  0.00    +0.000 N 
ATOM     31  C   UNL     1      -3.023  10.887  15.395  0.00  0.00    +0.000 C 
ENDBRANCH  25  26
ENDBRANCH  21  25
ENDBRANCH   5  21
TORSDOF 5
ENDMDL
MODEL 4
REMARK VINA RESULT:      -9.0      1.253      1.504
REMARK  Name = 
REMARK  7 active torsions:
REMARK  status: ('A' for Active; 'I' for Inactive)
REMARK    1  A    between atoms: C_1  and  C_2
REMARK    2  A    between atoms: C_4  and  C_5
REMARK    3  A    between atoms: N_7  and  C_8
REMARK    4  A    between atoms: C_12  and  C_13
REMARK    5  A    between atoms: C_13  and  C_14
REMARK    6  A    between atoms: C_14  and  C_15
REMARK    7  A    between atoms: N_19  and  C_20
REMARK                            x       y       z     vdW  Elec       q    Type
REMARK                         _______ _______ _______ _____ _____    ______ ____
ROOT
ATOM      1  C   UNL     1       2.943   6.365  19.537  0.00  0.00    +0.000 A 
ATOM      2  C   UNL     1       2.438   5.074  19.681  0.00  0.00    +0.000 A 
ATOM      3  C   UNL     1       3.220   3.969  19.360  0.00  0.00    +0.000 A 
ATOM      4  C   UNL     1       4.525   4.147  18.910  0.00  0.00    +0.000 A 
ATOM      5  C   UNL     1       5.093   5.427  18.761  0.00  0.00    +0.000 A 
ATOM      6  C   UNL     1       4.252   6.528  19.058  0.00  0.00    +0.000 A 
ENDROOT
BRANCH   1   9
ATOM      7  C   UNL     1       1.712   8.449  18.953  0.00  0.00    +0.000 C 
ATOM      8  O   UNL     1       1.774   8.350  17.728  0.00  0.00    +0.000 OA
ATOM      9  N   UNL     1       2.199   7.524  19.854  0.00  0.00    +0.000 N 
ATOM     10  H   UNL     1       1.954   7.660  20.836  0.00  0.00    +0.000 HD
BRANCH   7  14
ATOM     11  C   UNL     1       0.209  13.153  18.461  0.00  0.00    +0.000 C 
ATOM     12  C   UNL     1       0.276  11.921  19.329  0.00  0.00    +0.000 A 
ATOM     13  C   UNL     1       0.962  10.728  18.757  0.00  0.00    +0.000 A 
ATOM     14  C   UNL     1       1.034   9.638  19.546  0.00  0.00    +0.000 A 
ATOM     15  N   UNL     1       0.472   9.676  20.817  0.00  0.00    +0.000 N 
ATOM     16  N   UNL     1       0.440   8.690  21.766  0.00  0.00    +0.000 NA
ATOM     17  C   UNL     1      -0.246   9.226  22.778  0.00  0.00    +0.000 A 
ATOM     18  C   UNL     1      -0.651  10.543  22.527  0.00  0.00    +0.000 A 
ATOM     19  C   UNL     1      -0.175  10.833  21.271  0.00  0.00    +0.000 A 
ATOM     20  N   UNL     1      -0.261  11.967  20.513  0.00  0.00    +0.000 NA
ENDBRANCH   7  14
ENDBRANCH   1   9
BRANCH   5  21
ATOM     21  C   UNL     1       6.630   5.607  18.340  0.00  0.00    +0.000 C 
ATOM     22  C   UNL     1       7.115   6.990  17.825  0.00  0.00    +0.000 C 
ATOM     23  O   UNL     1       8.280   6.936  18.694  0.00  0.00    +0.000 OA
ATOM     24  C   UNL     1       7.639   5.904  19.482  0.00  0.00    +0.000 C 
BRANCH  21  25
ATOM     25  C   UNL     1       7.108   4.419  17.480  0.00  0.00    +0.000 C 
BRANCH  25  26
ATOM     26  C   UNL     1       6.880   4.598  16.014  0.00  0.00    +0.000 A 
ATOM     27  N   UNL     1       7.663   5.242  15.172  0.00  0.00    +0.000 NA
ATOM     28  N   UNL     1       7.107   5.161  13.916  0.00  0.00    +0.000 NA
ATOM     29  C   UNL     1       6.001   4.463  14.016  0.00  0.00    +0.000 A 
ATOM     30  N   UNL     1       5.817   4.090  15.312  0.00  0.00    +0.000 N 
ATOM     31  C   UNL     1       4.724   3.304  15.816  0.00  0.00    +0.000 C 
ENDBRANCH  25  26
ENDBRANCH  21  25
ENDBRANCH   5  21
TORSDOF 5
ENDMDL
MODEL 5
REMARK VINA RESULT:      -9.0      1.761      2.583
REMARK  Name = 
REMARK  7 active torsions:
REMARK  status: ('A' for Active; 'I' for Inactive)
REMARK    1  A    between atoms: C_1  and  C_2
REMARK    2  A    between atoms: C_4  and  C_5
REMARK    3  A    between atoms: N_7  and  C_8
REMARK    4  A    between atoms: C_12  and  C_13
REMARK    5  A    between atoms: C_13  and  C_14
REMARK    6  A    between atoms: C_14  and  C_15
REMARK    7  A    between atoms: N_19  and  C_20
REMARK                            x       y       z     vdW  Elec       q    Type
REMARK                         _______ _______ _______ _____ _____    ______ ____
ROOT
ATOM      1  C   UNL     1       3.162   5.624  19.878  0.00  0.00    +0.000 A 
ATOM      2  C   UNL     1       2.933   4.269  20.113  0.00  0.00    +0.000 A 
ATOM      3  C   UNL     1       3.875   3.318  19.737  0.00  0.00    +0.000 A 
ATOM      4  C   UNL     1       5.068   3.716  19.140  0.00  0.00    +0.000 A 
ATOM      5  C   UNL     1       5.360   5.071  18.894  0.00  0.00    +0.000 A 
ATOM      6  C   UNL     1       4.358   6.007  19.252  0.00  0.00    +0.000 A 
ENDROOT
BRANCH   1   9
ATOM      7  C   UNL     1       2.028   7.818  19.565  0.00  0.00    +0.000 C 
ATOM      8  O   UNL     1       2.534   8.124  18.487  0.00  0.00    +0.000 OA
ATOM      9  N   UNL     1       2.246   6.636  20.243  0.00  0.00    +0.000 N 
ATOM     10  H   UNL     1       1.652   6.449  21.053  0.00  0.00    +0.000 HD
BRANCH   7  14
ATOM     11  C   UNL     1      -0.032   9.607  23.710  0.00  0.00    +0.000 C 
ATOM     12  C   UNL     1       0.063   9.668  22.206  0.00  0.00    +0.000 A 
ATOM     13  C   UNL     1       1.005   8.718  21.549  0.00  0.00    +0.000 A 
ATOM     14  C   UNL     1       1.070   8.767  20.205  0.00  0.00    +0.000 A 
ATOM     15  N   UNL     1       0.283   9.682  19.515  0.00  0.00    +0.000 N 
ATOM     16  N   UNL     1       0.199   9.887  18.164  0.00  0.00    +0.000 NA
ATOM     17  C   UNL     1      -0.665  10.897  18.036  0.00  0.00    +0.000 A 
ATOM     18  C   UNL     1      -1.163  11.350  19.264  0.00  0.00    +0.000 A 
ATOM     19  C   UNL     1      -0.562  10.555  20.211  0.00  0.00    +0.000 A 
ATOM     20  N   UNL     1      -0.672  10.535  21.573  0.00  0.00    +0.000 NA
ENDBRANCH   7  14
ENDBRANCH   1   9
BRANCH   5  21
ATOM     21  C   UNL     1       6.782   5.517  18.299  0.00  0.00    +0.000 C 
ATOM     22  C   UNL     1       6.956   6.965  17.764  0.00  0.00    +0.000 C 
ATOM     23  O   UNL     1       8.208   7.111  18.490  0.00  0.00    +0.000 OA
ATOM     24  C   UNL     1       7.853   5.982  19.322  0.00  0.00    +0.000 C 
BRANCH  21  25
ATOM     25  C   UNL     1       7.350   4.432  17.362  0.00  0.00    +0.000 C 
BRANCH  25  26
ATOM     26  C   UNL     1       6.998   4.626  15.923  0.00  0.00    +0.000 A 
ATOM     27  N   UNL     1       7.713   5.265  15.019  0.00  0.00    +0.000 NA
ATOM     28  N   UNL     1       7.048   5.201  13.817  0.00  0.00    +0.000 NA
ATOM     29  C   UNL     1       5.944   4.519  14.010  0.00  0.00    +0.000 A 
ATOM     30  N   UNL     1       5.869   4.139  15.314  0.00  0.00    +0.000 N 
ATOM     31  C   UNL     1       4.813   3.366  15.907  0.00  0.00    +0.000 C 
ENDBRANCH  25  26
ENDBRANCH  21  25
ENDBRANCH   5  21
TORSDOF 5
ENDMDL
MODEL 6
REMARK VINA RESULT:      -8.9      1.667      2.763
REMARK  Name = 
REMARK  7 active torsions:
REMARK  status: ('A' for Active; 'I' for Inactive)
REMARK    1  A    between atoms: C_1  and  C_2
REMARK    2  A    between atoms: C_4  and  C_5
REMARK    3  A    between atoms: N_7  and  C_8
REMARK    4  A    between atoms: C_12  and  C_13
REMARK    5  A    between atoms: C_13  and  C_14
REMARK    6  A    between atoms: C_14  and  C_15
REMARK    7  A    between atoms: N_19  and  C_20
REMARK                            x       y       z     vdW  Elec       q    Type
REMARK                         _______ _______ _______ _____ _____    ______ ____
ROOT
ATOM      1  C   UNL     1       2.606   5.983  18.596  0.00  0.00    +0.000 A 
ATOM      2  C   UNL     1       1.996   4.786  18.970  0.00  0.00    +0.000 A 
ATOM      3  C   UNL     1       2.462   3.573  18.476  0.00  0.00    +0.000 A 
ATOM      4  C   UNL     1       3.557   3.544  17.618  0.00  0.00    +0.000 A 
ATOM      5  C   UNL     1       4.222   4.719  17.220  0.00  0.00    +0.000 A 
ATOM      6  C   UNL     1       3.693   5.939  17.711  0.00  0.00    +0.000 A 
ENDROOT
BRANCH   1   9
ATOM      7  C   UNL     1       1.936   8.363  18.298  0.00  0.00    +0.000 C 
ATOM      8  O   UNL     1       1.960   8.398  17.069  0.00  0.00    +0.000 OA
ATOM      9  N   UNL     1       2.182   7.246  19.070  0.00  0.00    +0.000 N 
ATOM     10  H   UNL     1       1.988   7.321  20.070  0.00  0.00    +0.000 HD
BRANCH   7  14
ATOM     11  C   UNL     1       1.908  13.321  18.504  0.00  0.00    +0.000 C 
ATOM     12  C   UNL     1       1.544  12.017  19.167  0.00  0.00    +0.000 A 
ATOM     13  C   UNL     1       1.898  10.766  18.439  0.00  0.00    +0.000 A 
ATOM     14  C   UNL     1       1.586   9.605  19.047  0.00  0.00    +0.000 A 
ATOM     15  N   UNL     1       0.958   9.630  20.287  0.00  0.00    +0.000 N 
ATOM     16  N   UNL     1       0.564   8.575  21.066  0.00  0.00    +0.000 NA
ATOM     17  C   UNL     1      -0.017   9.145  22.125  0.00  0.00    +0.000 A 
ATOM     18  C   UNL     1      -0.001  10.544  22.071  0.00  0.00    +0.000 A 
ATOM     19  C   UNL     1       0.640  10.852  20.895  0.00  0.00    +0.000 A 
ATOM     20  N   UNL     1       0.948  12.054  20.324  0.00  0.00    +0.000 NA
ENDBRANCH   7  14
ENDBRANCH   1   9
BRANCH   5  21
ATOM     21  C   UNL     1       5.544   4.657  16.314  0.00  0.00    +0.000 C 
ATOM     22  C   UNL     1       5.612   3.635  15.146  0.00  0.00    +0.000 C 
ATOM     23  O   UNL     1       6.111   4.661  14.242  0.00  0.00    +0.000 OA
ATOM     24  C   UNL     1       5.647   5.685  15.154  0.00  0.00    +0.000 C 
BRANCH  21  25
ATOM     25  C   UNL     1       6.813   4.689  17.190  0.00  0.00    +0.000 C 
BRANCH  25  26
ATOM     26  C   UNL     1       7.315   6.066  17.485  0.00  0.00    +0.000 A 
ATOM     27  N   UNL     1       7.281   7.104  16.673  0.00  0.00    +0.000 NA
ATOM     28  N   UNL     1       7.825   8.183  17.329  0.00  0.00    +0.000 NA
ATOM     29  C   UNL     1       8.173   7.785  18.530  0.00  0.00    +0.000 A 
ATOM     30  N   UNL     1       7.873   6.465  18.672  0.00  0.00    +0.000 N 
ATOM     31  C   UNL     1       8.094   5.673  19.851  0.00  0.00    +0.000 C 
ENDBRANCH  25  26
ENDBRANCH  21  25
ENDBRANCH   5  21
TORSDOF 5
ENDMDL
MODEL 7
REMARK VINA RESULT:      -8.8      1.105      2.436
REMARK  Name = 
REMARK  7 active torsions:
REMARK  status: ('A' for Active; 'I' for Inactive)
REMARK    1  A    between atoms: C_1  and  C_2
REMARK    2  A    between atoms: C_4  and  C_5
REMARK    3  A    between atoms: N_7  and  C_8
REMARK    4  A    between atoms: C_12  and  C_13
REMARK    5  A    between atoms: C_13  and  C_14
REMARK    6  A    between atoms: C_14  and  C_15
REMARK    7  A    between atoms: N_19  and  C_20
REMARK                            x       y       z     vdW  Elec       q    Type
REMARK                         _______ _______ _______ _____ _____    ______ ____
ROOT
ATOM      1  C   UNL     1       2.551   6.059  18.388  0.00  0.00    +0.000 A 
ATOM      2  C   UNL     1       1.868   4.845  18.324  0.00  0.00    +0.000 A 
ATOM      3  C   UNL     1       2.396   3.774  17.612  0.00  0.00    +0.000 A 
ATOM      4  C   UNL     1       3.626   3.901  16.973  0.00  0.00    +0.000 A 
ATOM      5  C   UNL     1       4.368   5.097  17.017  0.00  0.00    +0.000 A 
ATOM      6  C   UNL     1       3.777   6.178  17.717  0.00  0.00    +0.000 A 
ENDROOT
BRANCH   1   9
ATOM      7  C   UNL     1       1.886   8.449  18.592  0.00  0.00    +0.000 C 
ATOM      8  O   UNL     1       2.031   8.772  17.415  0.00  0.00    +0.000 OA
ATOM      9  N   UNL     1       2.068   7.180  19.101  0.00  0.00    +0.000 N 
ATOM     10  H   UNL     1       1.776   7.020  20.067  0.00  0.00    +0.000 HD
BRANCH   7  14
ATOM     11  C   UNL     1      -0.050   9.533  23.032  0.00  0.00    +0.000 C 
ATOM     12  C   UNL     1       0.526  10.043  21.734  0.00  0.00    +0.000 A 
ATOM     13  C   UNL     1       0.954   9.021  20.737  0.00  0.00    +0.000 A 
ATOM     14  C   UNL     1       1.450   9.485  19.574  0.00  0.00    +0.000 A 
ATOM     15  N   UNL     1       1.543  10.857  19.369  0.00  0.00    +0.000 N 
ATOM     16  N   UNL     1       2.008  11.526  18.268  0.00  0.00    +0.000 NA
ATOM     17  C   UNL     1       1.917  12.816  18.603  0.00  0.00    +0.000 A 
ATOM     18  C   UNL     1       1.389  13.013  19.885  0.00  0.00    +0.000 A 
ATOM     19  C   UNL     1       1.137  11.751  20.368  0.00  0.00    +0.000 A 
ATOM     20  N   UNL     1       0.615  11.330  21.558  0.00  0.00    +0.000 NA
ENDBRANCH   7  14
ENDBRANCH   1   9
BRANCH   5  21
ATOM     21  C   UNL     1       5.828   5.191  16.361  0.00  0.00    +0.000 C 
ATOM     22  C   UNL     1       7.001   5.761  17.206  0.00  0.00    +0.000 C 
ATOM     23  O   UNL     1       7.861   4.658  16.807  0.00  0.00    +0.000 OA
ATOM     24  C   UNL     1       6.696   3.904  16.396  0.00  0.00    +0.000 C 
BRANCH  21  25
ATOM     25  C   UNL     1       5.753   5.764  14.931  0.00  0.00    +0.000 C 
BRANCH  25  26
ATOM     26  C   UNL     1       5.964   4.748  13.856  0.00  0.00    +0.000 A 
ATOM     27  N   UNL     1       5.133   3.783  13.514  0.00  0.00    +0.000 NA
ATOM     28  N   UNL     1       5.692   3.080  12.473  0.00  0.00    +0.000 NA
ATOM     29  C   UNL     1       6.849   3.634  12.195  0.00  0.00    +0.000 A 
ATOM     30  N   UNL     1       7.062   4.682  13.037  0.00  0.00    +0.000 N 
ATOM     31  C   UNL     1       8.212   5.543  13.034  0.00  0.00    +0.000 C 
ENDBRANCH  25  26
ENDBRANCH  21  25
ENDBRANCH   5  21
TORSDOF 5
ENDMDL
MODEL 8
REMARK VINA RESULT:      -8.8      2.370      9.231
REMARK  Name = 
REMARK  7 active torsions:
REMARK  status: ('A' for Active; 'I' for Inactive)
REMARK    1  A    between atoms: C_1  and  C_2
REMARK    2  A    between atoms: C_4  and  C_5
REMARK    3  A    between atoms: N_7  and  C_8
REMARK    4  A    between atoms: C_12  and  C_13
REMARK    5  A    between atoms: C_13  and  C_14
REMARK    6  A    between atoms: C_14  and  C_15
REMARK    7  A    between atoms: N_19  and  C_20
REMARK                            x       y       z     vdW  Elec       q    Type
REMARK                         _______ _______ _______ _____ _____    ______ ____
ROOT
ATOM      1  C   UNL     1       1.515   8.239  20.317  0.00  0.00    +0.000 A 
ATOM      2  C   UNL     1       1.256   8.146  21.684  0.00  0.00    +0.000 A 
ATOM      3  C   UNL     1       0.550   9.150  22.339  0.00  0.00    +0.000 A 
ATOM      4  C   UNL     1       0.078  10.248  21.626  0.00  0.00    +0.000 A 
ATOM      5  C   UNL     1       0.295  10.386  20.241  0.00  0.00    +0.000 A 
ATOM      6  C   UNL     1       1.054   9.364  19.618  0.00  0.00    +0.000 A 
ENDROOT
BRANCH   1   9
ATOM      7  C   UNL     1       2.730   7.379  18.322  0.00  0.00    +0.000 C 
ATOM      8  O   UNL     1       2.726   8.413  17.656  0.00  0.00    +0.000 OA
ATOM      9  N   UNL     1       2.220   7.248  19.597  0.00  0.00    +0.000 N 
ATOM     10  H   UNL     1       2.417   6.374  20.089  0.00  0.00    +0.000 HD
BRANCH   7  14
ATOM     11  C   UNL     1       6.486   5.317  15.818  0.00  0.00    +0.000 C 
ATOM     12  C   UNL     1       5.178   5.120  16.543  0.00  0.00    +0.000 A 
ATOM     13  C   UNL     1       4.532   6.336  17.114  0.00  0.00    +0.000 A 
ATOM     14  C   UNL     1       3.356   6.153  17.744  0.00  0.00    +0.000 A 
ATOM     15  N   UNL     1       2.820   4.874  17.835  0.00  0.00    +0.000 N 
ATOM     16  N   UNL     1       1.647   4.479  18.422  0.00  0.00    +0.000 NA
ATOM     17  C   UNL     1       1.628   3.153  18.264  0.00  0.00    +0.000 A 
ATOM     18  C   UNL     1       2.746   2.668  17.574  0.00  0.00    +0.000 A 
ATOM     19  C   UNL     1       3.502   3.780  17.287  0.00  0.00    +0.000 A 
ATOM     20  N   UNL     1       4.691   3.916  16.628  0.00  0.00    +0.000 NA
ENDBRANCH   7  14
ENDBRANCH   1   9
BRANCH   5  21
ATOM     21  C   UNL     1      -0.344  11.606  19.420  0.00  0.00    +0.000 C 
ATOM     22  C   UNL     1      -1.324  11.300  18.254  0.00  0.00    +0.000 C 
ATOM     23  O   UNL     1      -2.262  12.299  18.744  0.00  0.00    +0.000 OA
ATOM     24  C   UNL     1      -1.601  12.281  20.032  0.00  0.00    +0.000 C 
BRANCH  21  25
ATOM     25  C   UNL     1       0.730  12.658  19.073  0.00  0.00    +0.000 C 
BRANCH  25  26
ATOM     26  C   UNL     1       1.014  13.624  20.177  0.00  0.00    +0.000 A 
ATOM     27  N   UNL     1       1.699  13.380  21.277  0.00  0.00    +0.000 NA
ATOM     28  N   UNL     1       1.744  14.534  22.023  0.00  0.00    +0.000 NA
ATOM     29  C   UNL     1       1.093  15.461  21.361  0.00  0.00    +0.000 A 
ATOM     30  N   UNL     1       0.617  14.937  20.199  0.00  0.00    +0.000 N 
ATOM     31  C   UNL     1      -0.136  15.646  19.202  0.00  0.00    +0.000 C 
ENDBRANCH  25  26
ENDBRANCH  21  25
ENDBRANCH   5  21
TORSDOF 5
ENDMDL
MODEL 9
REMARK VINA RESULT:      -8.8      2.432      8.818
REMARK  Name = 
REMARK  7 active torsions:
REMARK  status: ('A' for Active; 'I' for Inactive)
REMARK    1  A    between atoms: C_1  and  C_2
REMARK    2  A    between atoms: C_4  and  C_5
REMARK    3  A    between atoms: N_7  and  C_8
REMARK    4  A    between atoms: C_12  and  C_13
REMARK    5  A    between atoms: C_13  and  C_14
REMARK    6  A    between atoms: C_14  and  C_15
REMARK    7  A    between atoms: N_19  and  C_20
REMARK                            x       y       z     vdW  Elec       q    Type
REMARK                         _______ _______ _______ _____ _____    ______ ____
ROOT
ATOM      1  C   UNL     1       1.293   8.678  20.222  0.00  0.00    +0.000 A 
ATOM      2  C   UNL     1       1.221   8.785  21.611  0.00  0.00    +0.000 A 
ATOM      3  C   UNL     1       0.429   9.763  22.203  0.00  0.00    +0.000 A 
ATOM      4  C   UNL     1      -0.314  10.632  21.411  0.00  0.00    +0.000 A 
ATOM      5  C   UNL     1      -0.293  10.560  20.005  0.00  0.00    +0.000 A 
ATOM      6  C   UNL     1       0.557   9.578  19.438  0.00  0.00    +0.000 A 
ENDROOT
BRANCH   1   9
ATOM      7  C   UNL     1       2.590   7.799  18.288  0.00  0.00    +0.000 C 
ATOM      8  O   UNL     1       2.525   8.793  17.567  0.00  0.00    +0.000 OA
ATOM      9  N   UNL     1       2.074   7.701  19.563  0.00  0.00    +0.000 N 
ATOM     10  H   UNL     1       2.324   6.870  20.103  0.00  0.00    +0.000 HD
BRANCH   7  14
ATOM     11  C   UNL     1       6.645   5.836  16.204  0.00  0.00    +0.000 C 
ATOM     12  C   UNL     1       5.272   5.605  16.786  0.00  0.00    +0.000 A 
ATOM     13  C   UNL     1       4.538   6.803  17.282  0.00  0.00    +0.000 A 
ATOM     14  C   UNL     1       3.306   6.591  17.783  0.00  0.00    +0.000 A 
ATOM     15  N   UNL     1       2.797   5.297  17.818  0.00  0.00    +0.000 N 
ATOM     16  N   UNL     1       1.579   4.872  18.277  0.00  0.00    +0.000 NA
ATOM     17  C   UNL     1       1.611   3.547  18.121  0.00  0.00    +0.000 A 
ATOM     18  C   UNL     1       2.808   3.091  17.556  0.00  0.00    +0.000 A 
ATOM     19  C   UNL     1       3.562   4.222  17.349  0.00  0.00    +0.000 A 
ATOM     20  N   UNL     1       4.811   4.389  16.821  0.00  0.00    +0.000 NA
ENDBRANCH   7  14
ENDBRANCH   1   9
BRANCH   5  21
ATOM     21  C   UNL     1      -1.235  11.502  19.112  0.00  0.00    +0.000 C 
ATOM     22  C   UNL     1      -2.324  10.851  18.216  0.00  0.00    +0.000 C 
ATOM     23  O   UNL     1      -3.319  11.802  18.686  0.00  0.00    +0.000 OA
ATOM     24  C   UNL     1      -2.472  12.124  19.816  0.00  0.00    +0.000 C 
BRANCH  21  25
ATOM     25  C   UNL     1      -0.406  12.589  18.397  0.00  0.00    +0.000 C 
BRANCH  25  26
ATOM     26  C   UNL     1       0.619  13.243  19.266  0.00  0.00    +0.000 A 
ATOM     27  N   UNL     1       0.387  14.009  20.313  0.00  0.00    +0.000 NA
ATOM     28  N   UNL     1       1.596  14.395  20.843  0.00  0.00    +0.000 NA
ATOM     29  C   UNL     1       2.542  13.850  20.114  0.00  0.00    +0.000 A 
ATOM     30  N   UNL     1       1.977  13.120  19.114  0.00  0.00    +0.000 N 
ATOM     31  C   UNL     1       2.687  12.366  18.118  0.00  0.00    +0.000 C 
ENDBRANCH  25  26
ENDBRANCH  21  25
ENDBRANCH   5  21
TORSDOF 5
ENDMDL
