MODEL 1
REMARK VINA RESULT:      -9.4      0.000      0.000
REMARK  Name = 
REMARK  10 active torsions:
REMARK  status: ('A' for Active; 'I' for Inactive)
REMARK    1  A    between atoms: C_1  and  N_2
REMARK    2  A    between atoms: C_6  and  C_7
REMARK    3  A    between atoms: C_7  and  C_8
REMARK    4  A    between atoms: C_8  and  C_9
REMARK    5  A    between atoms: C_13  and  N_14
REMARK    6  A    between atoms: C_19  and  C_20
REMARK    7  A    between atoms: C_20  and  N_21
REMARK    8  A    between atoms: C_25  and  C_26
REMARK    9  A    between atoms: C_25  and  C_27
REMARK   10  A    between atoms: C_29  and  C_30
REMARK                            x       y       z     vdW  Elec       q    Type
REMARK                         _______ _______ _______ _____ _____    ______ ____
ROOT
ATOM      1  N   UNL     1       2.325   7.400  19.389  0.00  0.00    +0.000 N 
ATOM      2  C   UNL     1       1.555   7.720  20.578  0.00  0.00    +0.000 C 
ATOM      3  C   UNL     1       1.004   9.064  20.309  0.00  0.00    +0.000 A 
ATOM      4  C   UNL     1       1.324   9.452  19.010  0.00  0.00    +0.000 A 
ATOM      5  C   UNL     1       0.856  10.649  18.493  0.00  0.00    +0.000 A 
ATOM      6  C   UNL     1       0.060  11.471  19.328  0.00  0.00    +0.000 A 
ATOM      7  C   UNL     1      -0.216  11.067  20.662  0.00  0.00    +0.000 A 
ATOM      8  C   UNL     1       0.268   9.861  21.178  0.00  0.00    +0.000 A 
ATOM      9  C   UNL     1       2.201   8.401  18.418  0.00  0.00    +0.000 C 
ATOM     10  O   UNL     1       2.699   8.486  17.309  0.00  0.00    +0.000 OA
ENDROOT
BRANCH   1  15
ATOM     11  C   UNL     1       5.379   5.307  18.794  0.00  0.00    +0.000 A 
ATOM     12  C   UNL     1       4.901   4.054  19.193  0.00  0.00    +0.000 A 
ATOM     13  C   UNL     1       3.597   3.896  19.707  0.00  0.00    +0.000 A 
ATOM     14  C   UNL     1       2.721   4.986  19.816  0.00  0.00    +0.000 A 
ATOM     15  C   UNL     1       3.146   6.244  19.413  0.00  0.00    +0.000 A 
ATOM     16  C   UNL     1       4.469   6.364  18.946  0.00  0.00    +0.000 A 
BRANCH  11  17
ATOM     17  C   UNL     1       6.855   5.609  18.204  0.00  0.00    +0.000 C 
ATOM     18  C   UNL     1       7.909   6.069  19.245  0.00  0.00    +0.000 C 
ATOM     19  O   UNL     1       8.111   7.336  18.592  0.00  0.00    +0.000 OA
ATOM     20  C   UNL     1       7.114   7.025  17.597  0.00  0.00    +0.000 C 
BRANCH  17  21
ATOM     21  C   UNL     1       7.349   4.464  17.283  0.00  0.00    +0.000 C 
BRANCH  21  27
ATOM     22  C   UNL     1       4.695   3.483  15.855  0.00  0.00    +0.000 C 
ATOM     23  N   UNL     1       5.801   4.181  15.255  0.00  0.00    +0.000 N 
ATOM     24  C   UNL     1       5.885   4.514  13.936  0.00  0.00    +0.000 A 
ATOM     25  N   UNL     1       7.033   5.100  13.704  0.00  0.00    +0.000 NA
ATOM     26  N   UNL     1       7.724   5.137  14.887  0.00  0.00    +0.000 NA
ATOM     27  C   UNL     1       6.971   4.613  15.837  0.00  0.00    +0.000 A 
ENDBRANCH  21  27
ENDBRANCH  17  21
ENDBRANCH  11  17
ENDBRANCH   1  15
BRANCH   8  28
ATOM     28  C   UNL     1       0.015   9.479  22.615  0.00  0.00    +0.000 C 
ATOM     29  F   UNL     1       1.143   9.193  23.318  0.00  0.00    +0.000 F 
ATOM     30  F   UNL     1      -0.617  10.466  23.307  0.00  0.00    +0.000 F 
ATOM     31  F   UNL     1      -0.770   8.374  22.726  0.00  0.00    +0.000 F 
ENDBRANCH   8  28
BRANCH   6  32
ATOM     32  C   UNL     1      -0.541  12.773  18.816  0.00  0.00    +0.000 C 
BRANCH  32  33
ATOM     33  N   UNL     1      -0.023  13.948  19.528  0.00  0.00    +0.000 NA
ATOM     34  C   UNL     1      -0.055  15.149  18.681  0.00  0.00    +0.000 C 
ATOM     35  C   UNL     1      -0.862  15.909  19.746  0.00  0.00    +0.000 C 
ATOM     36  F   UNL     1      -0.223  16.938  20.356  0.00  0.00    +0.000 F 
ATOM     37  C   UNL     1      -0.936  14.563  20.524  0.00  0.00    +0.000 C 
ATOM     38  C   UNL     1      -2.350  13.998  20.646  0.00  0.00    +0.000 C 
ATOM     39  C   UNL     1      -0.254  14.630  21.895  0.00  0.00    +0.000 C 
ENDBRANCH  32  33
ENDBRANCH   6  32
TORSDOF 7
ENDMDL
MODEL 2
REMARK VINA RESULT:      -8.9      1.544      2.395
REMARK  Name = 
REMARK  10 active torsions:
REMARK  status: ('A' for Active; 'I' for Inactive)
REMARK    1  A    between atoms: C_1  and  N_2
REMARK    2  A    between atoms: C_6  and  C_7
REMARK    3  A    between atoms: C_7  and  C_8
REMARK    4  A    between atoms: C_8  and  C_9
REMARK    5  A    between atoms: C_13  and  N_14
REMARK    6  A    between atoms: C_19  and  C_20
REMARK    7  A    between atoms: C_20  and  N_21
REMARK    8  A    between atoms: C_25  and  C_26
REMARK    9  A    between atoms: C_25  and  C_27
REMARK   10  A    between atoms: C_29  and  C_30
REMARK                            x       y       z     vdW  Elec       q    Type
REMARK                         _______ _______ _______ _____ _____    ______ ____
ROOT
ATOM      1  N   UNL     1       2.216   7.379  19.209  0.00  0.00    +0.000 N 
ATOM      2  C   UNL     1       1.475   7.716  20.412  0.00  0.00    +0.000 C 
ATOM      3  C   UNL     1       1.078   9.125  20.216  0.00  0.00    +0.000 A 
ATOM      4  C   UNL     1       1.450   9.546  18.941  0.00  0.00    +0.000 A 
ATOM      5  C   UNL     1       1.121  10.814  18.491  0.00  0.00    +0.000 A 
ATOM      6  C   UNL     1       0.413  11.671  19.368  0.00  0.00    +0.000 A 
ATOM      7  C   UNL     1       0.082  11.228  20.676  0.00  0.00    +0.000 A 
ATOM      8  C   UNL     1       0.426   9.950  21.126  0.00  0.00    +0.000 A 
ATOM      9  C   UNL     1       2.211   8.439  18.295  0.00  0.00    +0.000 C 
ATOM     10  O   UNL     1       2.726   8.529  17.193  0.00  0.00    +0.000 OA
ENDROOT
BRANCH   1  15
ATOM     11  C   UNL     1       4.531   4.741  17.888  0.00  0.00    +0.000 A 
ATOM     12  C   UNL     1       4.256   3.701  18.783  0.00  0.00    +0.000 A 
ATOM     13  C   UNL     1       3.353   3.873  19.853  0.00  0.00    +0.000 A 
ATOM     14  C   UNL     1       2.678   5.087  20.046  0.00  0.00    +0.000 A 
ATOM     15  C   UNL     1       2.904   6.140  19.171  0.00  0.00    +0.000 A 
ATOM     16  C   UNL     1       3.845   5.938  18.143  0.00  0.00    +0.000 A 
BRANCH  11  17
ATOM     17  C   UNL     1       5.553   4.663  16.636  0.00  0.00    +0.000 C 
ATOM     18  C   UNL     1       5.226   5.604  15.447  0.00  0.00    +0.000 C 
ATOM     19  O   UNL     1       5.060   4.508  14.529  0.00  0.00    +0.000 OA
ATOM     20  C   UNL     1       5.309   3.545  15.573  0.00  0.00    +0.000 C 
BRANCH  17  21
ATOM     21  C   UNL     1       7.032   4.737  17.098  0.00  0.00    +0.000 C 
BRANCH  21  27
ATOM     22  C   UNL     1       8.093   5.704  19.923  0.00  0.00    +0.000 C 
ATOM     23  N   UNL     1       7.966   6.489  18.725  0.00  0.00    +0.000 N 
ATOM     24  C   UNL     1       8.272   7.814  18.629  0.00  0.00    +0.000 A 
ATOM     25  N   UNL     1       8.003   8.239  17.420  0.00  0.00    +0.000 NA
ATOM     26  N   UNL     1       7.496   7.180  16.712  0.00  0.00    +0.000 NA
ATOM     27  C   UNL     1       7.502   6.110  17.486  0.00  0.00    +0.000 A 
ENDBRANCH  21  27
ENDBRANCH  17  21
ENDBRANCH  11  17
ENDBRANCH   1  15
BRANCH   8  28
ATOM     28  C   UNL     1       0.121   9.519  22.539  0.00  0.00    +0.000 C 
ATOM     29  F   UNL     1       1.211   9.119  23.244  0.00  0.00    +0.000 F 
ATOM     30  F   UNL     1      -0.451  10.517  23.269  0.00  0.00    +0.000 F 
ATOM     31  F   UNL     1      -0.745   8.470  22.585  0.00  0.00    +0.000 F 
ENDBRANCH   8  28
BRANCH   6  32
ATOM     32  C   UNL     1      -0.037  13.058  18.927  0.00  0.00    +0.000 C 
BRANCH  32  33
ATOM     33  N   UNL     1       0.700  14.130  19.608  0.00  0.00    +0.000 NA
ATOM     34  C   UNL     1       0.849  15.313  18.749  0.00  0.00    +0.000 C 
ATOM     35  C   UNL     1       0.222  16.207  19.829  0.00  0.00    +0.000 C 
ATOM     36  F   UNL     1       1.050  17.114  20.407  0.00  0.00    +0.000 F 
ATOM     37  C   UNL     1      -0.058  14.900  20.626  0.00  0.00    +0.000 C 
ATOM     38  C   UNL     1      -1.544  14.590  20.799  0.00  0.00    +0.000 C 
ATOM     39  C   UNL     1       0.670  14.855  21.973  0.00  0.00    +0.000 C 
ENDBRANCH  32  33
ENDBRANCH   6  32
TORSDOF 7
ENDMDL
MODEL 3
REMARK VINA RESULT:      -8.9      4.419     11.395
REMARK  Name = 
REMARK  10 active torsions:
REMARK  status: ('A' for Active; 'I' for Inactive)
REMARK    1  A    between atoms: C_1  and  N_2
REMARK    2  A    between atoms: C_6  and  C_7
REMARK    3  A    between atoms: C_7  and  C_8
REMARK    4  A    between atoms: C_8  and  C_9
REMARK    5  A    between atoms: C_13  and  N_14
REMARK    6  A    between atoms: C_19  and  C_20
REMARK    7  A    between atoms: C_20  and  N_21
REMARK    8  A    between atoms: C_25  and  C_26
REMARK    9  A    between atoms: C_25  and  C_27
REMARK   10  A    between atoms: C_29  and  C_30
REMARK                            x       y       z     vdW  Elec       q    Type
REMARK                         _______ _______ _______ _____ _____    ______ ____
ROOT
ATOM      1  N   UNL     1       0.092  10.922  21.551  0.00  0.00    +0.000 N 
ATOM      2  C   UNL     1       0.444  10.670  20.165  0.00  0.00    +0.000 C 
ATOM      3  C   UNL     1       1.046   9.321  20.179  0.00  0.00    +0.000 A 
ATOM      4  C   UNL     1       0.942   8.773  21.455  0.00  0.00    +0.000 A 
ATOM      5  C   UNL     1       1.371   7.479  21.706  0.00  0.00    +0.000 A 
ATOM      6  C   UNL     1       1.932   6.742  20.636  0.00  0.00    +0.000 A 
ATOM      7  C   UNL     1       2.061   7.342  19.355  0.00  0.00    +0.000 A 
ATOM      8  C   UNL     1       1.634   8.651  19.112  0.00  0.00    +0.000 A 
ATOM      9  C   UNL     1       0.356   9.807  22.355  0.00  0.00    +0.000 C 
ATOM     10  O   UNL     1       0.200   9.647  23.553  0.00  0.00    +0.000 OA
ENDROOT
BRANCH   1  15
ATOM     11  C   UNL     1      -2.209  13.572  22.873  0.00  0.00    +0.000 A 
ATOM     12  C   UNL     1      -1.480  14.720  22.542  0.00  0.00    +0.000 A 
ATOM     13  C   UNL     1      -0.210  14.632  21.934  0.00  0.00    +0.000 A 
ATOM     14  C   UNL     1       0.359  13.391  21.616  0.00  0.00    +0.000 A 
ATOM     15  C   UNL     1      -0.337  12.226  21.907  0.00  0.00    +0.000 A 
ATOM     16  C   UNL     1      -1.582  12.359  22.551  0.00  0.00    +0.000 A 
BRANCH  11  17
ATOM     17  C   UNL     1      -3.664  13.551  23.580  0.00  0.00    +0.000 C 
ATOM     18  C   UNL     1      -3.723  14.166  25.004  0.00  0.00    +0.000 C 
ATOM     19  O   UNL     1      -4.147  12.926  25.602  0.00  0.00    +0.000 OA
ATOM     20  C   UNL     1      -4.083  12.246  24.332  0.00  0.00    +0.000 C 
BRANCH  17  21
ATOM     21  C   UNL     1      -4.772  14.076  22.630  0.00  0.00    +0.000 C 
BRANCH  21  27
ATOM     22  C   UNL     1      -7.543  13.803  24.142  0.00  0.00    +0.000 C 
ATOM     23  N   UNL     1      -7.076  13.018  23.031  0.00  0.00    +0.000 N 
ATOM     24  C   UNL     1      -7.769  11.993  22.459  0.00  0.00    +0.000 A 
ATOM     25  N   UNL     1      -7.051  11.458  21.504  0.00  0.00    +0.000 NA
ATOM     26  N   UNL     1      -5.857  12.132  21.457  0.00  0.00    +0.000 NA
ATOM     27  C   UNL     1      -5.879  13.099  22.356  0.00  0.00    +0.000 A 
ENDBRANCH  21  27
ENDBRANCH  17  21
ENDBRANCH  11  17
ENDBRANCH   1  15
BRANCH   8  28
ATOM     28  C   UNL     1       1.836   9.293  17.762  0.00  0.00    +0.000 C 
ATOM     29  F   UNL     1       2.587   8.553  16.904  0.00  0.00    +0.000 F 
ATOM     30  F   UNL     1       0.657   9.525  17.121  0.00  0.00    +0.000 F 
ATOM     31  F   UNL     1       2.464  10.496  17.850  0.00  0.00    +0.000 F 
ENDBRANCH   8  28
BRANCH   6  32
ATOM     32  C   UNL     1       2.373   5.296  20.816  0.00  0.00    +0.000 C 
BRANCH  32  33
ATOM     33  N   UNL     1       2.810   4.681  19.556  0.00  0.00    +0.000 NA
ATOM     34  C   UNL     1       3.927   3.749  19.769  0.00  0.00    +0.000 C 
ATOM     35  C   UNL     1       3.151   2.621  19.071  0.00  0.00    +0.000 C 
ATOM     36  F   UNL     1       3.652   2.200  17.883  0.00  0.00    +0.000 F 
ATOM     37  C   UNL     1       1.944   3.602  19.019  0.00  0.00    +0.000 C 
ATOM     38  C   UNL     1       0.750   3.156  19.862  0.00  0.00    +0.000 C 
ATOM     39  C   UNL     1       1.508   3.936  17.589  0.00  0.00    +0.000 C 
ENDBRANCH  32  33
ENDBRANCH   6  32
TORSDOF 7
ENDMDL
MODEL 4
REMARK VINA RESULT:      -8.8      3.010      4.963
REMARK  Name = 
REMARK  10 active torsions:
REMARK  status: ('A' for Active; 'I' for Inactive)
REMARK    1  A    between atoms: C_1  and  N_2
REMARK    2  A    between atoms: C_6  and  C_7
REMARK    3  A    between atoms: C_7  and  C_8
REMARK    4  A    between atoms: C_8  and  C_9
REMARK    5  A    between atoms: C_13  and  N_14
REMARK    6  A    between atoms: C_19  and  C_20
REMARK    7  A    between atoms: C_20  and  N_21
REMARK    8  A    between atoms: C_25  and  C_26
REMARK    9  A    between atoms: C_25  and  C_27
REMARK   10  A    between atoms: C_29  and  C_30
REMARK                            x       y       z     vdW  Elec       q    Type
REMARK                         _______ _______ _______ _____ _____    ______ ____
ROOT
ATOM      1  N   UNL     1       1.132   9.429  19.758  0.00  0.00    +0.000 N 
ATOM      2  C   UNL     1       1.006  10.787  19.259  0.00  0.00    +0.000 C 
ATOM      3  C   UNL     1       0.054  11.432  20.185  0.00  0.00    +0.000 A 
ATOM      4  C   UNL     1      -0.261  10.557  21.222  0.00  0.00    +0.000 A 
ATOM      5  C   UNL     1      -1.083  10.959  22.261  0.00  0.00    +0.000 A 
ATOM      6  C   UNL     1      -1.606  12.275  22.229  0.00  0.00    +0.000 A 
ATOM      7  C   UNL     1      -1.299  13.131  21.138  0.00  0.00    +0.000 A 
ATOM      8  C   UNL     1      -0.475  12.714  20.089  0.00  0.00    +0.000 A 
ATOM      9  C   UNL     1       0.403   9.253  20.941  0.00  0.00    +0.000 C 
ATOM     10  O   UNL     1       0.264   8.262  21.638  0.00  0.00    +0.000 OA
ENDROOT
BRANCH   1  15
ATOM     11  C   UNL     1       2.627   6.119  18.825  0.00  0.00    +0.000 A 
ATOM     12  C   UNL     1       3.323   6.481  17.666  0.00  0.00    +0.000 A 
ATOM     13  C   UNL     1       3.264   7.794  17.155  0.00  0.00    +0.000 A 
ATOM     14  C   UNL     1       2.525   8.794  17.803  0.00  0.00    +0.000 A 
ATOM     15  C   UNL     1       1.835   8.486  18.967  0.00  0.00    +0.000 A 
ATOM     16  C   UNL     1       1.888   7.153  19.418  0.00  0.00    +0.000 A 
BRANCH  11  17
ATOM     17  C   UNL     1       2.611   4.646  19.494  0.00  0.00    +0.000 C 
ATOM     18  C   UNL     1       1.221   3.962  19.569  0.00  0.00    +0.000 C 
ATOM     19  O   UNL     1       1.250   3.891  21.006  0.00  0.00    +0.000 OA
ATOM     20  C   UNL     1       2.526   4.561  21.052  0.00  0.00    +0.000 C 
BRANCH  17  21
ATOM     21  C   UNL     1       3.721   3.737  18.906  0.00  0.00    +0.000 C 
BRANCH  21  27
ATOM     22  C   UNL     1       5.735   4.014  16.475  0.00  0.00    +0.000 C 
ATOM     23  N   UNL     1       5.940   4.450  17.831  0.00  0.00    +0.000 N 
ATOM     24  C   UNL     1       7.076   5.046  18.291  0.00  0.00    +0.000 A 
ATOM     25  N   UNL     1       6.960   5.278  19.574  0.00  0.00    +0.000 NA
ATOM     26  N   UNL     1       5.732   4.811  19.970  0.00  0.00    +0.000 NA
ATOM     27  C   UNL     1       5.097   4.339  18.913  0.00  0.00    +0.000 A 
ENDBRANCH  21  27
ENDBRANCH  17  21
ENDBRANCH  11  17
ENDBRANCH   1  15
BRANCH   8  28
ATOM     28  C   UNL     1      -0.210  13.616  18.908  0.00  0.00    +0.000 C 
ATOM     29  F   UNL     1      -0.709  13.151  17.733  0.00  0.00    +0.000 F 
ATOM     30  F   UNL     1      -0.747  14.856  19.078  0.00  0.00    +0.000 F 
ATOM     31  F   UNL     1       1.119  13.804  18.689  0.00  0.00    +0.000 F 
ENDBRANCH   8  28
BRANCH   6  32
ATOM     32  C   UNL     1      -2.469  12.812  23.363  0.00  0.00    +0.000 C 
BRANCH  32  33
ATOM     33  N   UNL     1      -3.838  12.283  23.325  0.00  0.00    +0.000 NA
ATOM     34  C   UNL     1      -4.471  12.326  24.651  0.00  0.00    +0.000 C 
ATOM     35  C   UNL     1      -5.661  13.117  24.084  0.00  0.00    +0.000 C 
ATOM     36  F   UNL     1      -6.852  12.468  24.064  0.00  0.00    +0.000 F 
ATOM     37  C   UNL     1      -4.870  13.180  22.746  0.00  0.00    +0.000 C 
ATOM     38  C   UNL     1      -4.447  14.592  22.345  0.00  0.00    +0.000 C 
ATOM     39  C   UNL     1      -5.593  12.478  21.592  0.00  0.00    +0.000 C 
ENDBRANCH  32  33
ENDBRANCH   6  32
TORSDOF 7
ENDMDL
MODEL 5
REMARK VINA RESULT:      -8.7      4.276     11.309
REMARK  Name = 
REMARK  10 active torsions:
REMARK  status: ('A' for Active; 'I' for Inactive)
REMARK    1  A    between atoms: C_1  and  N_2
REMARK    2  A    between atoms: C_6  and  C_7
REMARK    3  A    between atoms: C_7  and  C_8
REMARK    4  A    between atoms: C_8  and  C_9
REMARK    5  A    between atoms: C_13  and  N_14
REMARK    6  A    between atoms: C_19  and  C_20
REMARK    7  A    between atoms: C_20  and  N_21
REMARK    8  A    between atoms: C_25  and  C_26
REMARK    9  A    between atoms: C_25  and  C_27
REMARK   10  A    between atoms: C_29  and  C_30
REMARK                            x       y       z     vdW  Elec       q    Type
REMARK                         _______ _______ _______ _____ _____    ______ ____
ROOT
ATOM      1  N   UNL     1       0.120  11.245  21.571  0.00  0.00    +0.000 N 
ATOM      2  C   UNL     1       0.481  10.942  20.197  0.00  0.00    +0.000 C 
ATOM      3  C   UNL     1       0.962   9.546  20.243  0.00  0.00    +0.000 A 
ATOM      4  C   UNL     1       0.781   9.028  21.524  0.00  0.00    +0.000 A 
ATOM      5  C   UNL     1       1.089   7.707  21.802  0.00  0.00    +0.000 A 
ATOM      6  C   UNL     1       1.608   6.907  20.755  0.00  0.00    +0.000 A 
ATOM      7  C   UNL     1       1.818   7.473  19.470  0.00  0.00    +0.000 A 
ATOM      8  C   UNL     1       1.512   8.811  19.200  0.00  0.00    +0.000 A 
ATOM      9  C   UNL     1       0.268  10.123  22.395  0.00  0.00    +0.000 C 
ATOM     10  O   UNL     1       0.072   9.996  23.592  0.00  0.00    +0.000 OA
ENDROOT
BRANCH   1  15
ATOM     11  C   UNL     1      -1.859  14.076  23.030  0.00  0.00    +0.000 A 
ATOM     12  C   UNL     1      -1.139  15.166  22.527  0.00  0.00    +0.000 A 
ATOM     13  C   UNL     1       0.025  14.981  21.752  0.00  0.00    +0.000 A 
ATOM     14  C   UNL     1       0.493  13.697  21.438  0.00  0.00    +0.000 A 
ATOM     15  C   UNL     1      -0.200  12.587  21.898  0.00  0.00    +0.000 A 
ATOM     16  C   UNL     1      -1.333  12.818  22.702  0.00  0.00    +0.000 A 
BRANCH  11  17
ATOM     17  C   UNL     1      -3.196  14.167  23.936  0.00  0.00    +0.000 C 
ATOM     18  C   UNL     1      -4.077  15.423  23.702  0.00  0.00    +0.000 C 
ATOM     19  O   UNL     1      -3.923  15.875  25.060  0.00  0.00    +0.000 OA
ATOM     20  C   UNL     1      -3.056  14.765  25.373  0.00  0.00    +0.000 C 
BRANCH  17  21
ATOM     21  C   UNL     1      -3.993  12.837  23.917  0.00  0.00    +0.000 C 
BRANCH  21  27
ATOM     22  C   UNL     1      -7.141  13.134  24.130  0.00  0.00    +0.000 C 
ATOM     23  N   UNL     1      -6.368  12.872  22.945  0.00  0.00    +0.000 N 
ATOM     24  C   UNL     1      -6.894  12.685  21.702  0.00  0.00    +0.000 A 
ATOM     25  N   UNL     1      -5.931  12.424  20.854  0.00  0.00    +0.000 NA
ATOM     26  N   UNL     1      -4.752  12.423  21.554  0.00  0.00    +0.000 NA
ATOM     27  C   UNL     1      -5.006  12.726  22.814  0.00  0.00    +0.000 A 
ENDBRANCH  21  27
ENDBRANCH  17  21
ENDBRANCH  11  17
ENDBRANCH   1  15
BRANCH   8  28
ATOM     28  C   UNL     1       1.800   9.411  17.846  0.00  0.00    +0.000 C 
ATOM     29  F   UNL     1       0.687   9.718  17.128  0.00  0.00    +0.000 F 
ATOM     30  F   UNL     1       2.516  10.565  17.937  0.00  0.00    +0.000 F 
ATOM     31  F   UNL     1       2.524   8.575  17.053  0.00  0.00    +0.000 F 
ENDBRANCH   8  28
BRANCH   6  32
ATOM     32  C   UNL     1       1.916   5.430  20.966  0.00  0.00    +0.000 C 
BRANCH  32  33
ATOM     33  N   UNL     1       2.207   4.733  19.706  0.00  0.00    +0.000 NA
ATOM     34  C   UNL     1       3.653   4.559  19.508  0.00  0.00    +0.000 C 
ATOM     35  C   UNL     1       3.471   3.044  19.325  0.00  0.00    +0.000 C 
ATOM     36  F   UNL     1       3.725   2.559  18.084  0.00  0.00    +0.000 F 
ATOM     37  C   UNL     1       1.977   3.266  19.703  0.00  0.00    +0.000 C 
ATOM     38  C   UNL     1       1.568   2.602  21.016  0.00  0.00    +0.000 C 
ATOM     39  C   UNL     1       1.014   2.885  18.574  0.00  0.00    +0.000 C 
ENDBRANCH  32  33
ENDBRANCH   6  32
TORSDOF 7
ENDMDL
MODEL 6
REMARK VINA RESULT:      -8.7      1.016      1.394
REMARK  Name = 
REMARK  10 active torsions:
REMARK  status: ('A' for Active; 'I' for Inactive)
REMARK    1  A    between atoms: C_1  and  N_2
REMARK    2  A    between atoms: C_6  and  C_7
REMARK    3  A    between atoms: C_7  and  C_8
REMARK    4  A    between atoms: C_8  and  C_9
REMARK    5  A    between atoms: C_13  and  N_14
REMARK    6  A    between atoms: C_19  and  C_20
REMARK    7  A    between atoms: C_20  and  N_21
REMARK    8  A    between atoms: C_25  and  C_26
REMARK    9  A    between atoms: C_25  and  C_27
REMARK   10  A    between atoms: C_29  and  C_30
REMARK                            x       y       z     vdW  Elec       q    Type
REMARK                         _______ _______ _______ _____ _____    ______ ____
ROOT
ATOM      1  N   UNL     1       1.971   7.650  19.567  0.00  0.00    +0.000 N 
ATOM      2  C   UNL     1       1.190   7.944  20.756  0.00  0.00    +0.000 C 
ATOM      3  C   UNL     1       0.727   9.332  20.557  0.00  0.00    +0.000 A 
ATOM      4  C   UNL     1       1.103   9.778  19.292  0.00  0.00    +0.000 A 
ATOM      5  C   UNL     1       0.719  11.030  18.841  0.00  0.00    +0.000 A 
ATOM      6  C   UNL     1      -0.048  11.847  19.706  0.00  0.00    +0.000 A 
ATOM      7  C   UNL     1      -0.383  11.380  21.006  0.00  0.00    +0.000 A 
ATOM      8  C   UNL     1       0.016  10.118  21.457  0.00  0.00    +0.000 A 
ATOM      9  C   UNL     1       1.931   8.714  18.657  0.00  0.00    +0.000 C 
ATOM     10  O   UNL     1       2.463   8.836  17.566  0.00  0.00    +0.000 OA
ENDROOT
BRANCH   1  15
ATOM     11  C   UNL     1       4.856   5.385  18.787  0.00  0.00    +0.000 A 
ATOM     12  C   UNL     1       4.327   4.159  19.206  0.00  0.00    +0.000 A 
ATOM     13  C   UNL     1       3.047   4.074  19.792  0.00  0.00    +0.000 A 
ATOM     14  C   UNL     1       2.246   5.213  19.957  0.00  0.00    +0.000 A 
ATOM     15  C   UNL     1       2.721   6.448  19.538  0.00  0.00    +0.000 A 
ATOM     16  C   UNL     1       4.020   6.492  18.996  0.00  0.00    +0.000 A 
BRANCH  11  17
ATOM     17  C   UNL     1       6.311   5.604  18.114  0.00  0.00    +0.000 C 
ATOM     18  C   UNL     1       7.211   4.342  18.046  0.00  0.00    +0.000 C 
ATOM     19  O   UNL     1       8.234   4.937  18.867  0.00  0.00    +0.000 OA
ATOM     20  C   UNL     1       7.457   6.141  19.031  0.00  0.00    +0.000 C 
BRANCH  17  21
ATOM     21  C   UNL     1       6.212   6.370  16.770  0.00  0.00    +0.000 C 
BRANCH  21  27
ATOM     22  C   UNL     1       4.307   4.097  15.653  0.00  0.00    +0.000 C 
ATOM     23  N   UNL     1       5.551   4.548  15.088  0.00  0.00    +0.000 N 
ATOM     24  C   UNL     1       6.124   4.032  13.964  0.00  0.00    +0.000 A 
ATOM     25  N   UNL     1       7.268   4.628  13.743  0.00  0.00    +0.000 NA
ATOM     26  N   UNL     1       7.460   5.542  14.748  0.00  0.00    +0.000 NA
ATOM     27  C   UNL     1       6.408   5.521  15.547  0.00  0.00    +0.000 A 
ENDBRANCH  21  27
ENDBRANCH  17  21
ENDBRANCH  11  17
ENDBRANCH   1  15
BRANCH   8  28
ATOM     28  C   UNL     1      -0.296   9.666  22.862  0.00  0.00    +0.000 C 
ATOM     29  F   UNL     1      -1.016   8.515  22.926  0.00  0.00    +0.000 F 
ATOM     30  F   UNL     1       0.831   9.443  23.593  0.00  0.00    +0.000 F 
ATOM     31  F   UNL     1      -1.022  10.586  23.553  0.00  0.00    +0.000 F 
ENDBRANCH   8  28
BRANCH   6  32
ATOM     32  C   UNL     1      -0.558  13.211  19.262  0.00  0.00    +0.000 C 
BRANCH  32  33
ATOM     33  N   UNL     1       0.533  14.144  18.954  0.00  0.00    +0.000 NA
ATOM     34  C   UNL     1       0.024  15.405  18.396  0.00  0.00    +0.000 C 
ATOM     35  C   UNL     1       0.768  16.211  19.473  0.00  0.00    +0.000 C 
ATOM     36  F   UNL     1       1.792  16.986  19.035  0.00  0.00    +0.000 F 
ATOM     37  C   UNL     1       1.143  14.843  20.114  0.00  0.00    +0.000 C 
ATOM     38  C   UNL     1       0.524  14.618  21.492  0.00  0.00    +0.000 C 
ATOM     39  C   UNL     1       2.654  14.594  20.146  0.00  0.00    +0.000 C 
ENDBRANCH  32  33
ENDBRANCH   6  32
TORSDOF 7
ENDMDL
MODEL 7
REMARK VINA RESULT:      -8.7      1.764      2.667
REMARK  Name = 
REMARK  10 active torsions:
REMARK  status: ('A' for Active; 'I' for Inactive)
REMARK    1  A    between atoms: C_1  and  N_2
REMARK    2  A    between atoms: C_6  and  C_7
REMARK    3  A    between atoms: C_7  and  C_8
REMARK    4  A    between atoms: C_8  and  C_9
REMARK    5  A    between atoms: C_13  and  N_14
REMARK    6  A    between atoms: C_19  and  C_20
REMARK    7  A    between atoms: C_20  and  N_21
REMARK    8  A    between atoms: C_25  and  C_26
REMARK    9  A    between atoms: C_25  and  C_27
REMARK   10  A    between atoms: C_29  and  C_30
REMARK                            x       y       z     vdW  Elec       q    Type
REMARK                         _______ _______ _______ _____ _____    ______ ____
ROOT
ATOM      1  N   UNL     1       2.178   7.439  19.294  0.00  0.00    +0.000 N 
ATOM      2  C   UNL     1       1.457   7.719  20.523  0.00  0.00    +0.000 C 
ATOM      3  C   UNL     1       0.999   9.115  20.370  0.00  0.00    +0.000 A 
ATOM      4  C   UNL     1       1.320   9.579  19.096  0.00  0.00    +0.000 A 
ATOM      5  C   UNL     1       0.928  10.842  18.684  0.00  0.00    +0.000 A 
ATOM      6  C   UNL     1       0.211  11.651  19.598  0.00  0.00    +0.000 A 
ATOM      7  C   UNL     1      -0.067  11.165  20.904  0.00  0.00    +0.000 A 
ATOM      8  C   UNL     1       0.339   9.893  21.315  0.00  0.00    +0.000 A 
ATOM      9  C   UNL     1       2.107   8.518  18.405  0.00  0.00    +0.000 C 
ATOM     10  O   UNL     1       2.588   8.653  17.293  0.00  0.00    +0.000 OA
ENDROOT
BRANCH   1  15
ATOM     11  C   UNL     1       4.555   4.924  17.849  0.00  0.00    +0.000 A 
ATOM     12  C   UNL     1       4.350   3.856  18.731  0.00  0.00    +0.000 A 
ATOM     13  C   UNL     1       3.475   3.971  19.831  0.00  0.00    +0.000 A 
ATOM     14  C   UNL     1       2.758   5.152  20.070  0.00  0.00    +0.000 A 
ATOM     15  C   UNL     1       2.914   6.230  19.210  0.00  0.00    +0.000 A 
ATOM     16  C   UNL     1       3.829   6.086  18.149  0.00  0.00    +0.000 A 
BRANCH  11  17
ATOM     17  C   UNL     1       5.539   4.911  16.566  0.00  0.00    +0.000 C 
ATOM     18  C   UNL     1       5.187   5.924  15.444  0.00  0.00    +0.000 C 
ATOM     19  O   UNL     1       4.983   4.885  14.468  0.00  0.00    +0.000 OA
ATOM     20  C   UNL     1       5.253   3.860  15.446  0.00  0.00    +0.000 C 
BRANCH  17  21
ATOM     21  C   UNL     1       7.031   4.945  16.987  0.00  0.00    +0.000 C 
BRANCH  21  27
ATOM     22  C   UNL     1       8.016   5.730  19.895  0.00  0.00    +0.000 C 
ATOM     23  N   UNL     1       7.949   6.582  18.738  0.00  0.00    +0.000 N 
ATOM     24  C   UNL     1       8.289   7.902  18.726  0.00  0.00    +0.000 A 
ATOM     25  N   UNL     1       8.073   8.399  17.534  0.00  0.00    +0.000 NA
ATOM     26  N   UNL     1       7.566   7.393  16.752  0.00  0.00    +0.000 NA
ATOM     27  C   UNL     1       7.519   6.282  17.465  0.00  0.00    +0.000 A 
ENDBRANCH  21  27
ENDBRANCH  17  21
ENDBRANCH  11  17
ENDBRANCH   1  15
BRANCH   8  28
ATOM     28  C   UNL     1       0.089   9.419  22.726  0.00  0.00    +0.000 C 
ATOM     29  F   UNL     1       1.216   9.078  23.403  0.00  0.00    +0.000 F 
ATOM     30  F   UNL     1      -0.531  10.365  23.483  0.00  0.00    +0.000 F 
ATOM     31  F   UNL     1      -0.707   8.316  22.767  0.00  0.00    +0.000 F 
ENDBRANCH   8  28
BRANCH   6  32
ATOM     32  C   UNL     1      -0.306  13.027  19.201  0.00  0.00    +0.000 C 
BRANCH  32  33
ATOM     33  N   UNL     1       0.745  13.875  18.623  0.00  0.00    +0.000 NA
ATOM     34  C   UNL     1       0.228  15.202  18.258  0.00  0.00    +0.000 C 
ATOM     35  C   UNL     1       1.314  15.885  19.103  0.00  0.00    +0.000 C 
ATOM     36  F   UNL     1       2.250  16.587  18.416  0.00  0.00    +0.000 F 
ATOM     37  C   UNL     1       1.715  14.460  19.584  0.00  0.00    +0.000 C 
ATOM     38  C   UNL     1       1.479  14.223  21.074  0.00  0.00    +0.000 C 
ATOM     39  C   UNL     1       3.145  14.078  19.189  0.00  0.00    +0.000 C 
ENDBRANCH  32  33
ENDBRANCH   6  32
TORSDOF 7
ENDMDL
MODEL 8
REMARK VINA RESULT:      -8.7      0.910      1.300
REMARK  Name = 
REMARK  10 active torsions:
REMARK  status: ('A' for Active; 'I' for Inactive)
REMARK    1  A    between atoms: C_1  and  N_2
REMARK    2  A    between atoms: C_6  and  C_7
REMARK    3  A    between atoms: C_7  and  C_8
REMARK    4  A    between atoms: C_8  and  C_9
REMARK    5  A    between atoms: C_13  and  N_14
REMARK    6  A    between atoms: C_19  and  C_20
REMARK    7  A    between atoms: C_20  and  N_21
REMARK    8  A    between atoms: C_25  and  C_26
REMARK    9  A    between atoms: C_25  and  C_27
REMARK   10  A    between atoms: C_29  and  C_30
REMARK                            x       y       z     vdW  Elec       q    Type
REMARK                         _______ _______ _______ _____ _____    ______ ____
ROOT
ATOM      1  N   UNL     1       2.079   7.463  19.151  0.00  0.00    +0.000 N 
ATOM      2  C   UNL     1       1.362   7.782  20.373  0.00  0.00    +0.000 C 
ATOM      3  C   UNL     1       0.977   9.199  20.214  0.00  0.00    +0.000 A 
ATOM      4  C   UNL     1       1.333   9.644  18.943  0.00  0.00    +0.000 A 
ATOM      5  C   UNL     1       1.011  10.925  18.526  0.00  0.00    +0.000 A 
ATOM      6  C   UNL     1       0.327  11.770  19.433  0.00  0.00    +0.000 A 
ATOM      7  C   UNL     1       0.012  11.302  20.736  0.00  0.00    +0.000 A 
ATOM      8  C   UNL     1       0.349  10.010  21.152  0.00  0.00    +0.000 A 
ATOM      9  C   UNL     1       2.071   8.544  18.260  0.00  0.00    +0.000 C 
ATOM     10  O   UNL     1       2.569   8.652  17.152  0.00  0.00    +0.000 OA
ENDROOT
BRANCH   1  15
ATOM     11  C   UNL     1       4.647   4.978  18.014  0.00  0.00    +0.000 A 
ATOM     12  C   UNL     1       4.155   3.819  18.624  0.00  0.00    +0.000 A 
ATOM     13  C   UNL     1       3.013   3.853  19.451  0.00  0.00    +0.000 A 
ATOM     14  C   UNL     1       2.313   5.047  19.675  0.00  0.00    +0.000 A 
ATOM     15  C   UNL     1       2.753   6.218  19.074  0.00  0.00    +0.000 A 
ATOM     16  C   UNL     1       3.921   6.146  18.291  0.00  0.00    +0.000 A 
BRANCH  11  17
ATOM     17  C   UNL     1       5.950   5.061  17.059  0.00  0.00    +0.000 C 
ATOM     18  C   UNL     1       7.302   4.723  17.742  0.00  0.00    +0.000 C 
ATOM     19  O   UNL     1       7.845   6.030  17.481  0.00  0.00    +0.000 OA
ATOM     20  C   UNL     1       6.615   6.461  16.864  0.00  0.00    +0.000 C 
BRANCH  17  21
ATOM     21  C   UNL     1       5.727   4.312  15.719  0.00  0.00    +0.000 C 
BRANCH  21  27
ATOM     22  C   UNL     1       5.675   3.361  12.697  0.00  0.00    +0.000 C 
ATOM     23  N   UNL     1       6.582   4.302  13.299  0.00  0.00    +0.000 N 
ATOM     24  C   UNL     1       7.600   4.927  12.643  0.00  0.00    +0.000 A 
ATOM     25  N   UNL     1       8.263   5.682  13.481  0.00  0.00    +0.000 NA
ATOM     26  N   UNL     1       7.681   5.540  14.715  0.00  0.00    +0.000 NA
ATOM     27  C   UNL     1       6.643   4.732  14.605  0.00  0.00    +0.000 A 
ENDBRANCH  21  27
ENDBRANCH  17  21
ENDBRANCH  11  17
ENDBRANCH   1  15
BRANCH   8  28
ATOM     28  C   UNL     1       0.061   9.552  22.560  0.00  0.00    +0.000 C 
ATOM     29  F   UNL     1      -0.536  10.493  23.338  0.00  0.00    +0.000 F 
ATOM     30  F   UNL     1      -0.760   8.466  22.590  0.00  0.00    +0.000 F 
ATOM     31  F   UNL     1       1.191   9.193  23.228  0.00  0.00    +0.000 F 
ENDBRANCH   8  28
BRANCH   6  32
ATOM     32  C   UNL     1      -0.115  13.171  19.029  0.00  0.00    +0.000 C 
BRANCH  32  33
ATOM     33  N   UNL     1       0.602  14.219  19.768  0.00  0.00    +0.000 NA
ATOM     34  C   UNL     1       0.926  15.363  18.903  0.00  0.00    +0.000 C 
ATOM     35  C   UNL     1       0.232  16.327  19.877  0.00  0.00    +0.000 C 
ATOM     36  F   UNL     1       1.040  17.201  20.527  0.00  0.00    +0.000 F 
ATOM     37  C   UNL     1      -0.222  15.066  20.667  0.00  0.00    +0.000 C 
ATOM     38  C   UNL     1      -1.734  14.849  20.667  0.00  0.00    +0.000 C 
ATOM     39  C   UNL     1       0.336  15.022  22.092  0.00  0.00    +0.000 C 
ENDBRANCH  32  33
ENDBRANCH   6  32
TORSDOF 7
ENDMDL
MODEL 9
REMARK VINA RESULT:      -8.7      3.265      9.519
REMARK  Name = 
REMARK  10 active torsions:
REMARK  status: ('A' for Active; 'I' for Inactive)
REMARK    1  A    between atoms: C_1  and  N_2
REMARK    2  A    between atoms: C_6  and  C_7
REMARK    3  A    between atoms: C_7  and  C_8
REMARK    4  A    between atoms: C_8  and  C_9
REMARK    5  A    between atoms: C_13  and  N_14
REMARK    6  A    between atoms: C_19  and  C_20
REMARK    7  A    between atoms: C_20  and  N_21
REMARK    8  A    between atoms: C_25  and  C_26
REMARK    9  A    between atoms: C_25  and  C_27
REMARK   10  A    between atoms: C_29  and  C_30
REMARK                            x       y       z     vdW  Elec       q    Type
REMARK                         _______ _______ _______ _____ _____    ______ ____
ROOT
ATOM      1  N   UNL     1       1.368   7.960  20.462  0.00  0.00    +0.000 N 
ATOM      2  C   UNL     1       1.542   6.629  21.018  0.00  0.00    +0.000 C 
ATOM      3  C   UNL     1       2.128   5.843  19.912  0.00  0.00    +0.000 A 
ATOM      4  C   UNL     1       2.392   6.679  18.830  0.00  0.00    +0.000 A 
ATOM      5  C   UNL     1       3.013   6.188  17.693  0.00  0.00    +0.000 A 
ATOM      6  C   UNL     1       3.353   4.814  17.657  0.00  0.00    +0.000 A 
ATOM      7  C   UNL     1       3.035   3.978  18.762  0.00  0.00    +0.000 A 
ATOM      8  C   UNL     1       2.400   4.480  19.902  0.00  0.00    +0.000 A 
ATOM      9  C   UNL     1       1.878   8.038  19.161  0.00  0.00    +0.000 C 
ATOM     10  O   UNL     1       1.906   8.977  18.383  0.00  0.00    +0.000 OA
ENDROOT
BRANCH   1  15
ATOM     11  C   UNL     1      -0.577  11.094  21.139  0.00  0.00    +0.000 A 
ATOM     12  C   UNL     1      -0.685  11.021  22.532  0.00  0.00    +0.000 A 
ATOM     13  C   UNL     1      -0.169   9.923  23.252  0.00  0.00    +0.000 A 
ATOM     14  C   UNL     1       0.493   8.873  22.599  0.00  0.00    +0.000 A 
ATOM     15  C   UNL     1       0.641   8.912  21.221  0.00  0.00    +0.000 A 
ATOM     16  C   UNL     1       0.074  10.006  20.538  0.00  0.00    +0.000 A 
BRANCH  11  17
ATOM     17  C   UNL     1      -1.139  12.294  20.210  0.00  0.00    +0.000 C 
ATOM     18  C   UNL     1      -2.677  12.314  20.004  0.00  0.00    +0.000 C 
ATOM     19  O   UNL     1      -2.562  12.153  18.578  0.00  0.00    +0.000 OA
ATOM     20  C   UNL     1      -1.124  12.078  18.663  0.00  0.00    +0.000 C 
BRANCH  17  21
ATOM     21  C   UNL     1      -0.550  13.666  20.629  0.00  0.00    +0.000 C 
BRANCH  21  27
ATOM     22  C   UNL     1      -0.029  16.069  18.629  0.00  0.00    +0.000 C 
ATOM     23  N   UNL     1       0.925  15.093  19.087  0.00  0.00    +0.000 N 
ATOM     24  C   UNL     1       2.230  15.043  18.699  0.00  0.00    +0.000 A 
ATOM     25  N   UNL     1       2.814  14.014  19.260  0.00  0.00    +0.000 NA
ATOM     26  N   UNL     1       1.873  13.366  20.018  0.00  0.00    +0.000 NA
ATOM     27  C   UNL     1       0.736  14.033  19.944  0.00  0.00    +0.000 A 
ENDBRANCH  21  27
ENDBRANCH  17  21
ENDBRANCH  11  17
ENDBRANCH   1  15
BRANCH   8  28
ATOM     28  C   UNL     1       2.015   3.565  21.038  0.00  0.00    +0.000 C 
ATOM     29  F   UNL     1       2.418   4.001  22.260  0.00  0.00    +0.000 F 
ATOM     30  F   UNL     1       0.667   3.395  21.127  0.00  0.00    +0.000 F 
ATOM     31  F   UNL     1       2.548   2.321  20.903  0.00  0.00    +0.000 F 
ENDBRANCH   8  28
BRANCH   6  32
ATOM     32  C   UNL     1       4.089   4.211  16.469  0.00  0.00    +0.000 C 
BRANCH  32  33
ATOM     33  N   UNL     1       5.543   4.407  16.552  0.00  0.00    +0.000 NA
ATOM     34  C   UNL     1       6.253   3.620  15.534  0.00  0.00    +0.000 C 
ATOM     35  C   UNL     1       6.961   4.882  15.017  0.00  0.00    +0.000 C 
ATOM     36  F   UNL     1       8.301   4.939  15.220  0.00  0.00    +0.000 F 
ATOM     37  C   UNL     1       6.063   5.684  16.003  0.00  0.00    +0.000 C 
ATOM     38  C   UNL     1       5.075   6.623  15.313  0.00  0.00    +0.000 C 
ATOM     39  C   UNL     1       6.869   6.429  17.071  0.00  0.00    +0.000 C 
ENDBRANCH  32  33
ENDBRANCH   6  32
TORSDOF 7
ENDMDL
