MODEL 1
REMARK VINA RESULT:      -8.5      0.000      0.000
REMARK  Name = 
REMARK  7 active torsions:
REMARK  status: ('A' for Active; 'I' for Inactive)
REMARK    1  A    between atoms: C_1  and  C_2
REMARK    2  A    between atoms: C_2  and  C_3
REMARK    3  A    between atoms: C_2  and  C_10
REMARK    4  A    between atoms: C_3  and  C_4
REMARK    5  A    between atoms: N_8  and  C_9
REMARK    6  A    between atoms: C_14  and  N_15
REMARK    7  A    between atoms: C_22  and  C_23
REMARK                            x       y       z     vdW  Elec       q    Type
REMARK                         _______ _______ _______ _____ _____    ______ ____
ROOT
ATOM      1  C   UNL     1      -0.099  10.579  21.079  0.00  0.00    +0.000 A 
ATOM      2  C   UNL     1      -0.737  11.265  20.042  0.00  0.00    +0.000 A 
ATOM      3  C   UNL     1      -0.466  10.948  18.703  0.00  0.00    +0.000 A 
ATOM      4  C   UNL     1       0.437   9.927  18.369  0.00  0.00    +0.000 A 
ATOM      5  C   UNL     1       1.075   9.215  19.378  0.00  0.00    +0.000 A 
ATOM      6  C   UNL     1       0.817   9.589  20.710  0.00  0.00    +0.000 A 
ENDROOT
BRANCH   5   7
ATOM      7  N   UNL     1       1.918   8.098  19.148  0.00  0.00    +0.000 N 
ATOM      8  C   UNL     1       1.917   6.992  20.092  0.00  0.00    +0.000 C 
ATOM      9  C   UNL     1       2.748   5.967  19.435  0.00  0.00    +0.000 A 
ATOM     10  C   UNL     1       3.261   6.453  18.246  0.00  0.00    +0.000 A 
ATOM     11  C   UNL     1       4.080   5.681  17.462  0.00  0.00    +0.000 A 
ATOM     12  C   UNL     1       4.333   4.410  17.956  0.00  0.00    +0.000 A 
ATOM     13  N   UNL     1       3.806   3.901  19.111  0.00  0.00    +0.000 NA
ATOM     14  C   UNL     1       2.990   4.681  19.860  0.00  0.00    +0.000 A 
ATOM     15  C   UNL     1       2.715   7.814  18.035  0.00  0.00    +0.000 C 
ATOM     16  O   UNL     1       2.955   8.475  17.042  0.00  0.00    +0.000 OA
BRANCH  14  17
ATOM     17  C   UNL     1       2.273   4.133  21.071  0.00  0.00    +0.000 C 
ATOM     18  C   UNL     1       1.221   3.063  20.960  0.00  0.00    +0.000 C 
ATOM     19  C   UNL     1       2.559   2.727  21.554  0.00  0.00    +0.000 C 
ENDBRANCH  14  17
ENDBRANCH   5   7
BRANCH   1  21
ATOM     20  C   UNL     1      -0.513   9.573  23.418  0.00  0.00    +0.000 C 
ATOM     21  C   UNL     1      -0.419  10.852  22.553  0.00  0.00    +0.000 C 
BRANCH  21  22
ATOM     22  C   UNL     1      -1.725  11.670  22.650  0.00  0.00    +0.000 C 
BRANCH  22  23
ATOM     23  C   UNL     1      -1.547  13.023  23.252  0.00  0.00    +0.000 A 
ATOM     24  N   UNL     1      -0.422  13.708  23.296  0.00  0.00    +0.000 NA
ATOM     25  N   UNL     1      -0.658  14.884  23.967  0.00  0.00    +0.000 NA
ATOM     26  C   UNL     1      -1.920  14.889  24.322  0.00  0.00    +0.000 A 
ATOM     27  N   UNL     1      -2.523  13.755  23.877  0.00  0.00    +0.000 N 
ATOM     28  C   UNL     1      -3.910  13.412  24.039  0.00  0.00    +0.000 C 
ENDBRANCH  22  23
ENDBRANCH  21  22
ENDBRANCH   1  21
TORSDOF 5
ENDMDL
MODEL 2
REMARK VINA RESULT:      -8.2      3.160      9.187
REMARK  Name = 
REMARK  7 active torsions:
REMARK  status: ('A' for Active; 'I' for Inactive)
REMARK    1  A    between atoms: C_1  and  C_2
REMARK    2  A    between atoms: C_2  and  C_3
REMARK    3  A    between atoms: C_2  and  C_10
REMARK    4  A    between atoms: C_3  and  C_4
REMARK    5  A    between atoms: N_8  and  C_9
REMARK    6  A    between atoms: C_14  and  N_15
REMARK    7  A    between atoms: C_22  and  C_23
REMARK                            x       y       z     vdW  Elec       q    Type
REMARK                         _______ _______ _______ _____ _____    ______ ____
ROOT
ATOM      1  C   UNL     1       4.647   4.984  16.560  0.00  0.00    +0.000 A 
ATOM      2  C   UNL     1       4.140   3.683  16.539  0.00  0.00    +0.000 A 
ATOM      3  C   UNL     1       3.119   3.301  17.422  0.00  0.00    +0.000 A 
ATOM      4  C   UNL     1       2.569   4.215  18.333  0.00  0.00    +0.000 A 
ATOM      5  C   UNL     1       3.041   5.522  18.366  0.00  0.00    +0.000 A 
ATOM      6  C   UNL     1       4.099   5.861  17.501  0.00  0.00    +0.000 A 
ENDROOT
BRANCH   5   7
ATOM      7  N   UNL     1       2.481   6.547  19.172  0.00  0.00    +0.000 N 
ATOM      8  C   UNL     1       2.363   7.894  18.638  0.00  0.00    +0.000 C 
ATOM      9  C   UNL     1       1.583   8.611  19.662  0.00  0.00    +0.000 A 
ATOM     10  C   UNL     1       1.331   7.785  20.742  0.00  0.00    +0.000 A 
ATOM     11  C   UNL     1       0.632   8.238  21.831  0.00  0.00    +0.000 A 
ATOM     12  C   UNL     1       0.211   9.557  21.748  0.00  0.00    +0.000 A 
ATOM     13  N   UNL     1       0.421  10.377  20.673  0.00  0.00    +0.000 NA
ATOM     14  C   UNL     1       1.104   9.900  19.606  0.00  0.00    +0.000 A 
ATOM     15  C   UNL     1       1.881   6.445  20.430  0.00  0.00    +0.000 C 
ATOM     16  O   UNL     1       1.767   5.493  21.179  0.00  0.00    +0.000 OA
BRANCH  14  17
ATOM     17  C   UNL     1       1.251  10.711  18.340  0.00  0.00    +0.000 C 
ATOM     18  C   UNL     1       0.915  12.176  18.287  0.00  0.00    +0.000 C 
ATOM     19  C   UNL     1       2.351  11.744  18.220  0.00  0.00    +0.000 C 
ENDBRANCH  14  17
ENDBRANCH   5   7
BRANCH   1  21
ATOM     20  C   UNL     1       5.439   5.035  14.105  0.00  0.00    +0.000 C 
ATOM     21  C   UNL     1       5.716   5.457  15.568  0.00  0.00    +0.000 C 
BRANCH  21  22
ATOM     22  C   UNL     1       7.100   4.948  16.026  0.00  0.00    +0.000 C 
BRANCH  22  23
ATOM     23  C   UNL     1       7.428   5.283  17.442  0.00  0.00    +0.000 A 
ATOM     24  N   UNL     1       7.558   4.422  18.431  0.00  0.00    +0.000 NA
ATOM     25  N   UNL     1       7.821   5.124  19.583  0.00  0.00    +0.000 NA
ATOM     26  C   UNL     1       7.842   6.398  19.273  0.00  0.00    +0.000 A 
ATOM     27  N   UNL     1       7.624   6.546  17.939  0.00  0.00    +0.000 N 
ATOM     28  C   UNL     1       7.607   7.787  17.216  0.00  0.00    +0.000 C 
ENDBRANCH  22  23
ENDBRANCH  21  22
ENDBRANCH   1  21
TORSDOF 5
ENDMDL
MODEL 3
REMARK VINA RESULT:      -8.1      1.761      2.908
REMARK  Name = 
REMARK  7 active torsions:
REMARK  status: ('A' for Active; 'I' for Inactive)
REMARK    1  A    between atoms: C_1  and  C_2
REMARK    2  A    between atoms: C_2  and  C_3
REMARK    3  A    between atoms: C_2  and  C_10
REMARK    4  A    between atoms: C_3  and  C_4
REMARK    5  A    between atoms: N_8  and  C_9
REMARK    6  A    between atoms: C_14  and  N_15
REMARK    7  A    between atoms: C_22  and  C_23
REMARK                            x       y       z     vdW  Elec       q    Type
REMARK                         _______ _______ _______ _____ _____    ______ ____
ROOT
ATOM      1  C   UNL     1       0.837   9.802  20.451  0.00  0.00    +0.000 A 
ATOM      2  C   UNL     1       0.671  10.510  19.258  0.00  0.00    +0.000 A 
ATOM      3  C   UNL     1       1.154   9.990  18.047  0.00  0.00    +0.000 A 
ATOM      4  C   UNL     1       1.797   8.744  17.998  0.00  0.00    +0.000 A 
ATOM      5  C   UNL     1       1.962   8.008  19.166  0.00  0.00    +0.000 A 
ATOM      6  C   UNL     1       1.509   8.578  20.371  0.00  0.00    +0.000 A 
ENDROOT
BRANCH   5   7
ATOM      7  N   UNL     1       2.500   6.696  19.206  0.00  0.00    +0.000 N 
ATOM      8  C   UNL     1       3.677   6.380  18.414  0.00  0.00    +0.000 C 
ATOM      9  C   UNL     1       4.042   5.021  18.853  0.00  0.00    +0.000 A 
ATOM     10  C   UNL     1       3.117   4.544  19.763  0.00  0.00    +0.000 A 
ATOM     11  C   UNL     1       3.238   3.290  20.302  0.00  0.00    +0.000 A 
ATOM     12  C   UNL     1       4.340   2.570  19.866  0.00  0.00    +0.000 A 
ATOM     13  N   UNL     1       5.284   3.039  18.993  0.00  0.00    +0.000 NA
ATOM     14  C   UNL     1       5.146   4.287  18.485  0.00  0.00    +0.000 A 
ATOM     15  C   UNL     1       2.132   5.621  20.020  0.00  0.00    +0.000 C 
ATOM     16  O   UNL     1       1.222   5.507  20.820  0.00  0.00    +0.000 OA
BRANCH  14  17
ATOM     17  C   UNL     1       6.221   4.908  17.625  0.00  0.00    +0.000 C 
ATOM     18  C   UNL     1       7.105   6.015  18.128  0.00  0.00    +0.000 C 
ATOM     19  C   UNL     1       7.681   4.644  17.921  0.00  0.00    +0.000 C 
ENDBRANCH  14  17
ENDBRANCH   5   7
BRANCH   1  21
ATOM     20  C   UNL     1      -0.149   9.172  22.750  0.00  0.00    +0.000 C 
ATOM     21  C   UNL     1       0.266  10.305  21.781  0.00  0.00    +0.000 C 
BRANCH  21  22
ATOM     22  C   UNL     1      -0.928  11.245  21.502  0.00  0.00    +0.000 C 
BRANCH  22  23
ATOM     23  C   UNL     1      -0.866  12.536  22.245  0.00  0.00    +0.000 A 
ATOM     24  N   UNL     1       0.092  13.437  22.152  0.00  0.00    +0.000 NA
ATOM     25  N   UNL     1      -0.192  14.462  23.022  0.00  0.00    +0.000 NA
ATOM     26  C   UNL     1      -1.315  14.164  23.630  0.00  0.00    +0.000 A 
ATOM     27  N   UNL     1      -1.786  12.978  23.160  0.00  0.00    +0.000 N 
ATOM     28  C   UNL     1      -3.008  12.334  23.557  0.00  0.00    +0.000 C 
ENDBRANCH  22  23
ENDBRANCH  21  22
ENDBRANCH   1  21
TORSDOF 5
ENDMDL
MODEL 4
REMARK VINA RESULT:      -8.1      2.971      3.861
REMARK  Name = 
REMARK  7 active torsions:
REMARK  status: ('A' for Active; 'I' for Inactive)
REMARK    1  A    between atoms: C_1  and  C_2
REMARK    2  A    between atoms: C_2  and  C_3
REMARK    3  A    between atoms: C_2  and  C_10
REMARK    4  A    between atoms: C_3  and  C_4
REMARK    5  A    between atoms: N_8  and  C_9
REMARK    6  A    between atoms: C_14  and  N_15
REMARK    7  A    between atoms: C_22  and  C_23
REMARK                            x       y       z     vdW  Elec       q    Type
REMARK                         _______ _______ _______ _____ _____    ______ ____
ROOT
ATOM      1  C   UNL     1      -1.538  10.982  19.122  0.00  0.00    +0.000 A 
ATOM      2  C   UNL     1      -1.231  11.977  20.054  0.00  0.00    +0.000 A 
ATOM      3  C   UNL     1      -0.053  11.905  20.812  0.00  0.00    +0.000 A 
ATOM      4  C   UNL     1       0.854  10.847  20.643  0.00  0.00    +0.000 A 
ATOM      5  C   UNL     1       0.585   9.852  19.711  0.00  0.00    +0.000 A 
ATOM      6  C   UNL     1      -0.628   9.927  19.001  0.00  0.00    +0.000 A 
ENDROOT
BRANCH   5   7
ATOM      7  N   UNL     1       1.485   8.803  19.390  0.00  0.00    +0.000 N 
ATOM      8  C   UNL     1       1.550   7.628  20.244  0.00  0.00    +0.000 C 
ATOM      9  C   UNL     1       2.428   6.704  19.505  0.00  0.00    +0.000 A 
ATOM     10  C   UNL     1       2.905   7.308  18.356  0.00  0.00    +0.000 A 
ATOM     11  C   UNL     1       3.757   6.645  17.510  0.00  0.00    +0.000 A 
ATOM     12  C   UNL     1       4.081   5.355  17.901  0.00  0.00    +0.000 A 
ATOM     13  N   UNL     1       3.592   4.730  19.016  0.00  0.00    +0.000 NA
ATOM     14  C   UNL     1       2.742   5.403  19.826  0.00  0.00    +0.000 A 
ATOM     15  C   UNL     1       2.286   8.651  18.255  0.00  0.00    +0.000 C 
ATOM     16  O   UNL     1       2.481   9.399  17.316  0.00  0.00    +0.000 OA
BRANCH  14  17
ATOM     17  C   UNL     1       2.066   4.725  20.994  0.00  0.00    +0.000 C 
ATOM     18  C   UNL     1       1.185   3.519  20.816  0.00  0.00    +0.000 C 
ATOM     19  C   UNL     1       2.533   3.362  21.458  0.00  0.00    +0.000 C 
ENDBRANCH  14  17
ENDBRANCH   5   7
BRANCH   1  21
ATOM     20  C   UNL     1      -2.462  11.273  16.730  0.00  0.00    +0.000 C 
ATOM     21  C   UNL     1      -2.781  11.060  18.229  0.00  0.00    +0.000 C 
BRANCH  21  22
ATOM     22  C   UNL     1      -3.715  12.176  18.748  0.00  0.00    +0.000 C 
BRANCH  22  23
ATOM     23  C   UNL     1      -5.141  11.758  18.879  0.00  0.00    +0.000 A 
ATOM     24  N   UNL     1      -5.845  11.115  17.969  0.00  0.00    +0.000 NA
ATOM     25  N   UNL     1      -7.122  10.951  18.448  0.00  0.00    +0.000 NA
ATOM     26  C   UNL     1      -7.172  11.501  19.638  0.00  0.00    +0.000 A 
ATOM     27  N   UNL     1      -5.949  11.999  19.960  0.00  0.00    +0.000 N 
ATOM     28  C   UNL     1      -5.595  12.645  21.194  0.00  0.00    +0.000 C 
ENDBRANCH  22  23
ENDBRANCH  21  22
ENDBRANCH   1  21
TORSDOF 5
ENDMDL
MODEL 5
REMARK VINA RESULT:      -8.1      2.328      9.333
REMARK  Name = 
REMARK  7 active torsions:
REMARK  status: ('A' for Active; 'I' for Inactive)
REMARK    1  A    between atoms: C_1  and  C_2
REMARK    2  A    between atoms: C_2  and  C_3
REMARK    3  A    between atoms: C_2  and  C_10
REMARK    4  A    between atoms: C_3  and  C_4
REMARK    5  A    between atoms: N_8  and  C_9
REMARK    6  A    between atoms: C_14  and  N_15
REMARK    7  A    between atoms: C_22  and  C_23
REMARK                            x       y       z     vdW  Elec       q    Type
REMARK                         _______ _______ _______ _____ _____    ______ ____
ROOT
ATOM      1  C   UNL     1       2.837   6.119  18.758  0.00  0.00    +0.000 A 
ATOM      2  C   UNL     1       2.455   5.304  19.826  0.00  0.00    +0.000 A 
ATOM      3  C   UNL     1       1.692   5.823  20.883  0.00  0.00    +0.000 A 
ATOM      4  C   UNL     1       1.279   7.164  20.887  0.00  0.00    +0.000 A 
ATOM      5  C   UNL     1       1.629   7.996  19.830  0.00  0.00    +0.000 A 
ATOM      6  C   UNL     1       2.434   7.458  18.810  0.00  0.00    +0.000 A 
ENDROOT
BRANCH   5   7
ATOM      7  N   UNL     1       1.173   9.332  19.689  0.00  0.00    +0.000 N 
ATOM      8  C   UNL     1       0.423   9.951  20.769  0.00  0.00    +0.000 C 
ATOM      9  C   UNL     1       0.294  11.358  20.347  0.00  0.00    +0.000 A 
ATOM     10  C   UNL     1       0.848  11.537  19.093  0.00  0.00    +0.000 A 
ATOM     11  C   UNL     1       0.833  12.764  18.483  0.00  0.00    +0.000 A 
ATOM     12  C   UNL     1       0.234  13.776  19.219  0.00  0.00    +0.000 A 
ATOM     13  N   UNL     1      -0.287  13.624  20.475  0.00  0.00    +0.000 NA
ATOM     14  C   UNL     1      -0.248  12.403  21.059  0.00  0.00    +0.000 A 
ATOM     15  C   UNL     1       1.440  10.247  18.667  0.00  0.00    +0.000 C 
ATOM     16  O   UNL     1       2.044  10.112  17.619  0.00  0.00    +0.000 OA
BRANCH  14  17
ATOM     17  C   UNL     1      -0.685  12.203  22.491  0.00  0.00    +0.000 C 
ATOM     18  C   UNL     1      -1.478  13.240  23.236  0.00  0.00    +0.000 C 
ATOM     19  C   UNL     1      -2.143  11.961  22.816  0.00  0.00    +0.000 C 
ENDBRANCH  14  17
ENDBRANCH   5   7
BRANCH   1  21
ATOM     20  C   UNL     1       3.836   4.042  17.599  0.00  0.00    +0.000 C 
ATOM     21  C   UNL     1       3.613   5.573  17.555  0.00  0.00    +0.000 C 
BRANCH  21  22
ATOM     22  C   UNL     1       4.963   6.314  17.438  0.00  0.00    +0.000 C 
BRANCH  22  23
ATOM     23  C   UNL     1       5.831   5.817  16.331  0.00  0.00    +0.000 A 
ATOM     24  N   UNL     1       5.625   6.006  15.043  0.00  0.00    +0.000 NA
ATOM     25  N   UNL     1       6.619   5.361  14.347  0.00  0.00    +0.000 NA
ATOM     26  C   UNL     1       7.407   4.787  15.225  0.00  0.00    +0.000 A 
ATOM     27  N   UNL     1       6.967   5.065  16.481  0.00  0.00    +0.000 N 
ATOM     28  C   UNL     1       7.584   4.642  17.708  0.00  0.00    +0.000 C 
ENDBRANCH  22  23
ENDBRANCH  21  22
ENDBRANCH   1  21
TORSDOF 5
ENDMDL
MODEL 6
REMARK VINA RESULT:      -8.1      2.640      9.373
REMARK  Name = 
REMARK  7 active torsions:
REMARK  status: ('A' for Active; 'I' for Inactive)
REMARK    1  A    between atoms: C_1  and  C_2
REMARK    2  A    between atoms: C_2  and  C_3
REMARK    3  A    between atoms: C_2  and  C_10
REMARK    4  A    between atoms: C_3  and  C_4
REMARK    5  A    between atoms: N_8  and  C_9
REMARK    6  A    between atoms: C_14  and  N_15
REMARK    7  A    between atoms: C_22  and  C_23
REMARK                            x       y       z     vdW  Elec       q    Type
REMARK                         _______ _______ _______ _____ _____    ______ ____
ROOT
ATOM      1  C   UNL     1       2.812   6.109  18.816  0.00  0.00    +0.000 A 
ATOM      2  C   UNL     1       2.565   5.143  19.794  0.00  0.00    +0.000 A 
ATOM      3  C   UNL     1       1.857   5.473  20.960  0.00  0.00    +0.000 A 
ATOM      4  C   UNL     1       1.365   6.771  21.166  0.00  0.00    +0.000 A 
ATOM      5  C   UNL     1       1.581   7.750  20.202  0.00  0.00    +0.000 A 
ATOM      6  C   UNL     1       2.335   7.399  19.067  0.00  0.00    +0.000 A 
ENDROOT
BRANCH   5   7
ATOM      7  N   UNL     1       1.035   9.058  20.266  0.00  0.00    +0.000 N 
ATOM      8  C   UNL     1       0.271   9.571  19.140  0.00  0.00    +0.000 C 
ATOM      9  C   UNL     1      -0.279  10.844  19.639  0.00  0.00    +0.000 A 
ATOM     10  C   UNL     1       0.183  11.100  20.917  0.00  0.00    +0.000 A 
ATOM     11  C   UNL     1      -0.182  12.240  21.585  0.00  0.00    +0.000 A 
ATOM     12  C   UNL     1      -1.033  13.081  20.884  0.00  0.00    +0.000 A 
ATOM     13  N   UNL     1      -1.528  12.827  19.634  0.00  0.00    +0.000 NA
ATOM     14  C   UNL     1      -1.160  11.687  19.002  0.00  0.00    +0.000 A 
ATOM     15  C   UNL     1       1.010   9.947  21.344  0.00  0.00    +0.000 C 
ATOM     16  O   UNL     1       1.513   9.868  22.448  0.00  0.00    +0.000 OA
BRANCH  14  17
ATOM     17  C   UNL     1      -1.775  11.287  17.682  0.00  0.00    +0.000 C 
ATOM     18  C   UNL     1      -2.637  10.062  17.541  0.00  0.00    +0.000 C 
ATOM     19  C   UNL     1      -3.267  11.423  17.463  0.00  0.00    +0.000 C 
ENDBRANCH  14  17
ENDBRANCH   5   7
BRANCH   1  21
ATOM     20  C   UNL     1       3.640   4.252  17.227  0.00  0.00    +0.000 C 
ATOM     21  C   UNL     1       3.523   5.771  17.501  0.00  0.00    +0.000 C 
BRANCH  21  22
ATOM     22  C   UNL     1       4.919   6.433  17.489  0.00  0.00    +0.000 C 
BRANCH  22  23
ATOM     23  C   UNL     1       5.818   5.927  16.412  0.00  0.00    +0.000 A 
ATOM     24  N   UNL     1       5.672   6.139  15.119  0.00  0.00    +0.000 NA
ATOM     25  N   UNL     1       6.676   5.475  14.457  0.00  0.00    +0.000 NA
ATOM     26  C   UNL     1       7.411   4.870  15.358  0.00  0.00    +0.000 A 
ATOM     27  N   UNL     1       6.926   5.143  16.599  0.00  0.00    +0.000 N 
ATOM     28  C   UNL     1       7.481   4.688  17.844  0.00  0.00    +0.000 C 
ENDBRANCH  22  23
ENDBRANCH  21  22
ENDBRANCH   1  21
TORSDOF 5
ENDMDL
MODEL 7
REMARK VINA RESULT:      -8.1      2.745      3.669
REMARK  Name = 
REMARK  7 active torsions:
REMARK  status: ('A' for Active; 'I' for Inactive)
REMARK    1  A    between atoms: C_1  and  C_2
REMARK    2  A    between atoms: C_2  and  C_3
REMARK    3  A    between atoms: C_2  and  C_10
REMARK    4  A    between atoms: C_3  and  C_4
REMARK    5  A    between atoms: N_8  and  C_9
REMARK    6  A    between atoms: C_14  and  N_15
REMARK    7  A    between atoms: C_22  and  C_23
REMARK                            x       y       z     vdW  Elec       q    Type
REMARK                         _______ _______ _______ _____ _____    ______ ____
ROOT
ATOM      1  C   UNL     1      -1.743  11.282  19.556  0.00  0.00    +0.000 A 
ATOM      2  C   UNL     1      -1.383  12.244  20.503  0.00  0.00    +0.000 A 
ATOM      3  C   UNL     1      -0.157  12.154  21.181  0.00  0.00    +0.000 A 
ATOM      4  C   UNL     1       0.742  11.110  20.915  0.00  0.00    +0.000 A 
ATOM      5  C   UNL     1       0.419  10.147  19.966  0.00  0.00    +0.000 A 
ATOM      6  C   UNL     1      -0.837  10.239  19.338  0.00  0.00    +0.000 A 
ENDROOT
BRANCH   5   7
ATOM      7  N   UNL     1       1.302   9.118  19.549  0.00  0.00    +0.000 N 
ATOM      8  C   UNL     1       1.394   7.894  20.329  0.00  0.00    +0.000 C 
ATOM      9  C   UNL     1       2.240   7.014  19.504  0.00  0.00    +0.000 A 
ATOM     10  C   UNL     1       2.676   7.684  18.375  0.00  0.00    +0.000 A 
ATOM     11  C   UNL     1       3.492   7.071  17.460  0.00  0.00    +0.000 A 
ATOM     12  C   UNL     1       3.826   5.759  17.762  0.00  0.00    +0.000 A 
ATOM     13  N   UNL     1       3.377   5.070  18.855  0.00  0.00    +0.000 NA
ATOM     14  C   UNL     1       2.561   5.696  19.736  0.00  0.00    +0.000 A 
ATOM     15  C   UNL     1       2.059   9.031  18.377  0.00  0.00    +0.000 C 
ATOM     16  O   UNL     1       2.221   9.834  17.478  0.00  0.00    +0.000 OA
BRANCH  14  17
ATOM     17  C   UNL     1       1.927   4.950  20.886  0.00  0.00    +0.000 C 
ATOM     18  C   UNL     1       1.172   3.665  20.685  0.00  0.00    +0.000 C 
ATOM     19  C   UNL     1       2.513   3.638  21.359  0.00  0.00    +0.000 C 
ENDBRANCH  14  17
ENDBRANCH   5   7
BRANCH   1  21
ATOM     20  C   UNL     1      -2.821  11.481  17.220  0.00  0.00    +0.000 C 
ATOM     21  C   UNL     1      -3.042  11.383  18.748  0.00  0.00    +0.000 C 
BRANCH  21  22
ATOM     22  C   UNL     1      -3.867  12.587  19.255  0.00  0.00    +0.000 C 
BRANCH  22  23
ATOM     23  C   UNL     1      -5.106  12.202  19.992  0.00  0.00    +0.000 A 
ATOM     24  N   UNL     1      -5.272  12.241  21.299  0.00  0.00    +0.000 NA
ATOM     25  N   UNL     1      -6.530  11.771  21.588  0.00  0.00    +0.000 NA
ATOM     26  C   UNL     1      -7.104  11.452  20.453  0.00  0.00    +0.000 A 
ATOM     27  N   UNL     1      -6.259  11.726  19.424  0.00  0.00    +0.000 N 
ATOM     28  C   UNL     1      -6.539  11.545  18.026  0.00  0.00    +0.000 C 
ENDBRANCH  22  23
ENDBRANCH  21  22
ENDBRANCH   1  21
TORSDOF 5
ENDMDL
MODEL 8
REMARK VINA RESULT:      -8.1      2.966      3.900
REMARK  Name = 
REMARK  7 active torsions:
REMARK  status: ('A' for Active; 'I' for Inactive)
REMARK    1  A    between atoms: C_1  and  C_2
REMARK    2  A    between atoms: C_2  and  C_3
REMARK    3  A    between atoms: C_2  and  C_10
REMARK    4  A    between atoms: C_3  and  C_4
REMARK    5  A    between atoms: N_8  and  C_9
REMARK    6  A    between atoms: C_14  and  N_15
REMARK    7  A    between atoms: C_22  and  C_23
REMARK                            x       y       z     vdW  Elec       q    Type
REMARK                         _______ _______ _______ _____ _____    ______ ____
ROOT
ATOM      1  C   UNL     1       0.199  10.435  19.680  0.00  0.00    +0.000 A 
ATOM      2  C   UNL     1       0.024  10.533  21.063  0.00  0.00    +0.000 A 
ATOM      3  C   UNL     1       0.543   9.550  21.920  0.00  0.00    +0.000 A 
ATOM      4  C   UNL     1       1.264   8.457  21.415  0.00  0.00    +0.000 A 
ATOM      5  C   UNL     1       1.470   8.341  20.045  0.00  0.00    +0.000 A 
ATOM      6  C   UNL     1       0.896   9.317  19.210  0.00  0.00    +0.000 A 
ENDROOT
BRANCH   5   7
ATOM      7  N   UNL     1       2.273   7.336  19.448  0.00  0.00    +0.000 N 
ATOM      8  C   UNL     1       2.273   5.993  20.005  0.00  0.00    +0.000 C 
ATOM      9  C   UNL     1       3.051   5.207  19.031  0.00  0.00    +0.000 A 
ATOM     10  C   UNL     1       3.535   6.027  18.028  0.00  0.00    +0.000 A 
ATOM     11  C   UNL     1       4.303   5.522  17.011  0.00  0.00    +0.000 A 
ATOM     12  C   UNL     1       4.538   4.157  17.079  0.00  0.00    +0.000 A 
ATOM     13  N   UNL     1       4.038   3.325  18.044  0.00  0.00    +0.000 NA
ATOM     14  C   UNL     1       3.272   3.849  19.029  0.00  0.00    +0.000 A 
ATOM     15  C   UNL     1       3.021   7.396  18.268  0.00  0.00    +0.000 C 
ATOM     16  O   UNL     1       3.243   8.327  17.517  0.00  0.00    +0.000 OA
BRANCH  14  17
ATOM     17  C   UNL     1       2.583   2.966  20.044  0.00  0.00    +0.000 C 
ATOM     18  C   UNL     1       1.166   3.211  20.483  0.00  0.00    +0.000 C 
ATOM     19  C   UNL     1       1.477   2.029  19.611  0.00  0.00    +0.000 C 
ENDBRANCH  14  17
ENDBRANCH   5   7
BRANCH   1  21
ATOM     20  C   UNL     1       0.582  12.796  18.712  0.00  0.00    +0.000 C 
ATOM     21  C   UNL     1      -0.295  11.521  18.719  0.00  0.00    +0.000 C 
BRANCH  21  22
ATOM     22  C   UNL     1      -1.761  11.873  19.055  0.00  0.00    +0.000 C 
BRANCH  22  23
ATOM     23  C   UNL     1      -2.722  11.575  17.954  0.00  0.00    +0.000 A 
ATOM     24  N   UNL     1      -2.406  11.159  16.744  0.00  0.00    +0.000 NA
ATOM     25  N   UNL     1      -3.563  11.039  16.013  0.00  0.00    +0.000 NA
ATOM     26  C   UNL     1      -4.560  11.387  16.790  0.00  0.00    +0.000 A 
ATOM     27  N   UNL     1      -4.084  11.709  18.023  0.00  0.00    +0.000 N 
ATOM     28  C   UNL     1      -4.871  12.108  19.157  0.00  0.00    +0.000 C 
ENDBRANCH  22  23
ENDBRANCH  21  22
ENDBRANCH   1  21
TORSDOF 5
ENDMDL
MODEL 9
REMARK VINA RESULT:      -8.0      1.859      3.124
REMARK  Name = 
REMARK  7 active torsions:
REMARK  status: ('A' for Active; 'I' for Inactive)
REMARK    1  A    between atoms: C_1  and  C_2
REMARK    2  A    between atoms: C_2  and  C_3
REMARK    3  A    between atoms: C_2  and  C_10
REMARK    4  A    between atoms: C_3  and  C_4
REMARK    5  A    between atoms: N_8  and  C_9
REMARK    6  A    between atoms: C_14  and  N_15
REMARK    7  A    between atoms: C_22  and  C_23
REMARK                            x       y       z     vdW  Elec       q    Type
REMARK                         _______ _______ _______ _____ _____    ______ ____
ROOT
ATOM      1  C   UNL     1       0.742   9.882  20.487  0.00  0.00    +0.000 A 
ATOM      2  C   UNL     1       0.540  10.569  19.287  0.00  0.00    +0.000 A 
ATOM      3  C   UNL     1       1.015  10.045  18.075  0.00  0.00    +0.000 A 
ATOM      4  C   UNL     1       1.687   8.814  18.033  0.00  0.00    +0.000 A 
ATOM      5  C   UNL     1       1.889   8.098  19.208  0.00  0.00    +0.000 A 
ATOM      6  C   UNL     1       1.442   8.674  20.412  0.00  0.00    +0.000 A 
ENDROOT
BRANCH   5   7
ATOM      7  N   UNL     1       2.459   6.800  19.257  0.00  0.00    +0.000 N 
ATOM      8  C   UNL     1       3.682   6.526  18.521  0.00  0.00    +0.000 C 
ATOM      9  C   UNL     1       4.060   5.171  18.958  0.00  0.00    +0.000 A 
ATOM     10  C   UNL     1       3.104   4.657  19.815  0.00  0.00    +0.000 A 
ATOM     11  C   UNL     1       3.232   3.398  20.342  0.00  0.00    +0.000 A 
ATOM     12  C   UNL     1       4.373   2.713  19.952  0.00  0.00    +0.000 A 
ATOM     13  N   UNL     1       5.346   3.219  19.134  0.00  0.00    +0.000 NA
ATOM     14  C   UNL     1       5.201   4.471  18.637  0.00  0.00    +0.000 A 
ATOM     15  C   UNL     1       2.080   5.704  20.037  0.00  0.00    +0.000 C 
ATOM     16  O   UNL     1       1.135   5.555  20.789  0.00  0.00    +0.000 OA
BRANCH  14  17
ATOM     17  C   UNL     1       6.300   5.132  17.840  0.00  0.00    +0.000 C 
ATOM     18  C   UNL     1       7.689   4.562  17.769  0.00  0.00    +0.000 C 
ATOM     19  C   UNL     1       6.801   4.497  16.560  0.00  0.00    +0.000 C 
ENDBRANCH  14  17
ENDBRANCH   5   7
BRANCH   1  21
ATOM     20  C   UNL     1      -0.248   9.261  22.787  0.00  0.00    +0.000 C 
ATOM     21  C   UNL     1       0.181  10.390  21.819  0.00  0.00    +0.000 C 
BRANCH  21  22
ATOM     22  C   UNL     1      -1.000  11.348  21.545  0.00  0.00    +0.000 C 
BRANCH  22  23
ATOM     23  C   UNL     1      -0.777  12.738  22.037  0.00  0.00    +0.000 A 
ATOM     24  N   UNL     1      -0.582  13.092  23.292  0.00  0.00    +0.000 NA
ATOM     25  N   UNL     1      -0.458  14.460  23.340  0.00  0.00    +0.000 NA
ATOM     26  C   UNL     1      -0.584  14.911  22.115  0.00  0.00    +0.000 A 
ATOM     27  N   UNL     1      -0.762  13.868  21.262  0.00  0.00    +0.000 N 
ATOM     28  C   UNL     1      -0.904  13.956  19.834  0.00  0.00    +0.000 C 
ENDBRANCH  22  23
ENDBRANCH  21  22
ENDBRANCH   1  21
TORSDOF 5
ENDMDL
