MODEL 1
REMARK VINA RESULT:      -9.6      0.000      0.000
REMARK  Name = 
REMARK  9 active torsions:
REMARK  status: ('A' for Active; 'I' for Inactive)
REMARK    1  A    between atoms: C_1  and  C_2
REMARK    2  A    between atoms: C_2  and  C_3
REMARK    3  A    between atoms: C_2  and  C_10
REMARK    4  A    between atoms: C_3  and  C_4
REMARK    5  A    between atoms: N_8  and  C_9
REMARK    6  A    between atoms: C_14  and  N_15
REMARK    7  A    between atoms: C_20  and  C_21
REMARK    8  A    between atoms: C_26  and  O_27
REMARK    9  A    between atoms: C_30  and  C_31
REMARK                            x       y       z     vdW  Elec       q    Type
REMARK                         _______ _______ _______ _____ _____    ______ ____
ROOT
ATOM      1  N   UNL     1       2.079   7.661  19.314  0.00  0.00    +0.000 N 
ATOM      2  C   UNL     1       1.409   7.973  20.558  0.00  0.00    +0.000 C 
ATOM      3  C   UNL     1       0.899   9.347  20.370  0.00  0.00    +0.000 A 
ATOM      4  C   UNL     1       1.180   9.786  19.079  0.00  0.00    +0.000 A 
ATOM      5  C   UNL     1       0.760  11.033  18.644  0.00  0.00    +0.000 A 
ATOM      6  C   UNL     1       0.107  11.868  19.573  0.00  0.00    +0.000 A 
ATOM      7  C   UNL     1      -0.160  11.394  20.887  0.00  0.00    +0.000 A 
ATOM      8  C   UNL     1       0.224  10.117  21.305  0.00  0.00    +0.000 A 
ATOM      9  C   UNL     1       1.957   8.708  18.392  0.00  0.00    +0.000 C 
ATOM     10  O   UNL     1       2.388   8.818  17.260  0.00  0.00    +0.000 OA
ENDROOT
BRANCH   6  11
ATOM     11  C   UNL     1      -0.388  13.257  19.302  0.00  0.00    +0.000 C 
ATOM     12  O   UNL     1      -1.578  13.487  19.527  0.00  0.00    +0.000 OA
ATOM     13  N   UNL     1       0.462  14.275  18.914  0.00  0.00    +0.000 N 
ATOM     14  C   UNL     1      -0.023  15.651  18.930  0.00  0.00    +0.000 C 
ATOM     15  C   UNL     1       1.178  16.526  18.599  0.00  0.00    +0.000 C 
ATOM     16  C   UNL     1       2.380  15.643  18.909  0.00  0.00    +0.000 C 
ATOM     17  C   UNL     1       1.876  14.238  18.597  0.00  0.00    +0.000 C 
BRANCH  16  18
ATOM     18  O   UNL     1       3.510  16.003  18.135  0.00  0.00    +0.000 OA
ATOM     19  H   UNL     1       3.205  16.492  17.350  0.00  0.00    +0.000 HD
ENDBRANCH  16  18
ENDBRANCH   6  11
BRANCH   1  24
ATOM     20  C   UNL     1       4.344   5.049  17.883  0.00  0.00    +0.000 A 
ATOM     21  C   UNL     1       4.158   3.999  18.779  0.00  0.00    +0.000 A 
ATOM     22  C   UNL     1       3.305   4.157  19.884  0.00  0.00    +0.000 A 
ATOM     23  C   UNL     1       2.608   5.360  20.108  0.00  0.00    +0.000 A 
ATOM     24  C   UNL     1       2.758   6.416  19.218  0.00  0.00    +0.000 A 
ATOM     25  C   UNL     1       3.636   6.228  18.131  0.00  0.00    +0.000 A 
BRANCH  20  27
ATOM     26  C   UNL     1       4.884   3.784  15.709  0.00  0.00    +0.000 C 
ATOM     27  C   UNL     1       5.243   4.950  16.654  0.00  0.00    +0.000 C 
BRANCH  27  28
ATOM     28  C   UNL     1       6.749   4.945  17.011  0.00  0.00    +0.000 C 
BRANCH  28  29
ATOM     29  C   UNL     1       7.300   6.270  17.436  0.00  0.00    +0.000 A 
ATOM     30  N   UNL     1       7.307   7.386  16.732  0.00  0.00    +0.000 NA
ATOM     31  N   UNL     1       7.947   8.358  17.463  0.00  0.00    +0.000 NA
ATOM     32  C   UNL     1       8.287   7.828  18.613  0.00  0.00    +0.000 A 
ATOM     33  N   UNL     1       7.886   6.528  18.649  0.00  0.00    +0.000 N 
ATOM     34  C   UNL     1       8.038   5.629  19.760  0.00  0.00    +0.000 C 
ENDBRANCH  28  29
ENDBRANCH  27  28
ENDBRANCH  20  27
ENDBRANCH   1  24
BRANCH   8  35
ATOM     35  C   UNL     1      -0.077   9.623  22.698  0.00  0.00    +0.000 C 
ATOM     36  F   UNL     1      -0.865   8.512  22.727  0.00  0.00    +0.000 F 
ATOM     37  F   UNL     1       1.045   9.306  23.392  0.00  0.00    +0.000 F 
ATOM     38  F   UNL     1      -0.740  10.553  23.440  0.00  0.00    +0.000 F 
ENDBRANCH   8  35
TORSDOF 7
ENDMDL
MODEL 2
REMARK VINA RESULT:      -9.4      1.161      2.049
REMARK  Name = 
REMARK  9 active torsions:
REMARK  status: ('A' for Active; 'I' for Inactive)
REMARK    1  A    between atoms: C_1  and  C_2
REMARK    2  A    between atoms: C_2  and  C_3
REMARK    3  A    between atoms: C_2  and  C_10
REMARK    4  A    between atoms: C_3  and  C_4
REMARK    5  A    between atoms: N_8  and  C_9
REMARK    6  A    between atoms: C_14  and  N_15
REMARK    7  A    between atoms: C_20  and  C_21
REMARK    8  A    between atoms: C_26  and  O_27
REMARK    9  A    between atoms: C_30  and  C_31
REMARK                            x       y       z     vdW  Elec       q    Type
REMARK                         _______ _______ _______ _____ _____    ______ ____
ROOT
ATOM      1  N   UNL     1       2.120   7.477  19.587  0.00  0.00    +0.000 N 
ATOM      2  C   UNL     1       1.402   7.862  20.783  0.00  0.00    +0.000 C 
ATOM      3  C   UNL     1       0.864   9.203  20.477  0.00  0.00    +0.000 A 
ATOM      4  C   UNL     1       1.174   9.552  19.165  0.00  0.00    +0.000 A 
ATOM      5  C   UNL     1       0.737  10.752  18.625  0.00  0.00    +0.000 A 
ATOM      6  C   UNL     1       0.033  11.635  19.468  0.00  0.00    +0.000 A 
ATOM      7  C   UNL     1      -0.264  11.252  20.806  0.00  0.00    +0.000 A 
ATOM      8  C   UNL     1       0.139  10.021  21.330  0.00  0.00    +0.000 A 
ATOM      9  C   UNL     1       2.001   8.448  18.585  0.00  0.00    +0.000 C 
ATOM     10  O   UNL     1       2.465   8.486  17.461  0.00  0.00    +0.000 OA
ENDROOT
BRANCH   6  11
ATOM     11  C   UNL     1      -0.489  12.985  19.079  0.00  0.00    +0.000 C 
ATOM     12  O   UNL     1      -1.713  13.136  19.063  0.00  0.00    +0.000 OA
ATOM     13  N   UNL     1       0.352  14.056  18.843  0.00  0.00    +0.000 N 
ATOM     14  C   UNL     1      -0.214  15.396  18.738  0.00  0.00    +0.000 C 
ATOM     15  C   UNL     1       0.968  16.348  18.629  0.00  0.00    +0.000 C 
ATOM     16  C   UNL     1       2.141  15.550  19.184  0.00  0.00    +0.000 C 
ATOM     17  C   UNL     1       1.801  14.112  18.808  0.00  0.00    +0.000 C 
BRANCH  16  18
ATOM     18  O   UNL     1       3.375  15.981  18.637  0.00  0.00    +0.000 OA
ATOM     19  H   UNL     1       4.099  15.557  19.132  0.00  0.00    +0.000 HD
ENDBRANCH  16  18
ENDBRANCH   6  11
BRANCH   1  24
ATOM     20  C   UNL     1       4.965   5.112  19.031  0.00  0.00    +0.000 A 
ATOM     21  C   UNL     1       4.418   3.910  19.472  0.00  0.00    +0.000 A 
ATOM     22  C   UNL     1       3.112   3.877  19.989  0.00  0.00    +0.000 A 
ATOM     23  C   UNL     1       2.320   5.040  20.059  0.00  0.00    +0.000 A 
ATOM     24  C   UNL     1       2.833   6.248  19.605  0.00  0.00    +0.000 A 
ATOM     25  C   UNL     1       4.154   6.246  19.110  0.00  0.00    +0.000 A 
BRANCH  20  27
ATOM     26  C   UNL     1       7.458   5.549  19.493  0.00  0.00    +0.000 C 
ATOM     27  C   UNL     1       6.370   5.226  18.446  0.00  0.00    +0.000 C 
BRANCH  27  28
ATOM     28  C   UNL     1       6.442   6.193  17.241  0.00  0.00    +0.000 C 
BRANCH  28  29
ATOM     29  C   UNL     1       6.618   5.529  15.910  0.00  0.00    +0.000 A 
ATOM     30  N   UNL     1       7.646   5.657  15.093  0.00  0.00    +0.000 NA
ATOM     31  N   UNL     1       7.395   4.920  13.960  0.00  0.00    +0.000 NA
ATOM     32  C   UNL     1       6.237   4.329  14.121  0.00  0.00    +0.000 A 
ATOM     33  N   UNL     1       5.722   4.665  15.335  0.00  0.00    +0.000 N 
ATOM     34  C   UNL     1       4.489   4.180  15.892  0.00  0.00    +0.000 C 
ENDBRANCH  28  29
ENDBRANCH  27  28
ENDBRANCH  20  27
ENDBRANCH   1  24
BRANCH   8  35
ATOM     35  C   UNL     1      -0.193   9.625  22.747  0.00  0.00    +0.000 C 
ATOM     36  F   UNL     1      -0.954   8.497  22.836  0.00  0.00    +0.000 F 
ATOM     37  F   UNL     1       0.913   9.391  23.496  0.00  0.00    +0.000 F 
ATOM     38  F   UNL     1      -0.903  10.588  23.396  0.00  0.00    +0.000 F 
ENDBRANCH   8  35
TORSDOF 7
ENDMDL
MODEL 3
REMARK VINA RESULT:      -9.4      0.580      1.050
REMARK  Name = 
REMARK  9 active torsions:
REMARK  status: ('A' for Active; 'I' for Inactive)
REMARK    1  A    between atoms: C_1  and  C_2
REMARK    2  A    between atoms: C_2  and  C_3
REMARK    3  A    between atoms: C_2  and  C_10
REMARK    4  A    between atoms: C_3  and  C_4
REMARK    5  A    between atoms: N_8  and  C_9
REMARK    6  A    between atoms: C_14  and  N_15
REMARK    7  A    between atoms: C_20  and  C_21
REMARK    8  A    between atoms: C_26  and  O_27
REMARK    9  A    between atoms: C_30  and  C_31
REMARK                            x       y       z     vdW  Elec       q    Type
REMARK                         _______ _______ _______ _____ _____    ______ ____
ROOT
ATOM      1  N   UNL     1       2.001   7.756  19.230  0.00  0.00    +0.000 N 
ATOM      2  C   UNL     1       1.349   8.033  20.493  0.00  0.00    +0.000 C 
ATOM      3  C   UNL     1       0.856   9.419  20.360  0.00  0.00    +0.000 A 
ATOM      4  C   UNL     1       1.128   9.900  19.082  0.00  0.00    +0.000 A 
ATOM      5  C   UNL     1       0.721  11.168  18.697  0.00  0.00    +0.000 A 
ATOM      6  C   UNL     1       0.090  11.977  19.663  0.00  0.00    +0.000 A 
ATOM      7  C   UNL     1      -0.168  11.460  20.962  0.00  0.00    +0.000 A 
ATOM      8  C   UNL     1       0.203  10.163  21.330  0.00  0.00    +0.000 A 
ATOM      9  C   UNL     1       1.882   8.837  18.347  0.00  0.00    +0.000 C 
ATOM     10  O   UNL     1       2.301   8.981  17.215  0.00  0.00    +0.000 OA
ENDROOT
BRANCH   6  11
ATOM     11  C   UNL     1      -0.390  13.381  19.448  0.00  0.00    +0.000 C 
ATOM     12  O   UNL     1      -1.561  13.630  19.741  0.00  0.00    +0.000 OA
ATOM     13  N   UNL     1       0.460  14.391  19.036  0.00  0.00    +0.000 N 
ATOM     14  C   UNL     1       0.006  15.775  19.106  0.00  0.00    +0.000 C 
ATOM     15  C   UNL     1       1.206  16.633  18.730  0.00  0.00    +0.000 C 
ATOM     16  C   UNL     1       2.404  15.719  18.957  0.00  0.00    +0.000 C 
ATOM     17  C   UNL     1       1.855  14.331  18.643  0.00  0.00    +0.000 C 
BRANCH  16  18
ATOM     18  O   UNL     1       3.499  16.074  18.131  0.00  0.00    +0.000 OA
ATOM     19  H   UNL     1       4.311  16.049  18.666  0.00  0.00    +0.000 HD
ENDBRANCH  16  18
ENDBRANCH   6  11
BRANCH   1  24
ATOM     20  C   UNL     1       4.113   5.122  17.618  0.00  0.00    +0.000 A 
ATOM     21  C   UNL     1       4.003   4.078  18.534  0.00  0.00    +0.000 A 
ATOM     22  C   UNL     1       3.253   4.248  19.710  0.00  0.00    +0.000 A 
ATOM     23  C   UNL     1       2.586   5.457  19.988  0.00  0.00    +0.000 A 
ATOM     24  C   UNL     1       2.661   6.506  19.081  0.00  0.00    +0.000 A 
ATOM     25  C   UNL     1       3.437   6.307  17.921  0.00  0.00    +0.000 A 
BRANCH  20  27
ATOM     26  C   UNL     1       5.240   3.560  15.912  0.00  0.00    +0.000 C 
ATOM     27  C   UNL     1       4.898   5.011  16.314  0.00  0.00    +0.000 C 
BRANCH  27  28
ATOM     28  C   UNL     1       6.155   5.914  16.291  0.00  0.00    +0.000 C 
BRANCH  28  29
ATOM     29  C   UNL     1       7.014   5.829  17.514  0.00  0.00    +0.000 A 
ATOM     30  N   UNL     1       7.302   4.741  18.204  0.00  0.00    +0.000 NA
ATOM     31  N   UNL     1       8.079   5.101  19.279  0.00  0.00    +0.000 NA
ATOM     32  C   UNL     1       8.280   6.394  19.207  0.00  0.00    +0.000 A 
ATOM     33  N   UNL     1       7.648   6.890  18.108  0.00  0.00    +0.000 N 
ATOM     34  C   UNL     1       7.673   8.257  17.665  0.00  0.00    +0.000 C 
ENDBRANCH  28  29
ENDBRANCH  27  28
ENDBRANCH  20  27
ENDBRANCH   1  24
BRANCH   8  35
ATOM     35  C   UNL     1      -0.088   9.624  22.708  0.00  0.00    +0.000 C 
ATOM     36  F   UNL     1      -0.860   8.502  22.705  0.00  0.00    +0.000 F 
ATOM     37  F   UNL     1       1.039   9.303  23.390  0.00  0.00    +0.000 F 
ATOM     38  F   UNL     1      -0.764  10.522  23.478  0.00  0.00    +0.000 F 
ENDBRANCH   8  35
TORSDOF 7
ENDMDL
MODEL 4
REMARK VINA RESULT:      -9.3      1.549      2.137
REMARK  Name = 
REMARK  9 active torsions:
REMARK  status: ('A' for Active; 'I' for Inactive)
REMARK    1  A    between atoms: C_1  and  C_2
REMARK    2  A    between atoms: C_2  and  C_3
REMARK    3  A    between atoms: C_2  and  C_10
REMARK    4  A    between atoms: C_3  and  C_4
REMARK    5  A    between atoms: N_8  and  C_9
REMARK    6  A    between atoms: C_14  and  N_15
REMARK    7  A    between atoms: C_20  and  C_21
REMARK    8  A    between atoms: C_26  and  O_27
REMARK    9  A    between atoms: C_30  and  C_31
REMARK                            x       y       z     vdW  Elec       q    Type
REMARK                         _______ _______ _______ _____ _____    ______ ____
ROOT
ATOM      1  N   UNL     1       1.653   7.183  20.010  0.00  0.00    +0.000 N 
ATOM      2  C   UNL     1       0.958   7.767  21.137  0.00  0.00    +0.000 C 
ATOM      3  C   UNL     1       0.811   9.194  20.785  0.00  0.00    +0.000 A 
ATOM      4  C   UNL     1       1.313   9.422  19.506  0.00  0.00    +0.000 A 
ATOM      5  C   UNL     1       1.247  10.681  18.930  0.00  0.00    +0.000 A 
ATOM      6  C   UNL     1       0.724  11.734  19.707  0.00  0.00    +0.000 A 
ATOM      7  C   UNL     1       0.224  11.470  21.013  0.00  0.00    +0.000 A 
ATOM      8  C   UNL     1       0.250  10.189  21.571  0.00  0.00    +0.000 A 
ATOM      9  C   UNL     1       1.875   8.130  19.001  0.00  0.00    +0.000 C 
ATOM     10  O   UNL     1       2.428   8.022  17.924  0.00  0.00    +0.000 OA
ENDROOT
BRANCH   6  11
ATOM     11  C   UNL     1       0.602  13.163  19.274  0.00  0.00    +0.000 C 
ATOM     12  O   UNL     1      -0.461  13.739  19.514  0.00  0.00    +0.000 OA
ATOM     13  N   UNL     1       1.663  13.853  18.718  0.00  0.00    +0.000 N 
ATOM     14  C   UNL     1       1.570  15.301  18.570  0.00  0.00    +0.000 C 
ATOM     15  C   UNL     1       2.934  15.764  18.076  0.00  0.00    +0.000 C 
ATOM     16  C   UNL     1       3.873  14.625  18.451  0.00  0.00    +0.000 C 
ATOM     17  C   UNL     1       2.987  13.388  18.351  0.00  0.00    +0.000 C 
BRANCH  16  18
ATOM     18  O   UNL     1       4.996  14.564  17.590  0.00  0.00    +0.000 OA
ATOM     19  H   UNL     1       5.044  15.395  17.084  0.00  0.00    +0.000 HD
ENDBRANCH  16  18
ENDBRANCH   6  11
BRANCH   1  24
ATOM     20  C   UNL     1       2.822   3.832  18.825  0.00  0.00    +0.000 A 
ATOM     21  C   UNL     1       2.735   3.079  19.994  0.00  0.00    +0.000 A 
ATOM     22  C   UNL     1       2.320   3.682  21.192  0.00  0.00    +0.000 A 
ATOM     23  C   UNL     1       1.966   5.045  21.246  0.00  0.00    +0.000 A 
ATOM     24  C   UNL     1       2.022   5.813  20.091  0.00  0.00    +0.000 A 
ATOM     25  C   UNL     1       2.461   5.179  18.910  0.00  0.00    +0.000 A 
BRANCH  20  27
ATOM     26  C   UNL     1       3.848   1.827  17.583  0.00  0.00    +0.000 C 
ATOM     27  C   UNL     1       3.253   3.248  17.484  0.00  0.00    +0.000 C 
BRANCH  27  28
ATOM     28  C   UNL     1       4.182   4.194  16.687  0.00  0.00    +0.000 C 
BRANCH  28  29
ATOM     29  C   UNL     1       5.573   4.314  17.228  0.00  0.00    +0.000 A 
ATOM     30  N   UNL     1       5.929   4.327  18.499  0.00  0.00    +0.000 NA
ATOM     31  N   UNL     1       7.290   4.501  18.568  0.00  0.00    +0.000 NA
ATOM     32  C   UNL     1       7.745   4.554  17.340  0.00  0.00    +0.000 A 
ATOM     33  N   UNL     1       6.709   4.423  16.467  0.00  0.00    +0.000 N 
ATOM     34  C   UNL     1       6.812   4.387  15.034  0.00  0.00    +0.000 C 
ENDBRANCH  28  29
ENDBRANCH  27  28
ENDBRANCH  20  27
ENDBRANCH   1  24
BRANCH   8  35
ATOM     35  C   UNL     1      -0.294   9.922  22.951  0.00  0.00    +0.000 C 
ATOM     36  F   UNL     1      -0.951  10.985  23.496  0.00  0.00    +0.000 F 
ATOM     37  F   UNL     1      -1.171   8.888  22.975  0.00  0.00    +0.000 F 
ATOM     38  F   UNL     1       0.690   9.615  23.841  0.00  0.00    +0.000 F 
ENDBRANCH   8  35
TORSDOF 7
ENDMDL
MODEL 5
REMARK VINA RESULT:      -9.2      1.366      2.273
REMARK  Name = 
REMARK  9 active torsions:
REMARK  status: ('A' for Active; 'I' for Inactive)
REMARK    1  A    between atoms: C_1  and  C_2
REMARK    2  A    between atoms: C_2  and  C_3
REMARK    3  A    between atoms: C_2  and  C_10
REMARK    4  A    between atoms: C_3  and  C_4
REMARK    5  A    between atoms: N_8  and  C_9
REMARK    6  A    between atoms: C_14  and  N_15
REMARK    7  A    between atoms: C_20  and  C_21
REMARK    8  A    between atoms: C_26  and  O_27
REMARK    9  A    between atoms: C_30  and  C_31
REMARK                            x       y       z     vdW  Elec       q    Type
REMARK                         _______ _______ _______ _____ _____    ______ ____
ROOT
ATOM      1  N   UNL     1       2.156   7.283  19.460  0.00  0.00    +0.000 N 
ATOM      2  C   UNL     1       1.418   7.702  20.631  0.00  0.00    +0.000 C 
ATOM      3  C   UNL     1       1.006   9.089  20.334  0.00  0.00    +0.000 A 
ATOM      4  C   UNL     1       1.404   9.438  19.046  0.00  0.00    +0.000 A 
ATOM      5  C   UNL     1       1.093  10.680  18.515  0.00  0.00    +0.000 A 
ATOM      6  C   UNL     1       0.425  11.601  19.347  0.00  0.00    +0.000 A 
ATOM      7  C   UNL     1       0.036  11.218  20.661  0.00  0.00    +0.000 A 
ATOM      8  C   UNL     1       0.312   9.947  21.173  0.00  0.00    +0.000 A 
ATOM      9  C   UNL     1       2.163   8.281  18.477  0.00  0.00    +0.000 C 
ATOM     10  O   UNL     1       2.681   8.302  17.376  0.00  0.00    +0.000 OA
ENDROOT
BRANCH   6  11
ATOM     11  C   UNL     1       0.034  12.998  18.967  0.00  0.00    +0.000 C 
ATOM     12  O   UNL     1      -1.167  13.226  18.809  0.00  0.00    +0.000 OA
ATOM     13  N   UNL     1       0.959  14.023  18.893  0.00  0.00    +0.000 N 
ATOM     14  C   UNL     1       0.487  15.399  18.788  0.00  0.00    +0.000 C 
ATOM     15  C   UNL     1       1.727  16.278  18.876  0.00  0.00    +0.000 C 
ATOM     16  C   UNL     1       2.773  15.384  19.529  0.00  0.00    +0.000 C 
ATOM     17  C   UNL     1       2.401  13.988  19.040  0.00  0.00    +0.000 C 
BRANCH  16  18
ATOM     18  O   UNL     1       4.088  15.760  19.162  0.00  0.00    +0.000 OA
ATOM     19  H   UNL     1       4.580  14.959  18.908  0.00  0.00    +0.000 HD
ENDBRANCH  16  18
ENDBRANCH   6  11
BRANCH   1  24
ATOM     20  C   UNL     1       4.454   4.518  18.422  0.00  0.00    +0.000 A 
ATOM     21  C   UNL     1       4.066   3.496  19.285  0.00  0.00    +0.000 A 
ATOM     22  C   UNL     1       3.062   3.723  20.240  0.00  0.00    +0.000 A 
ATOM     23  C   UNL     1       2.413   4.969  20.343  0.00  0.00    +0.000 A 
ATOM     24  C   UNL     1       2.764   5.998  19.480  0.00  0.00    +0.000 A 
ATOM     25  C   UNL     1       3.789   5.741  18.546  0.00  0.00    +0.000 A 
BRANCH  20  27
ATOM     26  C   UNL     1       6.963   4.597  17.858  0.00  0.00    +0.000 C 
ATOM     27  C   UNL     1       5.526   4.346  17.350  0.00  0.00    +0.000 C 
BRANCH  27  28
ATOM     28  C   UNL     1       5.230   5.160  16.068  0.00  0.00    +0.000 C 
BRANCH  28  29
ATOM     29  C   UNL     1       6.329   5.156  15.051  0.00  0.00    +0.000 A 
ATOM     30  N   UNL     1       7.488   5.783  15.136  0.00  0.00    +0.000 NA
ATOM     31  N   UNL     1       8.188   5.560  13.975  0.00  0.00    +0.000 NA
ATOM     32  C   UNL     1       7.462   4.774  13.218  0.00  0.00    +0.000 A 
ATOM     33  N   UNL     1       6.297   4.479  13.859  0.00  0.00    +0.000 N 
ATOM     34  C   UNL     1       5.262   3.610  13.370  0.00  0.00    +0.000 C 
ENDBRANCH  28  29
ENDBRANCH  27  28
ENDBRANCH  20  27
ENDBRANCH   1  24
BRANCH   8  35
ATOM     35  C   UNL     1      -0.117   9.551  22.563  0.00  0.00    +0.000 C 
ATOM     36  F   UNL     1      -0.824  10.517  23.215  0.00  0.00    +0.000 F 
ATOM     37  F   UNL     1      -0.900   8.444  22.571  0.00  0.00    +0.000 F 
ATOM     38  F   UNL     1       0.945   9.279  23.371  0.00  0.00    +0.000 F 
ENDBRANCH   8  35
TORSDOF 7
ENDMDL
MODEL 6
REMARK VINA RESULT:      -9.2      4.002      9.757
REMARK  Name = 
REMARK  9 active torsions:
REMARK  status: ('A' for Active; 'I' for Inactive)
REMARK    1  A    between atoms: C_1  and  C_2
REMARK    2  A    between atoms: C_2  and  C_3
REMARK    3  A    between atoms: C_2  and  C_10
REMARK    4  A    between atoms: C_3  and  C_4
REMARK    5  A    between atoms: N_8  and  C_9
REMARK    6  A    between atoms: C_14  and  N_15
REMARK    7  A    between atoms: C_20  and  C_21
REMARK    8  A    between atoms: C_26  and  O_27
REMARK    9  A    between atoms: C_30  and  C_31
REMARK                            x       y       z     vdW  Elec       q    Type
REMARK                         _______ _______ _______ _____ _____    ______ ____
ROOT
ATOM      1  N   UNL     1       2.462   7.516  18.895  0.00  0.00    +0.000 N 
ATOM      2  C   UNL     1       2.623   6.104  19.167  0.00  0.00    +0.000 C 
ATOM      3  C   UNL     1       3.613   5.644  18.171  0.00  0.00    +0.000 A 
ATOM      4  C   UNL     1       4.064   6.724  17.416  0.00  0.00    +0.000 A 
ATOM      5  C   UNL     1       5.035   6.554  16.441  0.00  0.00    +0.000 A 
ATOM      6  C   UNL     1       5.495   5.246  16.192  0.00  0.00    +0.000 A 
ATOM      7  C   UNL     1       5.011   4.163  16.976  0.00  0.00    +0.000 A 
ATOM      8  C   UNL     1       4.066   4.347  17.989  0.00  0.00    +0.000 A 
ATOM      9  C   UNL     1       3.314   7.938  17.865  0.00  0.00    +0.000 C 
ATOM     10  O   UNL     1       3.457   9.034  17.357  0.00  0.00    +0.000 OA
ENDROOT
BRANCH   6  11
ATOM     11  C   UNL     1       6.512   4.859  15.161  0.00  0.00    +0.000 C 
ATOM     12  O   UNL     1       7.698   4.886  15.497  0.00  0.00    +0.000 OA
ATOM     13  N   UNL     1       6.148   4.392  13.912  0.00  0.00    +0.000 N 
ATOM     14  C   UNL     1       7.161   3.779  13.059  0.00  0.00    +0.000 C 
ATOM     15  C   UNL     1       6.421   3.246  11.841  0.00  0.00    +0.000 C 
ATOM     16  C   UNL     1       4.973   3.136  12.302  0.00  0.00    +0.000 C 
ATOM     17  C   UNL     1       4.835   4.274  13.308  0.00  0.00    +0.000 C 
BRANCH  16  18
ATOM     18  O   UNL     1       4.067   3.251  11.219  0.00  0.00    +0.000 OA
ATOM     19  H   UNL     1       4.490   3.771  10.514  0.00  0.00    +0.000 HD
ENDBRANCH  16  18
ENDBRANCH   6  11
BRANCH   1  24
ATOM     20  C   UNL     1      -0.158  10.088  19.616  0.00  0.00    +0.000 A 
ATOM     21  C   UNL     1      -0.424   9.844  20.961  0.00  0.00    +0.000 A 
ATOM     22  C   UNL     1       0.239   8.803  21.633  0.00  0.00    +0.000 A 
ATOM     23  C   UNL     1       1.192   7.996  20.982  0.00  0.00    +0.000 A 
ATOM     24  C   UNL     1       1.493   8.233  19.647  0.00  0.00    +0.000 A 
ATOM     25  C   UNL     1       0.795   9.273  18.999  0.00  0.00    +0.000 A 
BRANCH  20  27
ATOM     26  C   UNL     1      -0.550  12.619  19.377  0.00  0.00    +0.000 C 
ATOM     27  C   UNL     1      -0.826  11.205  18.822  0.00  0.00    +0.000 C 
BRANCH  27  28
ATOM     28  C   UNL     1      -2.340  10.968  18.609  0.00  0.00    +0.000 C 
BRANCH  28  29
ATOM     29  C   UNL     1      -2.735  10.636  17.204  0.00  0.00    +0.000 A 
ATOM     30  N   UNL     1      -2.063   9.889  16.349  0.00  0.00    +0.000 NA
ATOM     31  N   UNL     1      -2.743   9.874  15.155  0.00  0.00    +0.000 NA
ATOM     32  C   UNL     1      -3.835  10.581  15.313  0.00  0.00    +0.000 A 
ATOM     33  N   UNL     1      -3.882  11.063  16.585  0.00  0.00    +0.000 N 
ATOM     34  C   UNL     1      -4.947  11.845  17.152  0.00  0.00    +0.000 C 
ENDBRANCH  28  29
ENDBRANCH  27  28
ENDBRANCH  20  27
ENDBRANCH   1  24
BRANCH   8  35
ATOM     35  C   UNL     1       3.571   3.190  18.821  0.00  0.00    +0.000 C 
ATOM     36  F   UNL     1       4.007   3.217  20.111  0.00  0.00    +0.000 F 
ATOM     37  F   UNL     1       2.217   3.136  18.883  0.00  0.00    +0.000 F 
ATOM     38  F   UNL     1       3.984   1.990  18.327  0.00  0.00    +0.000 F 
ENDBRANCH   8  35
TORSDOF 7
ENDMDL
MODEL 7
REMARK VINA RESULT:      -9.0      1.384      2.327
REMARK  Name = 
REMARK  9 active torsions:
REMARK  status: ('A' for Active; 'I' for Inactive)
REMARK    1  A    between atoms: C_1  and  C_2
REMARK    2  A    between atoms: C_2  and  C_3
REMARK    3  A    between atoms: C_2  and  C_10
REMARK    4  A    between atoms: C_3  and  C_4
REMARK    5  A    between atoms: N_8  and  C_9
REMARK    6  A    between atoms: C_14  and  N_15
REMARK    7  A    between atoms: C_20  and  C_21
REMARK    8  A    between atoms: C_26  and  O_27
REMARK    9  A    between atoms: C_30  and  C_31
REMARK                            x       y       z     vdW  Elec       q    Type
REMARK                         _______ _______ _______ _____ _____    ______ ____
ROOT
ATOM      1  N   UNL     1       2.367   7.260  19.342  0.00  0.00    +0.000 N 
ATOM      2  C   UNL     1       1.659   7.655  20.541  0.00  0.00    +0.000 C 
ATOM      3  C   UNL     1       1.118   8.994  20.229  0.00  0.00    +0.000 A 
ATOM      4  C   UNL     1       1.418   9.333  18.912  0.00  0.00    +0.000 A 
ATOM      5  C   UNL     1       0.977  10.529  18.367  0.00  0.00    +0.000 A 
ATOM      6  C   UNL     1       0.280  11.418  19.209  0.00  0.00    +0.000 A 
ATOM      7  C   UNL     1      -0.006  11.045  20.552  0.00  0.00    +0.000 A 
ATOM      8  C   UNL     1       0.401   9.818  21.082  0.00  0.00    +0.000 A 
ATOM      9  C   UNL     1       2.240   8.224  18.333  0.00  0.00    +0.000 C 
ATOM     10  O   UNL     1       2.695   8.254  17.206  0.00  0.00    +0.000 OA
ENDROOT
BRANCH   6  11
ATOM     11  C   UNL     1      -0.245  12.765  18.814  0.00  0.00    +0.000 C 
ATOM     12  O   UNL     1      -1.427  12.834  18.471  0.00  0.00    +0.000 OA
ATOM     13  N   UNL     1       0.522  13.911  18.921  0.00  0.00    +0.000 N 
ATOM     14  C   UNL     1      -0.121  15.212  18.784  0.00  0.00    +0.000 C 
ATOM     15  C   UNL     1       0.949  16.248  19.098  0.00  0.00    +0.000 C 
ATOM     16  C   UNL     1       1.999  15.473  19.883  0.00  0.00    +0.000 C 
ATOM     17  C   UNL     1       1.914  14.068  19.298  0.00  0.00    +0.000 C 
BRANCH  16  18
ATOM     18  O   UNL     1       3.287  16.046  19.745  0.00  0.00    +0.000 OA
ATOM     19  H   UNL     1       3.952  15.342  19.847  0.00  0.00    +0.000 HD
ENDBRANCH  16  18
ENDBRANCH   6  11
BRANCH   1  24
ATOM     20  C   UNL     1       5.290   4.943  19.047  0.00  0.00    +0.000 A 
ATOM     21  C   UNL     1       4.689   3.707  19.278  0.00  0.00    +0.000 A 
ATOM     22  C   UNL     1       3.316   3.634  19.565  0.00  0.00    +0.000 A 
ATOM     23  C   UNL     1       2.511   4.789  19.611  0.00  0.00    +0.000 A 
ATOM     24  C   UNL     1       3.080   6.031  19.363  0.00  0.00    +0.000 A 
ATOM     25  C   UNL     1       4.465   6.069  19.097  0.00  0.00    +0.000 A 
BRANCH  20  27
ATOM     26  C   UNL     1       7.606   5.703  19.870  0.00  0.00    +0.000 C 
ATOM     27  C   UNL     1       6.771   5.104  18.718  0.00  0.00    +0.000 C 
BRANCH  27  28
ATOM     28  C   UNL     1       7.012   5.863  17.392  0.00  0.00    +0.000 C 
BRANCH  28  29
ATOM     29  C   UNL     1       6.562   5.139  16.161  0.00  0.00    +0.000 A 
ATOM     30  N   UNL     1       6.972   3.954  15.746  0.00  0.00    +0.000 NA
ATOM     31  N   UNL     1       6.351   3.673  14.553  0.00  0.00    +0.000 NA
ATOM     32  C   UNL     1       5.549   4.673  14.278  0.00  0.00    +0.000 A 
ATOM     33  N   UNL     1       5.633   5.605  15.266  0.00  0.00    +0.000 N 
ATOM     34  C   UNL     1       4.872   6.822  15.346  0.00  0.00    +0.000 C 
ENDBRANCH  28  29
ENDBRANCH  27  28
ENDBRANCH  20  27
ENDBRANCH   1  24
BRANCH   8  35
ATOM     35  C   UNL     1       0.080   9.432  22.504  0.00  0.00    +0.000 C 
ATOM     36  F   UNL     1      -0.511  10.428  23.222  0.00  0.00    +0.000 F 
ATOM     37  F   UNL     1      -0.758   8.368  22.578  0.00  0.00    +0.000 F 
ATOM     38  F   UNL     1       1.196   9.095  23.209  0.00  0.00    +0.000 F 
ENDBRANCH   8  35
TORSDOF 7
ENDMDL
MODEL 8
REMARK VINA RESULT:      -9.0      1.429      1.794
REMARK  Name = 
REMARK  9 active torsions:
REMARK  status: ('A' for Active; 'I' for Inactive)
REMARK    1  A    between atoms: C_1  and  C_2
REMARK    2  A    between atoms: C_2  and  C_3
REMARK    3  A    between atoms: C_2  and  C_10
REMARK    4  A    between atoms: C_3  and  C_4
REMARK    5  A    between atoms: N_8  and  C_9
REMARK    6  A    between atoms: C_14  and  N_15
REMARK    7  A    between atoms: C_20  and  C_21
REMARK    8  A    between atoms: C_26  and  O_27
REMARK    9  A    between atoms: C_30  and  C_31
REMARK                            x       y       z     vdW  Elec       q    Type
REMARK                         _______ _______ _______ _____ _____    ______ ____
ROOT
ATOM      1  N   UNL     1       1.952   7.829  19.286  0.00  0.00    +0.000 N 
ATOM      2  C   UNL     1       1.277   8.100  20.537  0.00  0.00    +0.000 C 
ATOM      3  C   UNL     1       0.889   9.523  20.448  0.00  0.00    +0.000 A 
ATOM      4  C   UNL     1       1.240  10.035  19.202  0.00  0.00    +0.000 A 
ATOM      5  C   UNL     1       0.938  11.344  18.859  0.00  0.00    +0.000 A 
ATOM      6  C   UNL     1       0.332  12.157  19.837  0.00  0.00    +0.000 A 
ATOM      7  C   UNL     1      -0.010  11.606  21.104  0.00  0.00    +0.000 A 
ATOM      8  C   UNL     1       0.255  10.273  21.427  0.00  0.00    +0.000 A 
ATOM      9  C   UNL     1       1.943   8.951  18.447  0.00  0.00    +0.000 C 
ATOM     10  O   UNL     1       2.412   9.111  17.336  0.00  0.00    +0.000 OA
ENDROOT
BRANCH   6  11
ATOM     11  C   UNL     1      -0.039  13.599  19.668  0.00  0.00    +0.000 C 
ATOM     12  O   UNL     1      -0.926  13.864  18.854  0.00  0.00    +0.000 OA
ATOM     13  N   UNL     1       0.509  14.594  20.456  0.00  0.00    +0.000 N 
ATOM     14  C   UNL     1      -0.083  15.927  20.432  0.00  0.00    +0.000 C 
ATOM     15  C   UNL     1       0.644  16.731  21.501  0.00  0.00    +0.000 C 
ATOM     16  C   UNL     1       1.256  15.674  22.411  0.00  0.00    +0.000 C 
ATOM     17  C   UNL     1       1.550  14.517  21.463  0.00  0.00    +0.000 C 
BRANCH  16  18
ATOM     18  O   UNL     1       2.418  16.153  23.065  0.00  0.00    +0.000 OA
ATOM     19  H   UNL     1       2.459  17.120  22.955  0.00  0.00    +0.000 HD
ENDBRANCH  16  18
ENDBRANCH   6  11
BRANCH   1  24
ATOM     20  C   UNL     1       3.949   5.124  17.644  0.00  0.00    +0.000 A 
ATOM     21  C   UNL     1       3.716   4.049  18.498  0.00  0.00    +0.000 A 
ATOM     22  C   UNL     1       2.921   4.219  19.644  0.00  0.00    +0.000 A 
ATOM     23  C   UNL     1       2.329   5.459  19.952  0.00  0.00    +0.000 A 
ATOM     24  C   UNL     1       2.527   6.542  19.105  0.00  0.00    +0.000 A 
ATOM     25  C   UNL     1       3.346   6.340  17.974  0.00  0.00    +0.000 A 
BRANCH  20  27
ATOM     26  C   UNL     1       5.213   3.573  16.026  0.00  0.00    +0.000 C 
ATOM     27  C   UNL     1       4.790   5.017  16.376  0.00  0.00    +0.000 C 
BRANCH  27  28
ATOM     28  C   UNL     1       6.004   5.976  16.377  0.00  0.00    +0.000 C 
BRANCH  28  29
ATOM     29  C   UNL     1       6.905   5.850  17.566  0.00  0.00    +0.000 A 
ATOM     30  N   UNL     1       7.157   4.753  18.255  0.00  0.00    +0.000 NA
ATOM     31  N   UNL     1       7.995   5.075  19.295  0.00  0.00    +0.000 NA
ATOM     32  C   UNL     1       8.268   6.354  19.203  0.00  0.00    +0.000 A 
ATOM     33  N   UNL     1       7.623   6.877  18.124  0.00  0.00    +0.000 N 
ATOM     34  C   UNL     1       7.709   8.237  17.667  0.00  0.00    +0.000 C 
ENDBRANCH  28  29
ENDBRANCH  27  28
ENDBRANCH  20  27
ENDBRANCH   1  24
BRANCH   8  35
ATOM     35  C   UNL     1      -0.123   9.700  22.770  0.00  0.00    +0.000 C 
ATOM     36  F   UNL     1       0.945   9.314  23.522  0.00  0.00    +0.000 F 
ATOM     37  F   UNL     1      -0.821  10.578  23.532  0.00  0.00    +0.000 F 
ATOM     38  F   UNL     1      -0.900   8.588  22.653  0.00  0.00    +0.000 F 
ENDBRANCH   8  35
TORSDOF 7
ENDMDL
MODEL 9
REMARK VINA RESULT:      -8.8      2.965      3.732
REMARK  Name = 
REMARK  9 active torsions:
REMARK  status: ('A' for Active; 'I' for Inactive)
REMARK    1  A    between atoms: C_1  and  C_2
REMARK    2  A    between atoms: C_2  and  C_3
REMARK    3  A    between atoms: C_2  and  C_10
REMARK    4  A    between atoms: C_3  and  C_4
REMARK    5  A    between atoms: N_8  and  C_9
REMARK    6  A    between atoms: C_14  and  N_15
REMARK    7  A    between atoms: C_20  and  C_21
REMARK    8  A    between atoms: C_26  and  O_27
REMARK    9  A    between atoms: C_30  and  C_31
REMARK                            x       y       z     vdW  Elec       q    Type
REMARK                         _______ _______ _______ _____ _____    ______ ____
ROOT
ATOM      1  N   UNL     1       2.351   6.057  19.199  0.00  0.00    +0.000 N 
ATOM      2  C   UNL     1       2.329   7.359  18.568  0.00  0.00    +0.000 C 
ATOM      3  C   UNL     1       1.638   8.231  19.541  0.00  0.00    +0.000 A 
ATOM      4  C   UNL     1       1.344   7.513  20.697  0.00  0.00    +0.000 A 
ATOM      5  C   UNL     1       0.733   8.126  21.780  0.00  0.00    +0.000 A 
ATOM      6  C   UNL     1       0.356   9.477  21.644  0.00  0.00    +0.000 A 
ATOM      7  C   UNL     1       0.666  10.182  20.448  0.00  0.00    +0.000 A 
ATOM      8  C   UNL     1       1.324   9.571  19.377  0.00  0.00    +0.000 A 
ATOM      9  C   UNL     1       1.787   6.100  20.480  0.00  0.00    +0.000 C 
ATOM     10  O   UNL     1       1.621   5.218  21.300  0.00  0.00    +0.000 OA
ENDROOT
BRANCH   6  11
ATOM     11  C   UNL     1      -0.341  10.299  22.686  0.00  0.00    +0.000 C 
ATOM     12  O   UNL     1      -0.078  10.059  23.866  0.00  0.00    +0.000 OA
ATOM     13  N   UNL     1      -1.170  11.354  22.353  0.00  0.00    +0.000 N 
ATOM     14  C   UNL     1      -1.599  12.278  23.397  0.00  0.00    +0.000 C 
ATOM     15  C   UNL     1      -2.363  13.388  22.691  0.00  0.00    +0.000 C 
ATOM     16  C   UNL     1      -1.896  13.300  21.243  0.00  0.00    +0.000 C 
ATOM     17  C   UNL     1      -1.614  11.814  21.052  0.00  0.00    +0.000 C 
BRANCH  16  18
ATOM     18  O   UNL     1      -2.875  13.792  20.345  0.00  0.00    +0.000 OA
ATOM     19  H   UNL     1      -3.475  13.062  20.111  0.00  0.00    +0.000 HD
ENDBRANCH  16  18
ENDBRANCH   6  11
BRANCH   1  24
ATOM     20  C   UNL     1       4.636   4.251  16.849  0.00  0.00    +0.000 A 
ATOM     21  C   UNL     1       4.075   2.976  16.842  0.00  0.00    +0.000 A 
ATOM     22  C   UNL     1       2.954   2.694  17.640  0.00  0.00    +0.000 A 
ATOM     23  C   UNL     1       2.360   3.682  18.449  0.00  0.00    +0.000 A 
ATOM     24  C   UNL     1       2.885   4.967  18.458  0.00  0.00    +0.000 A 
ATOM     25  C   UNL     1       4.022   5.210  17.659  0.00  0.00    +0.000 A 
BRANCH  20  27
ATOM     26  C   UNL     1       6.039   3.754  14.751  0.00  0.00    +0.000 C 
ATOM     27  C   UNL     1       5.844   4.638  16.002  0.00  0.00    +0.000 C 
BRANCH  27  28
ATOM     28  C   UNL     1       7.148   4.742  16.829  0.00  0.00    +0.000 C 
BRANCH  28  29
ATOM     29  C   UNL     1       7.485   6.121  17.303  0.00  0.00    +0.000 A 
ATOM     30  N   UNL     1       7.438   7.234  16.596  0.00  0.00    +0.000 NA
ATOM     31  N   UNL     1       7.869   8.271  17.387  0.00  0.00    +0.000 NA
ATOM     32  C   UNL     1       8.136   7.780  18.573  0.00  0.00    +0.000 A 
ATOM     33  N   UNL     1       7.893   6.441  18.573  0.00  0.00    +0.000 N 
ATOM     34  C   UNL     1       8.024   5.560  19.701  0.00  0.00    +0.000 C 
ENDBRANCH  28  29
ENDBRANCH  27  28
ENDBRANCH  20  27
ENDBRANCH   1  24
BRANCH   8  35
ATOM     35  C   UNL     1       1.656  10.335  18.121  0.00  0.00    +0.000 C 
ATOM     36  F   UNL     1       2.987  10.361  17.831  0.00  0.00    +0.000 F 
ATOM     37  F   UNL     1       1.044   9.824  17.023  0.00  0.00    +0.000 F 
ATOM     38  F   UNL     1       1.280  11.642  18.200  0.00  0.00    +0.000 F 
ENDBRANCH   8  35
TORSDOF 7
ENDMDL
