MODEL 1
REMARK VINA RESULT:      -9.9      0.000      0.000
REMARK  Name = 
REMARK  8 active torsions:
REMARK  status: ('A' for Active; 'I' for Inactive)
REMARK    1  A    between atoms: C_1  and  N_2
REMARK    2  A    between atoms: C_6  and  C_7
REMARK    3  A    between atoms: C_7  and  C_8
REMARK    4  A    between atoms: C_8  and  C_9
REMARK    5  A    between atoms: C_13  and  N_14
REMARK    6  A    between atoms: C_19  and  C_20
REMARK    7  A    between atoms: C_20  and  N_21
REMARK    8  A    between atoms: C_28  and  C_29
REMARK                            x       y       z     vdW  Elec       q    Type
REMARK                         _______ _______ _______ _____ _____    ______ ____
ROOT
ATOM      1  N   UNL     1       2.363   7.229  19.365  0.00  0.00    +0.000 N 
ATOM      2  C   UNL     1       1.645   7.615  20.563  0.00  0.00    +0.000 C 
ATOM      3  C   UNL     1       0.959   8.871  20.190  0.00  0.00    +0.000 A 
ATOM      4  C   UNL     1       1.169   9.139  18.841  0.00  0.00    +0.000 A 
ATOM      5  C   UNL     1       0.588  10.240  18.235  0.00  0.00    +0.000 A 
ATOM      6  C   UNL     1      -0.218  11.081  19.030  0.00  0.00    +0.000 A 
ATOM      7  C   UNL     1      -0.378  10.817  20.411  0.00  0.00    +0.000 A 
ATOM      8  C   UNL     1       0.217   9.705  21.016  0.00  0.00    +0.000 A 
ATOM      9  C   UNL     1       2.096   8.103  18.305  0.00  0.00    +0.000 C 
ATOM     10  O   UNL     1       2.510   8.111  17.160  0.00  0.00    +0.000 OA
ENDROOT
BRANCH   1  15
ATOM     11  C   UNL     1       5.547   5.303  18.858  0.00  0.00    +0.000 A 
ATOM     12  C   UNL     1       5.153   4.051  19.357  0.00  0.00    +0.000 A 
ATOM     13  C   UNL     1       3.874   3.844  19.895  0.00  0.00    +0.000 A 
ATOM     14  C   UNL     1       2.928   4.877  19.929  0.00  0.00    +0.000 A 
ATOM     15  C   UNL     1       3.260   6.129  19.433  0.00  0.00    +0.000 A 
ATOM     16  C   UNL     1       4.570   6.306  18.940  0.00  0.00    +0.000 A 
BRANCH  11  17
ATOM     17  C   UNL     1       6.999   5.642  18.228  0.00  0.00    +0.000 C 
ATOM     18  C   UNL     1       8.077   6.103  19.246  0.00  0.00    +0.000 C 
ATOM     19  O   UNL     1       8.234   7.385  18.609  0.00  0.00    +0.000 OA
ATOM     20  C   UNL     1       7.216   7.071  17.637  0.00  0.00    +0.000 C 
BRANCH  17  21
ATOM     21  C   UNL     1       7.493   4.514  17.287  0.00  0.00    +0.000 C 
BRANCH  21  27
ATOM     22  C   UNL     1       4.770   3.492  16.030  0.00  0.00    +0.000 C 
ATOM     23  N   UNL     1       5.840   4.180  15.356  0.00  0.00    +0.000 N 
ATOM     24  C   UNL     1       5.850   4.480  14.024  0.00  0.00    +0.000 A 
ATOM     25  N   UNL     1       6.978   5.069  13.718  0.00  0.00    +0.000 NA
ATOM     26  N   UNL     1       7.734   5.142  14.863  0.00  0.00    +0.000 NA
ATOM     27  C   UNL     1       7.036   4.633  15.862  0.00  0.00    +0.000 A 
ENDBRANCH  21  27
ENDBRANCH  17  21
ENDBRANCH  11  17
ENDBRANCH   1  15
BRANCH   8  28
ATOM     28  C   UNL     1       0.065   9.459  22.499  0.00  0.00    +0.000 C 
ATOM     29  F   UNL     1       1.239   9.222  23.142  0.00  0.00    +0.000 F 
ATOM     30  F   UNL     1      -0.505  10.516  23.139  0.00  0.00    +0.000 F 
ATOM     31  F   UNL     1      -0.722   8.382  22.768  0.00  0.00    +0.000 F 
ENDBRANCH   8  28
BRANCH   6  32
ATOM     32  C   UNL     1      -0.907  12.296  18.456  0.00  0.00    +0.000 C 
BRANCH  32  33
ATOM     33  N   UNL     1      -2.229  11.995  17.945  0.00  0.00    +0.000 N 
ATOM     34  C   UNL     1      -2.433  11.230  16.742  0.00  0.00    +0.000 C 
ATOM     35  C   UNL     1      -3.941  11.223  16.587  0.00  0.00    +0.000 C 
ATOM     36  C   UNL     1      -4.448  11.243  18.022  0.00  0.00    +0.000 C 
ATOM     37  C   UNL     1      -3.359  11.989  18.755  0.00  0.00    +0.000 C 
ATOM     38  O   UNL     1      -3.450  12.434  19.887  0.00  0.00    +0.000 OA
ENDBRANCH  32  33
ENDBRANCH   6  32
TORSDOF 7
ENDMDL
MODEL 2
REMARK VINA RESULT:      -9.5      2.512      9.114
REMARK  Name = 
REMARK  8 active torsions:
REMARK  status: ('A' for Active; 'I' for Inactive)
REMARK    1  A    between atoms: C_1  and  N_2
REMARK    2  A    between atoms: C_6  and  C_7
REMARK    3  A    between atoms: C_7  and  C_8
REMARK    4  A    between atoms: C_8  and  C_9
REMARK    5  A    between atoms: C_13  and  N_14
REMARK    6  A    between atoms: C_19  and  C_20
REMARK    7  A    between atoms: C_20  and  N_21
REMARK    8  A    between atoms: C_28  and  C_29
REMARK                            x       y       z     vdW  Elec       q    Type
REMARK                         _______ _______ _______ _____ _____    ______ ____
ROOT
ATOM      1  N   UNL     1       1.499   7.830  20.210  0.00  0.00    +0.000 N 
ATOM      2  C   UNL     1       1.585   6.534  20.853  0.00  0.00    +0.000 C 
ATOM      3  C   UNL     1       2.221   5.663  19.841  0.00  0.00    +0.000 A 
ATOM      4  C   UNL     1       2.583   6.420  18.731  0.00  0.00    +0.000 A 
ATOM      5  C   UNL     1       3.242   5.842  17.659  0.00  0.00    +0.000 A 
ATOM      6  C   UNL     1       3.530   4.463  17.728  0.00  0.00    +0.000 A 
ATOM      7  C   UNL     1       3.108   3.702  18.845  0.00  0.00    +0.000 A 
ATOM      8  C   UNL     1       2.439   4.294  19.922  0.00  0.00    +0.000 A 
ATOM      9  C   UNL     1       2.098   7.813  18.945  0.00  0.00    +0.000 C 
ATOM     10  O   UNL     1       2.218   8.693  18.113  0.00  0.00    +0.000 OA
ENDROOT
BRANCH   1  15
ATOM     11  C   UNL     1      -0.574  10.942  20.556  0.00  0.00    +0.000 A 
ATOM     12  C   UNL     1      -0.574  11.076  21.954  0.00  0.00    +0.000 A 
ATOM     13  C   UNL     1       0.058  10.138  22.782  0.00  0.00    +0.000 A 
ATOM     14  C   UNL     1       0.742   9.040  22.242  0.00  0.00    +0.000 A 
ATOM     15  C   UNL     1       0.789   8.870  20.866  0.00  0.00    +0.000 A 
ATOM     16  C   UNL     1       0.104   9.813  20.071  0.00  0.00    +0.000 A 
BRANCH  11  17
ATOM     17  C   UNL     1      -1.281  11.963  19.519  0.00  0.00    +0.000 C 
ATOM     18  C   UNL     1      -0.413  12.388  18.304  0.00  0.00    +0.000 C 
ATOM     19  O   UNL     1      -0.451  13.779  18.672  0.00  0.00    +0.000 OA
ATOM     20  C   UNL     1      -1.228  13.487  19.852  0.00  0.00    +0.000 C 
BRANCH  17  21
ATOM     21  C   UNL     1      -2.698  11.479  19.116  0.00  0.00    +0.000 C 
BRANCH  21  27
ATOM     22  C   UNL     1      -5.032  11.996  17.036  0.00  0.00    +0.000 C 
ATOM     23  N   UNL     1      -3.843  11.210  16.838  0.00  0.00    +0.000 N 
ATOM     24  C   UNL     1      -3.549  10.526  15.693  0.00  0.00    +0.000 A 
ATOM     25  N   UNL     1      -2.420   9.882  15.847  0.00  0.00    +0.000 NA
ATOM     26  N   UNL     1      -1.970  10.129  17.121  0.00  0.00    +0.000 NA
ATOM     27  C   UNL     1      -2.813  10.957  17.713  0.00  0.00    +0.000 A 
ENDBRANCH  21  27
ENDBRANCH  17  21
ENDBRANCH  11  17
ENDBRANCH   1  15
BRANCH   8  28
ATOM     28  C   UNL     1       1.965   3.460  21.088  0.00  0.00    +0.000 C 
ATOM     29  F   UNL     1       2.354   3.936  22.301  0.00  0.00    +0.000 F 
ATOM     30  F   UNL     1       0.608   3.372  21.140  0.00  0.00    +0.000 F 
ATOM     31  F   UNL     1       2.427   2.182  21.033  0.00  0.00    +0.000 F 
ENDBRANCH   8  28
BRANCH   6  32
ATOM     32  C   UNL     1       4.259   3.747  16.617  0.00  0.00    +0.000 C 
BRANCH  32  33
ATOM     33  N   UNL     1       5.439   4.463  16.175  0.00  0.00    +0.000 N 
ATOM     34  C   UNL     1       6.536   4.758  17.061  0.00  0.00    +0.000 C 
ATOM     35  C   UNL     1       7.487   5.547  16.182  0.00  0.00    +0.000 C 
ATOM     36  C   UNL     1       7.270   4.954  14.797  0.00  0.00    +0.000 C 
ATOM     37  C   UNL     1       5.828   4.510  14.842  0.00  0.00    +0.000 C 
ATOM     38  O   UNL     1       5.162   4.183  13.874  0.00  0.00    +0.000 OA
ENDBRANCH  32  33
ENDBRANCH   6  32
TORSDOF 7
ENDMDL
MODEL 3
REMARK VINA RESULT:      -9.5      0.740      1.147
REMARK  Name = 
REMARK  8 active torsions:
REMARK  status: ('A' for Active; 'I' for Inactive)
REMARK    1  A    between atoms: C_1  and  N_2
REMARK    2  A    between atoms: C_6  and  C_7
REMARK    3  A    between atoms: C_7  and  C_8
REMARK    4  A    between atoms: C_8  and  C_9
REMARK    5  A    between atoms: C_13  and  N_14
REMARK    6  A    between atoms: C_19  and  C_20
REMARK    7  A    between atoms: C_20  and  N_21
REMARK    8  A    between atoms: C_28  and  C_29
REMARK                            x       y       z     vdW  Elec       q    Type
REMARK                         _______ _______ _______ _____ _____    ______ ____
ROOT
ATOM      1  N   UNL     1       2.355   7.145  19.363  0.00  0.00    +0.000 N 
ATOM      2  C   UNL     1       1.660   7.544  20.570  0.00  0.00    +0.000 C 
ATOM      3  C   UNL     1       0.923   8.766  20.182  0.00  0.00    +0.000 A 
ATOM      4  C   UNL     1       1.085   9.000  18.820  0.00  0.00    +0.000 A 
ATOM      5  C   UNL     1       0.451  10.063  18.200  0.00  0.00    +0.000 A 
ATOM      6  C   UNL     1      -0.359  10.902  18.994  0.00  0.00    +0.000 A 
ATOM      7  C   UNL     1      -0.470  10.675  20.387  0.00  0.00    +0.000 A 
ATOM      8  C   UNL     1       0.178   9.600  21.006  0.00  0.00    +0.000 A 
ATOM      9  C   UNL     1       2.029   7.979  18.286  0.00  0.00    +0.000 C 
ATOM     10  O   UNL     1       2.409   7.965  17.130  0.00  0.00    +0.000 OA
ENDROOT
BRANCH   1  15
ATOM     11  C   UNL     1       5.594   5.318  18.842  0.00  0.00    +0.000 A 
ATOM     12  C   UNL     1       5.248   4.061  19.367  0.00  0.00    +0.000 A 
ATOM     13  C   UNL     1       3.985   3.821  19.925  0.00  0.00    +0.000 A 
ATOM     14  C   UNL     1       3.005   4.823  19.956  0.00  0.00    +0.000 A 
ATOM     15  C   UNL     1       3.288   6.077  19.436  0.00  0.00    +0.000 A 
ATOM     16  C   UNL     1       4.585   6.289  18.922  0.00  0.00    +0.000 A 
BRANCH  11  17
ATOM     17  C   UNL     1       7.025   5.695  18.187  0.00  0.00    +0.000 C 
ATOM     18  C   UNL     1       8.102   6.203  19.184  0.00  0.00    +0.000 C 
ATOM     19  O   UNL     1       8.210   7.480  18.528  0.00  0.00    +0.000 OA
ATOM     20  C   UNL     1       7.188   7.121  17.575  0.00  0.00    +0.000 C 
BRANCH  17  21
ATOM     21  C   UNL     1       7.542   4.570  17.253  0.00  0.00    +0.000 C 
BRANCH  21  27
ATOM     22  C   UNL     1       4.837   3.457  16.036  0.00  0.00    +0.000 C 
ATOM     23  N   UNL     1       5.880   4.168  15.344  0.00  0.00    +0.000 N 
ATOM     24  C   UNL     1       5.868   4.453  14.008  0.00  0.00    +0.000 A 
ATOM     25  N   UNL     1       6.975   5.070  13.684  0.00  0.00    +0.000 NA
ATOM     26  N   UNL     1       7.740   5.179  14.820  0.00  0.00    +0.000 NA
ATOM     27  C   UNL     1       7.067   4.661  15.832  0.00  0.00    +0.000 A 
ENDBRANCH  21  27
ENDBRANCH  17  21
ENDBRANCH  11  17
ENDBRANCH   1  15
BRANCH   8  28
ATOM     28  C   UNL     1       0.077   9.395  22.498  0.00  0.00    +0.000 C 
ATOM     29  F   UNL     1      -0.660   8.310  22.858  0.00  0.00    +0.000 F 
ATOM     30  F   UNL     1       1.297   9.226  23.078  0.00  0.00    +0.000 F 
ATOM     31  F   UNL     1      -0.500  10.452  23.130  0.00  0.00    +0.000 F 
ENDBRANCH   8  28
BRANCH   6  32
ATOM     32  C   UNL     1      -1.103  12.077  18.406  0.00  0.00    +0.000 C 
BRANCH  32  33
ATOM     33  N   UNL     1      -2.518  11.809  18.238  0.00  0.00    +0.000 N 
ATOM     34  C   UNL     1      -3.513  12.341  19.134  0.00  0.00    +0.000 C 
ATOM     35  C   UNL     1      -4.807  11.761  18.598  0.00  0.00    +0.000 C 
ATOM     36  C   UNL     1      -4.561  11.663  17.099  0.00  0.00    +0.000 C 
ATOM     37  C   UNL     1      -3.069  11.449  17.014  0.00  0.00    +0.000 C 
ATOM     38  O   UNL     1      -2.465  11.094  16.016  0.00  0.00    +0.000 OA
ENDBRANCH  32  33
ENDBRANCH   6  32
TORSDOF 7
ENDMDL
MODEL 4
REMARK VINA RESULT:      -9.5      1.385      2.113
REMARK  Name = 
REMARK  8 active torsions:
REMARK  status: ('A' for Active; 'I' for Inactive)
REMARK    1  A    between atoms: C_1  and  N_2
REMARK    2  A    between atoms: C_6  and  C_7
REMARK    3  A    between atoms: C_7  and  C_8
REMARK    4  A    between atoms: C_8  and  C_9
REMARK    5  A    between atoms: C_13  and  N_14
REMARK    6  A    between atoms: C_19  and  C_20
REMARK    7  A    between atoms: C_20  and  N_21
REMARK    8  A    between atoms: C_28  and  C_29
REMARK                            x       y       z     vdW  Elec       q    Type
REMARK                         _______ _______ _______ _____ _____    ______ ____
ROOT
ATOM      1  N   UNL     1       2.333   7.389  19.338  0.00  0.00    +0.000 N 
ATOM      2  C   UNL     1       1.558   7.729  20.515  0.00  0.00    +0.000 C 
ATOM      3  C   UNL     1       0.966   9.046  20.196  0.00  0.00    +0.000 A 
ATOM      4  C   UNL     1       1.279   9.397  18.887  0.00  0.00    +0.000 A 
ATOM      5  C   UNL     1       0.798  10.570  18.330  0.00  0.00    +0.000 A 
ATOM      6  C   UNL     1      -0.013  11.398  19.135  0.00  0.00    +0.000 A 
ATOM      7  C   UNL     1      -0.278  11.045  20.480  0.00  0.00    +0.000 A 
ATOM      8  C   UNL     1       0.216   9.859  21.035  0.00  0.00    +0.000 A 
ATOM      9  C   UNL     1       2.183   8.351  18.332  0.00  0.00    +0.000 C 
ATOM     10  O   UNL     1       2.671   8.416  17.219  0.00  0.00    +0.000 OA
ENDROOT
BRANCH   1  15
ATOM     11  C   UNL     1       5.417   5.307  18.830  0.00  0.00    +0.000 A 
ATOM     12  C   UNL     1       4.937   4.058  19.257  0.00  0.00    +0.000 A 
ATOM     13  C   UNL     1       3.633   3.901  19.748  0.00  0.00    +0.000 A 
ATOM     14  C   UNL     1       2.745   4.984  19.805  0.00  0.00    +0.000 A 
ATOM     15  C   UNL     1       3.163   6.237  19.379  0.00  0.00    +0.000 A 
ATOM     16  C   UNL     1       4.495   6.360  18.932  0.00  0.00    +0.000 A 
BRANCH  11  17
ATOM     17  C   UNL     1       6.904   5.591  18.259  0.00  0.00    +0.000 C 
ATOM     18  C   UNL     1       7.962   5.994  19.322  0.00  0.00    +0.000 C 
ATOM     19  O   UNL     1       8.198   7.274  18.708  0.00  0.00    +0.000 OA
ATOM     20  C   UNL     1       7.204   7.015  17.695  0.00  0.00    +0.000 C 
BRANCH  17  21
ATOM     21  C   UNL     1       7.385   4.453  17.322  0.00  0.00    +0.000 C 
BRANCH  21  27
ATOM     22  C   UNL     1       4.746   3.405  15.917  0.00  0.00    +0.000 C 
ATOM     23  N   UNL     1       5.825   4.141  15.312  0.00  0.00    +0.000 N 
ATOM     24  C   UNL     1       5.883   4.484  13.992  0.00  0.00    +0.000 A 
ATOM     25  N   UNL     1       7.007   5.111  13.753  0.00  0.00    +0.000 NA
ATOM     26  N   UNL     1       7.711   5.166  14.931  0.00  0.00    +0.000 NA
ATOM     27  C   UNL     1       6.985   4.607  15.883  0.00  0.00    +0.000 A 
ENDBRANCH  21  27
ENDBRANCH  17  21
ENDBRANCH  11  17
ENDBRANCH   1  15
BRANCH   8  28
ATOM     28  C   UNL     1      -0.047   9.518  22.482  0.00  0.00    +0.000 C 
ATOM     29  F   UNL     1       1.079   9.276  23.205  0.00  0.00    +0.000 F 
ATOM     30  F   UNL     1      -0.702  10.515  23.136  0.00  0.00    +0.000 F 
ATOM     31  F   UNL     1      -0.815   8.403  22.621  0.00  0.00    +0.000 F 
ENDBRANCH   8  28
BRANCH   6  32
ATOM     32  C   UNL     1      -0.597  12.688  18.612  0.00  0.00    +0.000 C 
BRANCH  32  33
ATOM     33  N   UNL     1       0.024  13.858  19.201  0.00  0.00    +0.000 N 
ATOM     34  C   UNL     1       1.254  14.412  18.695  0.00  0.00    +0.000 C 
ATOM     35  C   UNL     1       1.531  15.563  19.642  0.00  0.00    +0.000 C 
ATOM     36  C   UNL     1       0.141  16.045  20.035  0.00  0.00    +0.000 C 
ATOM     37  C   UNL     1      -0.691  14.788  19.946  0.00  0.00    +0.000 C 
ATOM     38  O   UNL     1      -1.819  14.658  20.391  0.00  0.00    +0.000 OA
ENDBRANCH  32  33
ENDBRANCH   6  32
TORSDOF 7
ENDMDL
MODEL 5
REMARK VINA RESULT:      -9.5      1.593      2.428
REMARK  Name = 
REMARK  8 active torsions:
REMARK  status: ('A' for Active; 'I' for Inactive)
REMARK    1  A    between atoms: C_1  and  N_2
REMARK    2  A    between atoms: C_6  and  C_7
REMARK    3  A    between atoms: C_7  and  C_8
REMARK    4  A    between atoms: C_8  and  C_9
REMARK    5  A    between atoms: C_13  and  N_14
REMARK    6  A    between atoms: C_19  and  C_20
REMARK    7  A    between atoms: C_20  and  N_21
REMARK    8  A    between atoms: C_28  and  C_29
REMARK                            x       y       z     vdW  Elec       q    Type
REMARK                         _______ _______ _______ _____ _____    ______ ____
ROOT
ATOM      1  N   UNL     1       2.343   7.384  19.339  0.00  0.00    +0.000 N 
ATOM      2  C   UNL     1       1.583   7.751  20.517  0.00  0.00    +0.000 C 
ATOM      3  C   UNL     1       0.980   9.057  20.174  0.00  0.00    +0.000 A 
ATOM      4  C   UNL     1       1.273   9.376  18.852  0.00  0.00    +0.000 A 
ATOM      5  C   UNL     1       0.780  10.533  18.273  0.00  0.00    +0.000 A 
ATOM      6  C   UNL     1      -0.025  11.377  19.068  0.00  0.00    +0.000 A 
ATOM      7  C   UNL     1      -0.269  11.057  20.425  0.00  0.00    +0.000 A 
ATOM      8  C   UNL     1       0.238   9.888  21.003  0.00  0.00    +0.000 A 
ATOM      9  C   UNL     1       2.174   8.320  18.311  0.00  0.00    +0.000 C 
ATOM     10  O   UNL     1       2.647   8.360  17.190  0.00  0.00    +0.000 OA
ENDROOT
BRANCH   1  15
ATOM     11  C   UNL     1       5.433   5.308  18.851  0.00  0.00    +0.000 A 
ATOM     12  C   UNL     1       4.963   4.066  19.307  0.00  0.00    +0.000 A 
ATOM     13  C   UNL     1       3.663   3.912  19.810  0.00  0.00    +0.000 A 
ATOM     14  C   UNL     1       2.771   4.992  19.852  0.00  0.00    +0.000 A 
ATOM     15  C   UNL     1       3.179   6.238  19.397  0.00  0.00    +0.000 A 
ATOM     16  C   UNL     1       4.507   6.358  18.938  0.00  0.00    +0.000 A 
BRANCH  11  17
ATOM     17  C   UNL     1       6.915   5.587  18.263  0.00  0.00    +0.000 C 
ATOM     18  C   UNL     1       7.986   5.985  19.314  0.00  0.00    +0.000 C 
ATOM     19  O   UNL     1       8.220   7.265  18.698  0.00  0.00    +0.000 OA
ATOM     20  C   UNL     1       7.213   7.011  17.696  0.00  0.00    +0.000 C 
BRANCH  17  21
ATOM     21  C   UNL     1       7.381   4.449  17.319  0.00  0.00    +0.000 C 
BRANCH  21  27
ATOM     22  C   UNL     1       4.698   3.483  15.936  0.00  0.00    +0.000 C 
ATOM     23  N   UNL     1       5.796   4.182  15.321  0.00  0.00    +0.000 N 
ATOM     24  C   UNL     1       5.856   4.520  14.000  0.00  0.00    +0.000 A 
ATOM     25  N   UNL     1       6.998   5.110  13.751  0.00  0.00    +0.000 NA
ATOM     26  N   UNL     1       7.712   5.145  14.924  0.00  0.00    +0.000 NA
ATOM     27  C   UNL     1       6.976   4.612  15.883  0.00  0.00    +0.000 A 
ENDBRANCH  21  27
ENDBRANCH  17  21
ENDBRANCH  11  17
ENDBRANCH   1  15
BRANCH   8  28
ATOM     28  C   UNL     1      -0.003   9.581  22.462  0.00  0.00    +0.000 C 
ATOM     29  F   UNL     1      -0.578  10.602  23.152  0.00  0.00    +0.000 F 
ATOM     30  F   UNL     1      -0.821   8.508  22.634  0.00  0.00    +0.000 F 
ATOM     31  F   UNL     1       1.148   9.293  23.128  0.00  0.00    +0.000 F 
ENDBRANCH   8  28
BRANCH   6  32
ATOM     32  C   UNL     1      -0.622  12.651  18.521  0.00  0.00    +0.000 C 
BRANCH  32  33
ATOM     33  N   UNL     1      -0.012  13.838  19.087  0.00  0.00    +0.000 N 
ATOM     34  C   UNL     1      -0.534  14.485  20.263  0.00  0.00    +0.000 C 
ATOM     35  C   UNL     1       0.381  15.680  20.436  0.00  0.00    +0.000 C 
ATOM     36  C   UNL     1       1.721  15.185  19.910  0.00  0.00    +0.000 C 
ATOM     37  C   UNL     1       1.320  14.170  18.867  0.00  0.00    +0.000 C 
ATOM     38  O   UNL     1       2.067  13.684  18.034  0.00  0.00    +0.000 OA
ENDBRANCH  32  33
ENDBRANCH   6  32
TORSDOF 7
ENDMDL
MODEL 6
REMARK VINA RESULT:      -9.5      2.370      9.045
REMARK  Name = 
REMARK  8 active torsions:
REMARK  status: ('A' for Active; 'I' for Inactive)
REMARK    1  A    between atoms: C_1  and  N_2
REMARK    2  A    between atoms: C_6  and  C_7
REMARK    3  A    between atoms: C_7  and  C_8
REMARK    4  A    between atoms: C_8  and  C_9
REMARK    5  A    between atoms: C_13  and  N_14
REMARK    6  A    between atoms: C_19  and  C_20
REMARK    7  A    between atoms: C_20  and  N_21
REMARK    8  A    between atoms: C_28  and  C_29
REMARK                            x       y       z     vdW  Elec       q    Type
REMARK                         _______ _______ _______ _____ _____    ______ ____
ROOT
ATOM      1  N   UNL     1       1.533   7.787  20.214  0.00  0.00    +0.000 N 
ATOM      2  C   UNL     1       1.606   6.492  20.862  0.00  0.00    +0.000 C 
ATOM      3  C   UNL     1       2.244   5.614  19.857  0.00  0.00    +0.000 A 
ATOM      4  C   UNL     1       2.620   6.365  18.748  0.00  0.00    +0.000 A 
ATOM      5  C   UNL     1       3.284   5.779  17.683  0.00  0.00    +0.000 A 
ATOM      6  C   UNL     1       3.562   4.398  17.759  0.00  0.00    +0.000 A 
ATOM      7  C   UNL     1       3.127   3.645  18.876  0.00  0.00    +0.000 A 
ATOM      8  C   UNL     1       2.453   4.244  19.945  0.00  0.00    +0.000 A 
ATOM      9  C   UNL     1       2.142   7.761  18.953  0.00  0.00    +0.000 C 
ATOM     10  O   UNL     1       2.274   8.638  18.119  0.00  0.00    +0.000 OA
ENDROOT
BRANCH   1  15
ATOM     11  C   UNL     1      -0.552  10.894  20.532  0.00  0.00    +0.000 A 
ATOM     12  C   UNL     1      -0.539  11.050  21.928  0.00  0.00    +0.000 A 
ATOM     13  C   UNL     1       0.107  10.128  22.764  0.00  0.00    +0.000 A 
ATOM     14  C   UNL     1       0.791   9.025  22.234  0.00  0.00    +0.000 A 
ATOM     15  C   UNL     1       0.824   8.833  20.861  0.00  0.00    +0.000 A 
ATOM     16  C   UNL     1       0.127   9.761  20.058  0.00  0.00    +0.000 A 
BRANCH  11  17
ATOM     17  C   UNL     1      -1.275  11.895  19.486  0.00  0.00    +0.000 C 
ATOM     18  C   UNL     1      -0.413  12.322  18.267  0.00  0.00    +0.000 C 
ATOM     19  O   UNL     1      -0.471  13.716  18.623  0.00  0.00    +0.000 OA
ATOM     20  C   UNL     1      -1.243  13.423  19.806  0.00  0.00    +0.000 C 
BRANCH  17  21
ATOM     21  C   UNL     1      -2.684  11.387  19.088  0.00  0.00    +0.000 C 
BRANCH  21  27
ATOM     22  C   UNL     1      -5.013  11.994  17.026  0.00  0.00    +0.000 C 
ATOM     23  N   UNL     1      -3.834  11.198  16.804  0.00  0.00    +0.000 N 
ATOM     24  C   UNL     1      -3.549  10.544  15.640  0.00  0.00    +0.000 A 
ATOM     25  N   UNL     1      -2.429   9.881  15.774  0.00  0.00    +0.000 NA
ATOM     26  N   UNL     1      -1.975  10.086  17.054  0.00  0.00    +0.000 NA
ATOM     27  C   UNL     1      -2.806  10.907  17.671  0.00  0.00    +0.000 A 
ENDBRANCH  21  27
ENDBRANCH  17  21
ENDBRANCH  11  17
ENDBRANCH   1  15
BRANCH   8  28
ATOM     28  C   UNL     1       1.965   3.417  21.110  0.00  0.00    +0.000 C 
ATOM     29  F   UNL     1       2.358   3.888  22.324  0.00  0.00    +0.000 F 
ATOM     30  F   UNL     1       0.607   3.348  21.159  0.00  0.00    +0.000 F 
ATOM     31  F   UNL     1       2.409   2.132  21.056  0.00  0.00    +0.000 F 
ENDBRANCH   8  28
BRANCH   6  32
ATOM     32  C   UNL     1       4.296   3.674  16.657  0.00  0.00    +0.000 C 
BRANCH  32  33
ATOM     33  N   UNL     1       5.538   4.327  16.294  0.00  0.00    +0.000 N 
ATOM     34  C   UNL     1       5.678   5.096  15.084  0.00  0.00    +0.000 C 
ATOM     35  C   UNL     1       7.131   5.525  15.112  0.00  0.00    +0.000 C 
ATOM     36  C   UNL     1       7.431   5.675  16.597  0.00  0.00    +0.000 C 
ATOM     37  C   UNL     1       6.505   4.665  17.233  0.00  0.00    +0.000 C 
ATOM     38  O   UNL     1       6.567   4.284  18.389  0.00  0.00    +0.000 OA
ENDBRANCH  32  33
ENDBRANCH   6  32
TORSDOF 7
ENDMDL
MODEL 7
REMARK VINA RESULT:      -9.3      2.783      9.124
REMARK  Name = 
REMARK  8 active torsions:
REMARK  status: ('A' for Active; 'I' for Inactive)
REMARK    1  A    between atoms: C_1  and  N_2
REMARK    2  A    between atoms: C_6  and  C_7
REMARK    3  A    between atoms: C_7  and  C_8
REMARK    4  A    between atoms: C_8  and  C_9
REMARK    5  A    between atoms: C_13  and  N_14
REMARK    6  A    between atoms: C_19  and  C_20
REMARK    7  A    between atoms: C_20  and  N_21
REMARK    8  A    between atoms: C_28  and  C_29
REMARK                            x       y       z     vdW  Elec       q    Type
REMARK                         _______ _______ _______ _____ _____    ______ ____
ROOT
ATOM      1  N   UNL     1       1.538   7.844  20.152  0.00  0.00    +0.000 N 
ATOM      2  C   UNL     1       1.605   6.553  20.808  0.00  0.00    +0.000 C 
ATOM      3  C   UNL     1       2.243   5.667  19.811  0.00  0.00    +0.000 A 
ATOM      4  C   UNL     1       2.624   6.410  18.698  0.00  0.00    +0.000 A 
ATOM      5  C   UNL     1       3.289   5.815  17.639  0.00  0.00    +0.000 A 
ATOM      6  C   UNL     1       3.563   4.434  17.725  0.00  0.00    +0.000 A 
ATOM      7  C   UNL     1       3.123   3.688  18.845  0.00  0.00    +0.000 A 
ATOM      8  C   UNL     1       2.447   4.297  19.908  0.00  0.00    +0.000 A 
ATOM      9  C   UNL     1       2.150   7.808  18.893  0.00  0.00    +0.000 C 
ATOM     10  O   UNL     1       2.287   8.680  18.054  0.00  0.00    +0.000 OA
ENDROOT
BRANCH   1  15
ATOM     11  C   UNL     1      -0.541  10.958  20.444  0.00  0.00    +0.000 A 
ATOM     12  C   UNL     1      -0.530  11.124  21.839  0.00  0.00    +0.000 A 
ATOM     13  C   UNL     1       0.112  10.207  22.683  0.00  0.00    +0.000 A 
ATOM     14  C   UNL     1       0.794   9.098  22.162  0.00  0.00    +0.000 A 
ATOM     15  C   UNL     1       0.830   8.897  20.790  0.00  0.00    +0.000 A 
ATOM     16  C   UNL     1       0.136   9.820  19.980  0.00  0.00    +0.000 A 
BRANCH  11  17
ATOM     17  C   UNL     1      -1.260  11.953  19.390  0.00  0.00    +0.000 C 
ATOM     18  C   UNL     1      -2.812  11.940  19.411  0.00  0.00    +0.000 C 
ATOM     19  O   UNL     1      -2.899  11.499  18.044  0.00  0.00    +0.000 OA
ATOM     20  C   UNL     1      -1.462  11.439  17.930  0.00  0.00    +0.000 C 
BRANCH  17  21
ATOM     21  C   UNL     1      -0.662  13.383  19.453  0.00  0.00    +0.000 C 
BRANCH  21  27
ATOM     22  C   UNL     1       1.409  14.465  21.593  0.00  0.00    +0.000 C 
ATOM     23  N   UNL     1       1.700  13.922  20.292  0.00  0.00    +0.000 N 
ATOM     24  C   UNL     1       2.953  13.814  19.761  0.00  0.00    +0.000 A 
ATOM     25  N   UNL     1       2.873  13.319  18.552  0.00  0.00    +0.000 NA
ATOM     26  N   UNL     1       1.544  13.114  18.272  0.00  0.00    +0.000 NA
ATOM     27  C   UNL     1       0.833  13.448  19.335  0.00  0.00    +0.000 A 
ENDBRANCH  21  27
ENDBRANCH  17  21
ENDBRANCH  11  17
ENDBRANCH   1  15
BRANCH   8  28
ATOM     28  C   UNL     1       1.953   3.479  21.077  0.00  0.00    +0.000 C 
ATOM     29  F   UNL     1       0.598   3.408  21.168  0.00  0.00    +0.000 F 
ATOM     30  F   UNL     1       2.391   2.191  21.026  0.00  0.00    +0.000 F 
ATOM     31  F   UNL     1       2.372   3.976  22.272  0.00  0.00    +0.000 F 
ENDBRANCH   8  28
BRANCH   6  32
ATOM     32  C   UNL     1       4.298   3.700  16.629  0.00  0.00    +0.000 C 
BRANCH  32  33
ATOM     33  N   UNL     1       5.467   4.420  16.165  0.00  0.00    +0.000 N 
ATOM     34  C   UNL     1       6.585   4.707  17.027  0.00  0.00    +0.000 C 
ATOM     35  C   UNL     1       7.515   5.503  16.134  0.00  0.00    +0.000 C 
ATOM     36  C   UNL     1       7.265   4.923  14.749  0.00  0.00    +0.000 C 
ATOM     37  C   UNL     1       5.824   4.479  14.824  0.00  0.00    +0.000 C 
ATOM     38  O   UNL     1       5.136   4.160  13.869  0.00  0.00    +0.000 OA
ENDBRANCH  32  33
ENDBRANCH   6  32
TORSDOF 7
ENDMDL
MODEL 8
REMARK VINA RESULT:      -9.3      0.998      1.571
REMARK  Name = 
REMARK  8 active torsions:
REMARK  status: ('A' for Active; 'I' for Inactive)
REMARK    1  A    between atoms: C_1  and  N_2
REMARK    2  A    between atoms: C_6  and  C_7
REMARK    3  A    between atoms: C_7  and  C_8
REMARK    4  A    between atoms: C_8  and  C_9
REMARK    5  A    between atoms: C_13  and  N_14
REMARK    6  A    between atoms: C_19  and  C_20
REMARK    7  A    between atoms: C_20  and  N_21
REMARK    8  A    between atoms: C_28  and  C_29
REMARK                            x       y       z     vdW  Elec       q    Type
REMARK                         _______ _______ _______ _____ _____    ______ ____
ROOT
ATOM      1  N   UNL     1       2.320   7.356  19.412  0.00  0.00    +0.000 N 
ATOM      2  C   UNL     1       1.595   7.668  20.628  0.00  0.00    +0.000 C 
ATOM      3  C   UNL     1       0.966   8.977  20.355  0.00  0.00    +0.000 A 
ATOM      4  C   UNL     1       1.210   9.350  19.036  0.00  0.00    +0.000 A 
ATOM      5  C   UNL     1       0.684  10.521  18.519  0.00  0.00    +0.000 A 
ATOM      6  C   UNL     1      -0.104  11.324  19.371  0.00  0.00    +0.000 A 
ATOM      7  C   UNL     1      -0.299  10.949  20.722  0.00  0.00    +0.000 A 
ATOM      8  C   UNL     1       0.241   9.767  21.238  0.00  0.00    +0.000 A 
ATOM      9  C   UNL     1       2.106   8.328  18.427  0.00  0.00    +0.000 C 
ATOM     10  O   UNL     1       2.541   8.416  17.293  0.00  0.00    +0.000 OA
ENDROOT
BRANCH   1  15
ATOM     11  C   UNL     1       5.427   5.348  18.765  0.00  0.00    +0.000 A 
ATOM     12  C   UNL     1       4.981   4.079  19.170  0.00  0.00    +0.000 A 
ATOM     13  C   UNL     1       3.693   3.884  19.690  0.00  0.00    +0.000 A 
ATOM     14  C   UNL     1       2.789   4.948  19.801  0.00  0.00    +0.000 A 
ATOM     15  C   UNL     1       3.172   6.220  19.399  0.00  0.00    +0.000 A 
ATOM     16  C   UNL     1       4.489   6.380  18.920  0.00  0.00    +0.000 A 
BRANCH  11  17
ATOM     17  C   UNL     1       6.892   5.675  18.163  0.00  0.00    +0.000 C 
ATOM     18  C   UNL     1       7.945   6.162  19.195  0.00  0.00    +0.000 C 
ATOM     19  O   UNL     1       8.116   7.428  18.532  0.00  0.00    +0.000 OA
ATOM     20  C   UNL     1       7.122   7.089  17.543  0.00  0.00    +0.000 C 
BRANCH  17  21
ATOM     21  C   UNL     1       7.411   4.525  17.261  0.00  0.00    +0.000 C 
BRANCH  21  27
ATOM     22  C   UNL     1       4.816   3.354  15.869  0.00  0.00    +0.000 C 
ATOM     23  N   UNL     1       5.875   4.108  15.251  0.00  0.00    +0.000 N 
ATOM     24  C   UNL     1       5.930   4.418  13.922  0.00  0.00    +0.000 A 
ATOM     25  N   UNL     1       7.034   5.075  13.673  0.00  0.00    +0.000 NA
ATOM     26  N   UNL     1       7.729   5.185  14.853  0.00  0.00    +0.000 NA
ATOM     27  C   UNL     1       7.016   4.628  15.816  0.00  0.00    +0.000 A 
ENDBRANCH  21  27
ENDBRANCH  17  21
ENDBRANCH  11  17
ENDBRANCH   1  15
BRANCH   8  28
ATOM     28  C   UNL     1       0.053   9.402  22.691  0.00  0.00    +0.000 C 
ATOM     29  F   UNL     1      -0.571  10.362  23.425  0.00  0.00    +0.000 F 
ATOM     30  F   UNL     1      -0.690   8.273  22.847  0.00  0.00    +0.000 F 
ATOM     31  F   UNL     1       1.235   9.171  23.325  0.00  0.00    +0.000 F 
ENDBRANCH   8  28
BRANCH   6  32
ATOM     32  C   UNL     1      -0.735  12.609  18.893  0.00  0.00    +0.000 C 
BRANCH  32  33
ATOM     33  N   UNL     1      -1.767  13.088  19.791  0.00  0.00    +0.000 N 
ATOM     34  C   UNL     1      -1.646  14.331  20.509  0.00  0.00    +0.000 C 
ATOM     35  C   UNL     1      -2.914  14.378  21.338  0.00  0.00    +0.000 C 
ATOM     36  C   UNL     1      -3.937  13.661  20.467  0.00  0.00    +0.000 C 
ATOM     37  C   UNL     1      -3.092  12.680  19.690  0.00  0.00    +0.000 C 
ATOM     38  O   UNL     1      -3.522  11.746  19.035  0.00  0.00    +0.000 OA
ENDBRANCH  32  33
ENDBRANCH   6  32
TORSDOF 7
ENDMDL
MODEL 9
REMARK VINA RESULT:      -9.2      2.387      9.339
REMARK  Name = 
REMARK  8 active torsions:
REMARK  status: ('A' for Active; 'I' for Inactive)
REMARK    1  A    between atoms: C_1  and  N_2
REMARK    2  A    between atoms: C_6  and  C_7
REMARK    3  A    between atoms: C_7  and  C_8
REMARK    4  A    between atoms: C_8  and  C_9
REMARK    5  A    between atoms: C_13  and  N_14
REMARK    6  A    between atoms: C_19  and  C_20
REMARK    7  A    between atoms: C_20  and  N_21
REMARK    8  A    between atoms: C_28  and  C_29
REMARK                            x       y       z     vdW  Elec       q    Type
REMARK                         _______ _______ _______ _____ _____    ______ ____
ROOT
ATOM      1  N   UNL     1       1.731   7.588  20.087  0.00  0.00    +0.000 N 
ATOM      2  C   UNL     1       1.717   6.311  20.773  0.00  0.00    +0.000 C 
ATOM      3  C   UNL     1       2.359   5.377  19.824  0.00  0.00    +0.000 A 
ATOM      4  C   UNL     1       2.818   6.078  18.713  0.00  0.00    +0.000 A 
ATOM      5  C   UNL     1       3.503   5.433  17.697  0.00  0.00    +0.000 A 
ATOM      6  C   UNL     1       3.716   4.044  17.823  0.00  0.00    +0.000 A 
ATOM      7  C   UNL     1       3.198   3.343  18.939  0.00  0.00    +0.000 A 
ATOM      8  C   UNL     1       2.503   4.002  19.959  0.00  0.00    +0.000 A 
ATOM      9  C   UNL     1       2.393   7.499  18.857  0.00  0.00    +0.000 C 
ATOM     10  O   UNL     1       2.602   8.344  18.006  0.00  0.00    +0.000 OA
ENDROOT
BRANCH   1  15
ATOM     11  C   UNL     1      -0.222  10.793  20.222  0.00  0.00    +0.000 A 
ATOM     12  C   UNL     1      -0.269  10.986  21.612  0.00  0.00    +0.000 A 
ATOM     13  C   UNL     1       0.292  10.060  22.503  0.00  0.00    +0.000 A 
ATOM     14  C   UNL     1       0.949   8.914  22.036  0.00  0.00    +0.000 A 
ATOM     15  C   UNL     1       1.040   8.683  20.671  0.00  0.00    +0.000 A 
ATOM     16  C   UNL     1       0.426   9.618  19.812  0.00  0.00    +0.000 A 
BRANCH  11  17
ATOM     17  C   UNL     1      -0.846  11.797  19.117  0.00  0.00    +0.000 C 
ATOM     18  C   UNL     1       0.127  12.877  18.571  0.00  0.00    +0.000 C 
ATOM     19  O   UNL     1      -0.690  13.960  19.052  0.00  0.00    +0.000 OA
ATOM     20  C   UNL     1      -1.638  13.039  19.632  0.00  0.00    +0.000 C 
BRANCH  17  21
ATOM     21  C   UNL     1      -1.589  11.024  17.996  0.00  0.00    +0.000 C 
BRANCH  21  27
ATOM     22  C   UNL     1      -3.341  10.984  15.357  0.00  0.00    +0.000 C 
ATOM     23  N   UNL     1      -3.772  11.327  16.687  0.00  0.00    +0.000 N 
ATOM     24  C   UNL     1      -5.037  11.724  17.012  0.00  0.00    +0.000 A 
ATOM     25  N   UNL     1      -5.092  11.999  18.291  0.00  0.00    +0.000 NA
ATOM     26  N   UNL     1      -3.838  11.799  18.815  0.00  0.00    +0.000 NA
ATOM     27  C   UNL     1      -3.044  11.362  17.853  0.00  0.00    +0.000 A 
ENDBRANCH  21  27
ENDBRANCH  17  21
ENDBRANCH  11  17
ENDBRANCH   1  15
BRANCH   8  28
ATOM     28  C   UNL     1       1.927   3.232  21.122  0.00  0.00    +0.000 C 
ATOM     29  F   UNL     1       0.569   3.267  21.189  0.00  0.00    +0.000 F 
ATOM     30  F   UNL     1       2.264   1.915  21.085  0.00  0.00    +0.000 F 
ATOM     31  F   UNL     1       2.362   3.703  22.322  0.00  0.00    +0.000 F 
ENDBRANCH   8  28
BRANCH   6  32
ATOM     32  C   UNL     1       4.466   3.256  16.776  0.00  0.00    +0.000 C 
BRANCH  32  33
ATOM     33  N   UNL     1       5.601   3.982  16.242  0.00  0.00    +0.000 N 
ATOM     34  C   UNL     1       5.565   4.623  14.952  0.00  0.00    +0.000 C 
ATOM     35  C   UNL     1       6.963   5.192  14.810  0.00  0.00    +0.000 C 
ATOM     36  C   UNL     1       7.357   5.534  16.240  0.00  0.00    +0.000 C 
ATOM     37  C   UNL     1       6.595   4.516  17.054  0.00  0.00    +0.000 C 
ATOM     38  O   UNL     1       6.784   4.274  18.234  0.00  0.00    +0.000 OA
ENDBRANCH  32  33
ENDBRANCH   6  32
TORSDOF 7
ENDMDL
