MODEL 1
REMARK VINA RESULT:      -8.2      0.000      0.000
REMARK  Name = 
REMARK  6 active torsions:
REMARK  status: ('A' for Active; 'I' for Inactive)
REMARK    1  A    between atoms: C_1  and  C_2
REMARK    2  A    between atoms: C_2  and  S_3
REMARK    3  A    between atoms: C_2  and  C_10
REMARK    4  A    between atoms: S_3  and  C_4
REMARK    5  A    between atoms: N_8  and  C_9
REMARK    6  A    between atoms: C_14  and  N_15
REMARK                            x       y       z     vdW  Elec       q    Type
REMARK                         _______ _______ _______ _____ _____    ______ ____
ROOT
ATOM      1  C   UNL     1       4.118   4.750  16.874  0.00  0.00    +0.000 A 
ATOM      2  C   UNL     1       3.260   3.647  16.974  0.00  0.00    +0.000 A 
ATOM      3  C   UNL     1       2.071   3.736  17.710  0.00  0.00    +0.000 A 
ATOM      4  C   UNL     1       1.713   4.929  18.351  0.00  0.00    +0.000 A 
ATOM      5  C   UNL     1       2.581   6.024  18.292  0.00  0.00    +0.000 A 
ATOM      6  C   UNL     1       3.768   5.913  17.575  0.00  0.00    +0.000 A 
ENDROOT
BRANCH   5   7
ATOM      7  N   UNL     1       2.334   7.225  18.997  0.00  0.00    +0.000 N 
ATOM      8  C   UNL     1       2.329   7.217  20.446  0.00  0.00    +0.000 C 
ATOM      9  C   UNL     1       1.480   8.397  20.742  0.00  0.00    +0.000 A 
ATOM     10  C   UNL     1       0.678   8.665  21.828  0.00  0.00    +0.000 A 
ATOM     11  C   UNL     1      -0.017   9.876  21.831  0.00  0.00    +0.000 A 
ATOM     12 CL   UNL     1      -1.223  10.151  23.029  0.00  0.00    +0.000 Cl
ATOM     13  C   UNL     1       0.189  10.837  20.823  0.00  0.00    +0.000 A 
ATOM     14  C   UNL     1       0.945  10.520  19.691  0.00  0.00    +0.000 A 
ATOM     15  C   UNL     1       1.494   9.256  19.645  0.00  0.00    +0.000 A 
ATOM     16  C   UNL     1       1.925   8.452  18.483  0.00  0.00    +0.000 C 
ATOM     17  O   UNL     1       1.814   8.828  17.328  0.00  0.00    +0.000 OA
ENDBRANCH   5   7
BRANCH   1  19
ATOM     18  C   UNL     1       5.403   3.820  14.861  0.00  0.00    +0.000 C 
ATOM     19  C   UNL     1       5.392   4.795  16.038  0.00  0.00    +0.000 C 
BRANCH  19  20
ATOM     20  S   UNL     1       6.849   4.518  17.122  0.00  0.00    +0.000 S 
BRANCH  20  21
ATOM     21  C   UNL     1       7.360   6.129  17.471  0.00  0.00    +0.000 A 
ATOM     22  N   UNL     1       7.306   7.182  16.691  0.00  0.00    +0.000 NA
ATOM     23  N   UNL     1       7.873   8.237  17.369  0.00  0.00    +0.000 NA
ATOM     24  C   UNL     1       8.228   7.799  18.555  0.00  0.00    +0.000 A 
ATOM     25  N   UNL     1       7.905   6.479  18.676  0.00  0.00    +0.000 N 
ATOM     26  C   UNL     1       8.115   5.647  19.826  0.00  0.00    +0.000 C 
ENDBRANCH  20  21
ENDBRANCH  19  20
ENDBRANCH   1  19
TORSDOF 4
ENDMDL
MODEL 2
REMARK VINA RESULT:      -7.7      2.050      2.942
REMARK  Name = 
REMARK  6 active torsions:
REMARK  status: ('A' for Active; 'I' for Inactive)
REMARK    1  A    between atoms: C_1  and  C_2
REMARK    2  A    between atoms: C_2  and  S_3
REMARK    3  A    between atoms: C_2  and  C_10
REMARK    4  A    between atoms: S_3  and  C_4
REMARK    5  A    between atoms: N_8  and  C_9
REMARK    6  A    between atoms: C_14  and  N_15
REMARK                            x       y       z     vdW  Elec       q    Type
REMARK                         _______ _______ _______ _____ _____    ______ ____
ROOT
ATOM      1  C   UNL     1       3.354   5.757  19.087  0.00  0.00    +0.000 A 
ATOM      2  C   UNL     1       2.838   4.636  19.748  0.00  0.00    +0.000 A 
ATOM      3  C   UNL     1       1.806   4.776  20.686  0.00  0.00    +0.000 A 
ATOM      4  C   UNL     1       1.266   6.036  20.973  0.00  0.00    +0.000 A 
ATOM      5  C   UNL     1       1.801   7.168  20.350  0.00  0.00    +0.000 A 
ATOM      6  C   UNL     1       2.840   7.014  19.437  0.00  0.00    +0.000 A 
ENDROOT
BRANCH   5   7
ATOM      7  N   UNL     1       1.375   8.479  20.665  0.00  0.00    +0.000 N 
ATOM      8  C   UNL     1       1.243   8.875  22.053  0.00  0.00    +0.000 C 
ATOM      9  C   UNL     1       0.258   9.980  21.949  0.00  0.00    +0.000 A 
ATOM     10  C   UNL     1      -0.660  10.441  22.866  0.00  0.00    +0.000 A 
ATOM     11  C   UNL     1      -1.469  11.513  22.481  0.00  0.00    +0.000 A 
ATOM     12 CL   UNL     1      -2.798  11.963  23.479  0.00  0.00    +0.000 Cl
ATOM     13  C   UNL     1      -1.271  12.172  21.253  0.00  0.00    +0.000 A 
ATOM     14  C   UNL     1      -0.390  11.645  20.305  0.00  0.00    +0.000 A 
ATOM     15  C   UNL     1       0.284  10.494  20.655  0.00  0.00    +0.000 A 
ATOM     16  C   UNL     1       0.893   9.456  19.799  0.00  0.00    +0.000 C 
ATOM     17  O   UNL     1       0.849   9.478  18.580  0.00  0.00    +0.000 OA
ENDBRANCH   5   7
BRANCH   1  19
ATOM     18  C   UNL     1       4.315   6.861  16.982  0.00  0.00    +0.000 C 
ATOM     19  C   UNL     1       4.416   5.718  17.993  0.00  0.00    +0.000 C 
BRANCH  19  20
ATOM     20  S   UNL     1       4.361   4.093  17.141  0.00  0.00    +0.000 S 
BRANCH  20  21
ATOM     21  C   UNL     1       5.465   4.324  15.835  0.00  0.00    +0.000 A 
ATOM     22  N   UNL     1       5.204   4.353  14.550  0.00  0.00    +0.000 NA
ATOM     23  N   UNL     1       6.396   4.510  13.881  0.00  0.00    +0.000 NA
ATOM     24  C   UNL     1       7.346   4.602  14.784  0.00  0.00    +0.000 A 
ATOM     25  N   UNL     1       6.805   4.514  16.033  0.00  0.00    +0.000 N 
ATOM     26  C   UNL     1       7.512   4.587  17.280  0.00  0.00    +0.000 C 
ENDBRANCH  20  21
ENDBRANCH  19  20
ENDBRANCH   1  19
TORSDOF 4
ENDMDL
MODEL 3
REMARK VINA RESULT:      -7.6      1.722      2.524
REMARK  Name = 
REMARK  6 active torsions:
REMARK  status: ('A' for Active; 'I' for Inactive)
REMARK    1  A    between atoms: C_1  and  C_2
REMARK    2  A    between atoms: C_2  and  S_3
REMARK    3  A    between atoms: C_2  and  C_10
REMARK    4  A    between atoms: S_3  and  C_4
REMARK    5  A    between atoms: N_8  and  C_9
REMARK    6  A    between atoms: C_14  and  N_15
REMARK                            x       y       z     vdW  Elec       q    Type
REMARK                         _______ _______ _______ _____ _____    ______ ____
ROOT
ATOM      1  C   UNL     1       2.850   5.456  18.652  0.00  0.00    +0.000 A 
ATOM      2  C   UNL     1       2.645   4.419  19.571  0.00  0.00    +0.000 A 
ATOM      3  C   UNL     1       2.004   4.667  20.792  0.00  0.00    +0.000 A 
ATOM      4  C   UNL     1       1.547   5.952  21.113  0.00  0.00    +0.000 A 
ATOM      5  C   UNL     1       1.782   7.003  20.221  0.00  0.00    +0.000 A 
ATOM      6  C   UNL     1       2.439   6.745  19.022  0.00  0.00    +0.000 A 
ENDROOT
BRANCH   5   7
ATOM      7  N   UNL     1       1.440   8.343  20.522  0.00  0.00    +0.000 N 
ATOM      8  C   UNL     1       1.319   8.757  21.905  0.00  0.00    +0.000 C 
ATOM      9  C   UNL     1       0.410   9.924  21.781  0.00  0.00    +0.000 A 
ATOM     10  C   UNL     1      -0.485  10.453  22.683  0.00  0.00    +0.000 A 
ATOM     11  C   UNL     1      -1.217  11.572  22.281  0.00  0.00    +0.000 A 
ATOM     12 CL   UNL     1      -2.525  12.118  23.260  0.00  0.00    +0.000 Cl
ATOM     13  C   UNL     1      -0.961  12.207  21.051  0.00  0.00    +0.000 A 
ATOM     14  C   UNL     1      -0.106  11.616  20.117  0.00  0.00    +0.000 A 
ATOM     15  C   UNL     1       0.485  10.425  20.484  0.00  0.00    +0.000 A 
ATOM     16  C   UNL     1       1.035   9.342  19.642  0.00  0.00    +0.000 C 
ATOM     17  O   UNL     1       1.006   9.358  18.423  0.00  0.00    +0.000 OA
ENDBRANCH   5   7
BRANCH   1  19
ATOM     18  C   UNL     1       3.953   3.874  16.964  0.00  0.00    +0.000 C 
ATOM     19  C   UNL     1       3.460   5.289  17.265  0.00  0.00    +0.000 C 
BRANCH  19  20
ATOM     20  S   UNL     1       4.815   6.508  17.039  0.00  0.00    +0.000 S 
BRANCH  20  21
ATOM     21  C   UNL     1       6.155   5.712  17.780  0.00  0.00    +0.000 A 
ATOM     22  N   UNL     1       6.457   5.652  19.055  0.00  0.00    +0.000 NA
ATOM     23  N   UNL     1       7.638   4.956  19.175  0.00  0.00    +0.000 NA
ATOM     24  C   UNL     1       8.004   4.588  17.969  0.00  0.00    +0.000 A 
ATOM     25  N   UNL     1       7.088   5.021  17.056  0.00  0.00    +0.000 N 
ATOM     26  C   UNL     1       7.122   4.804  15.638  0.00  0.00    +0.000 C 
ENDBRANCH  20  21
ENDBRANCH  19  20
ENDBRANCH   1  19
TORSDOF 4
ENDMDL
MODEL 4
REMARK VINA RESULT:      -7.5      2.024      2.942
REMARK  Name = 
REMARK  6 active torsions:
REMARK  status: ('A' for Active; 'I' for Inactive)
REMARK    1  A    between atoms: C_1  and  C_2
REMARK    2  A    between atoms: C_2  and  S_3
REMARK    3  A    between atoms: C_2  and  C_10
REMARK    4  A    between atoms: S_3  and  C_4
REMARK    5  A    between atoms: N_8  and  C_9
REMARK    6  A    between atoms: C_14  and  N_15
REMARK                            x       y       z     vdW  Elec       q    Type
REMARK                         _______ _______ _______ _____ _____    ______ ____
ROOT
ATOM      1  C   UNL     1       4.014   5.577  17.414  0.00  0.00    +0.000 A 
ATOM      2  C   UNL     1       3.352   4.371  17.680  0.00  0.00    +0.000 A 
ATOM      3  C   UNL     1       2.225   4.347  18.511  0.00  0.00    +0.000 A 
ATOM      4  C   UNL     1       1.731   5.528  19.082  0.00  0.00    +0.000 A 
ATOM      5  C   UNL     1       2.406   6.731  18.856  0.00  0.00    +0.000 A 
ATOM      6  C   UNL     1       3.538   6.735  18.046  0.00  0.00    +0.000 A 
ENDROOT
BRANCH   5   7
ATOM      7  N   UNL     1       2.026   7.943  19.480  0.00  0.00    +0.000 N 
ATOM      8  C   UNL     1       2.002   8.026  20.926  0.00  0.00    +0.000 C 
ATOM      9  C   UNL     1       1.030   9.127  21.139  0.00  0.00    +0.000 A 
ATOM     10  C   UNL     1       0.189   9.378  22.200  0.00  0.00    +0.000 A 
ATOM     11  C   UNL     1      -0.628  10.507  22.119  0.00  0.00    +0.000 A 
ATOM     12 CL   UNL     1      -1.873  10.730  23.288  0.00  0.00    +0.000 Cl
ATOM     13  C   UNL     1      -0.509  11.419  21.053  0.00  0.00    +0.000 A 
ATOM     14  C   UNL     1       0.292  11.111  19.950  0.00  0.00    +0.000 A 
ATOM     15  C   UNL     1       0.971   9.911  19.990  0.00  0.00    +0.000 A 
ATOM     16  C   UNL     1       1.499   9.085  18.885  0.00  0.00    +0.000 C 
ATOM     17  O   UNL     1       1.367   9.373  17.707  0.00  0.00    +0.000 OA
ENDBRANCH   5   7
BRANCH   1  19
ATOM     18  C   UNL     1       5.041   6.874  15.456  0.00  0.00    +0.000 C 
ATOM     19  C   UNL     1       5.197   5.736  16.465  0.00  0.00    +0.000 C 
BRANCH  19  20
ATOM     20  S   UNL     1       5.514   4.146  15.604  0.00  0.00    +0.000 S 
BRANCH  20  21
ATOM     21  C   UNL     1       6.660   4.602  14.397  0.00  0.00    +0.000 A 
ATOM     22  N   UNL     1       7.721   5.360  14.534  0.00  0.00    +0.000 NA
ATOM     23  N   UNL     1       8.306   5.493  13.296  0.00  0.00    +0.000 NA
ATOM     24  C   UNL     1       7.597   4.786  12.446  0.00  0.00    +0.000 A 
ATOM     25  N   UNL     1       6.560   4.186  13.097  0.00  0.00    +0.000 N 
ATOM     26  C   UNL     1       5.572   3.320  12.521  0.00  0.00    +0.000 C 
ENDBRANCH  20  21
ENDBRANCH  19  20
ENDBRANCH   1  19
TORSDOF 4
ENDMDL
MODEL 5
REMARK VINA RESULT:      -7.5      2.557      3.586
REMARK  Name = 
REMARK  6 active torsions:
REMARK  status: ('A' for Active; 'I' for Inactive)
REMARK    1  A    between atoms: C_1  and  C_2
REMARK    2  A    between atoms: C_2  and  S_3
REMARK    3  A    between atoms: C_2  and  C_10
REMARK    4  A    between atoms: S_3  and  C_4
REMARK    5  A    between atoms: N_8  and  C_9
REMARK    6  A    between atoms: C_14  and  N_15
REMARK                            x       y       z     vdW  Elec       q    Type
REMARK                         _______ _______ _______ _____ _____    ______ ____
ROOT
ATOM      1  C   UNL     1       4.281   5.776  17.536  0.00  0.00    +0.000 A 
ATOM      2  C   UNL     1       3.993   4.572  18.192  0.00  0.00    +0.000 A 
ATOM      3  C   UNL     1       2.940   4.498  19.112  0.00  0.00    +0.000 A 
ATOM      4  C   UNL     1       2.148   5.620  19.386  0.00  0.00    +0.000 A 
ATOM      5  C   UNL     1       2.450   6.838  18.768  0.00  0.00    +0.000 A 
ATOM      6  C   UNL     1       3.514   6.901  17.873  0.00  0.00    +0.000 A 
ENDROOT
BRANCH   5   7
ATOM      7  N   UNL     1       1.759   8.034  19.073  0.00  0.00    +0.000 N 
ATOM      8  C   UNL     1       1.559   9.028  18.038  0.00  0.00    +0.000 C 
ATOM      9  C   UNL     1       1.395  10.262  18.846  0.00  0.00    +0.000 A 
ATOM     10  C   UNL     1       1.667  11.574  18.531  0.00  0.00    +0.000 A 
ATOM     11  C   UNL     1       1.409  12.537  19.509  0.00  0.00    +0.000 A 
ATOM     12 CL   UNL     1       1.965  14.149  19.269  0.00  0.00    +0.000 Cl
ATOM     13  C   UNL     1       0.781  12.194  20.721  0.00  0.00    +0.000 A 
ATOM     14  C   UNL     1       0.580  10.853  21.056  0.00  0.00    +0.000 A 
ATOM     15  C   UNL     1       0.989   9.914  20.132  0.00  0.00    +0.000 A 
ATOM     16  C   UNL     1       1.351   8.494  20.321  0.00  0.00    +0.000 C 
ATOM     17  O   UNL     1       1.359   7.941  21.408  0.00  0.00    +0.000 OA
ENDBRANCH   5   7
BRANCH   1  19
ATOM     18  C   UNL     1       4.937   6.895  15.325  0.00  0.00    +0.000 C 
ATOM     19  C   UNL     1       5.346   5.956  16.460  0.00  0.00    +0.000 C 
BRANCH  19  20
ATOM     20  S   UNL     1       5.835   4.314  15.797  0.00  0.00    +0.000 S 
BRANCH  20  21
ATOM     21  C   UNL     1       6.840   4.740  14.462  0.00  0.00    +0.000 A 
ATOM     22  N   UNL     1       7.915   5.491  14.465  0.00  0.00    +0.000 NA
ATOM     23  N   UNL     1       8.358   5.598  13.167  0.00  0.00    +0.000 NA
ATOM     24  C   UNL     1       7.553   4.883  12.415  0.00  0.00    +0.000 A 
ATOM     25  N   UNL     1       6.592   4.303  13.189  0.00  0.00    +0.000 N 
ATOM     26  C   UNL     1       5.540   3.435  12.743  0.00  0.00    +0.000 C 
ENDBRANCH  20  21
ENDBRANCH  19  20
ENDBRANCH   1  19
TORSDOF 4
ENDMDL
MODEL 6
REMARK VINA RESULT:      -7.5      1.283      1.892
REMARK  Name = 
REMARK  6 active torsions:
REMARK  status: ('A' for Active; 'I' for Inactive)
REMARK    1  A    between atoms: C_1  and  C_2
REMARK    2  A    between atoms: C_2  and  S_3
REMARK    3  A    between atoms: C_2  and  C_10
REMARK    4  A    between atoms: S_3  and  C_4
REMARK    5  A    between atoms: N_8  and  C_9
REMARK    6  A    between atoms: C_14  and  N_15
REMARK                            x       y       z     vdW  Elec       q    Type
REMARK                         _______ _______ _______ _____ _____    ______ ____
ROOT
ATOM      1  C   UNL     1       3.237   5.150  18.766  0.00  0.00    +0.000 A 
ATOM      2  C   UNL     1       2.896   4.243  19.778  0.00  0.00    +0.000 A 
ATOM      3  C   UNL     1       2.113   4.652  20.865  0.00  0.00    +0.000 A 
ATOM      4  C   UNL     1       1.646   5.970  20.956  0.00  0.00    +0.000 A 
ATOM      5  C   UNL     1       2.013   6.894  19.973  0.00  0.00    +0.000 A 
ATOM      6  C   UNL     1       2.810   6.478  18.911  0.00  0.00    +0.000 A 
ENDROOT
BRANCH   5   7
ATOM      7  N   UNL     1       1.665   8.263  20.053  0.00  0.00    +0.000 N 
ATOM      8  C   UNL     1       1.370   8.854  21.342  0.00  0.00    +0.000 C 
ATOM      9  C   UNL     1       0.513   9.999  20.950  0.00  0.00    +0.000 A 
ATOM     10  C   UNL     1      -0.482  10.645  21.649  0.00  0.00    +0.000 A 
ATOM     11  C   UNL     1      -1.129  11.707  21.013  0.00  0.00    +0.000 A 
ATOM     12 CL   UNL     1      -2.542  12.381  21.730  0.00  0.00    +0.000 Cl
ATOM     13  C   UNL     1      -0.698  12.176  19.757  0.00  0.00    +0.000 A 
ATOM     14  C   UNL     1       0.260  11.464  19.030  0.00  0.00    +0.000 A 
ATOM     15  C   UNL     1       0.770  10.328  19.622  0.00  0.00    +0.000 A 
ATOM     16  C   UNL     1       1.402   9.143  19.006  0.00  0.00    +0.000 C 
ATOM     17  O   UNL     1       1.536   9.001  17.802  0.00  0.00    +0.000 OA
ENDBRANCH   5   7
BRANCH   1  19
ATOM     18  C   UNL     1       3.391   3.673  16.677  0.00  0.00    +0.000 C 
ATOM     19  C   UNL     1       4.013   4.801  17.501  0.00  0.00    +0.000 C 
BRANCH  19  20
ATOM     20  S   UNL     1       5.752   4.401  17.937  0.00  0.00    +0.000 S 
BRANCH  20  21
ATOM     21  C   UNL     1       6.546   5.916  17.709  0.00  0.00    +0.000 A 
ATOM     22  N   UNL     1       6.334   6.808  16.771  0.00  0.00    +0.000 NA
ATOM     23  N   UNL     1       7.234   7.832  16.953  0.00  0.00    +0.000 NA
ATOM     24  C   UNL     1       7.949   7.545  18.017  0.00  0.00    +0.000 A 
ATOM     25  N   UNL     1       7.536   6.357  18.543  0.00  0.00    +0.000 N 
ATOM     26  C   UNL     1       8.056   5.711  19.714  0.00  0.00    +0.000 C 
ENDBRANCH  20  21
ENDBRANCH  19  20
ENDBRANCH   1  19
TORSDOF 4
ENDMDL
MODEL 7
REMARK VINA RESULT:      -7.4      4.186      7.667
REMARK  Name = 
REMARK  6 active torsions:
REMARK  status: ('A' for Active; 'I' for Inactive)
REMARK    1  A    between atoms: C_1  and  C_2
REMARK    2  A    between atoms: C_2  and  S_3
REMARK    3  A    between atoms: C_2  and  C_10
REMARK    4  A    between atoms: S_3  and  C_4
REMARK    5  A    between atoms: N_8  and  C_9
REMARK    6  A    between atoms: C_14  and  N_15
REMARK                            x       y       z     vdW  Elec       q    Type
REMARK                         _______ _______ _______ _____ _____    ______ ____
ROOT
ATOM      1  C   UNL     1       1.501   7.296  20.587  0.00  0.00    +0.000 A 
ATOM      2  C   UNL     1       0.922   6.101  21.033  0.00  0.00    +0.000 A 
ATOM      3  C   UNL     1       1.470   4.865  20.666  0.00  0.00    +0.000 A 
ATOM      4  C   UNL     1       2.612   4.800  19.857  0.00  0.00    +0.000 A 
ATOM      5  C   UNL     1       3.174   5.985  19.372  0.00  0.00    +0.000 A 
ATOM      6  C   UNL     1       2.605   7.204  19.728  0.00  0.00    +0.000 A 
ENDROOT
BRANCH   5   7
ATOM      7  N   UNL     1       4.264   5.993  18.470  0.00  0.00    +0.000 N 
ATOM      8  C   UNL     1       4.069   6.473  17.117  0.00  0.00    +0.000 C 
ATOM      9  C   UNL     1       5.165   5.776  16.399  0.00  0.00    +0.000 A 
ATOM     10  C   UNL     1       5.258   5.385  15.083  0.00  0.00    +0.000 A 
ATOM     11  C   UNL     1       6.429   4.736  14.686  0.00  0.00    +0.000 A 
ATOM     12 CL   UNL     1       6.496   4.000  13.130  0.00  0.00    +0.000 Cl
ATOM     13  C   UNL     1       7.519   4.596  15.566  0.00  0.00    +0.000 A 
ATOM     14  C   UNL     1       7.382   4.929  16.916  0.00  0.00    +0.000 A 
ATOM     15  C   UNL     1       6.158   5.426  17.311  0.00  0.00    +0.000 A 
ATOM     16  C   UNL     1       5.529   5.440  18.648  0.00  0.00    +0.000 C 
ATOM     17  O   UNL     1       6.045   4.951  19.639  0.00  0.00    +0.000 OA
ENDBRANCH   5   7
BRANCH   1  19
ATOM     18  C   UNL     1      -0.279   8.723  21.755  0.00  0.00    +0.000 C 
ATOM     19  C   UNL     1       1.041   8.694  20.986  0.00  0.00    +0.000 C 
BRANCH  19  20
ATOM     20  S   UNL     1       0.944   9.759  19.492  0.00  0.00    +0.000 S 
BRANCH  20  21
ATOM     21  C   UNL     1       1.216  11.333  20.144  0.00  0.00    +0.000 A 
ATOM     22  N   UNL     1       0.891  11.784  21.332  0.00  0.00    +0.000 NA
ATOM     23  N   UNL     1       1.255  13.110  21.392  0.00  0.00    +0.000 NA
ATOM     24  C   UNL     1       1.819  13.417  20.246  0.00  0.00    +0.000 A 
ATOM     25  N   UNL     1       1.838  12.322  19.433  0.00  0.00    +0.000 N 
ATOM     26  C   UNL     1       2.384  12.248  18.108  0.00  0.00    +0.000 C 
ENDBRANCH  20  21
ENDBRANCH  19  20
ENDBRANCH   1  19
TORSDOF 4
ENDMDL
MODEL 8
REMARK VINA RESULT:      -7.4      4.548      8.552
REMARK  Name = 
REMARK  6 active torsions:
REMARK  status: ('A' for Active; 'I' for Inactive)
REMARK    1  A    between atoms: C_1  and  C_2
REMARK    2  A    between atoms: C_2  and  S_3
REMARK    3  A    between atoms: C_2  and  C_10
REMARK    4  A    between atoms: S_3  and  C_4
REMARK    5  A    between atoms: N_8  and  C_9
REMARK    6  A    between atoms: C_14  and  N_15
REMARK                            x       y       z     vdW  Elec       q    Type
REMARK                         _______ _______ _______ _____ _____    ______ ____
ROOT
ATOM      1  C   UNL     1      -0.083  10.616  20.142  0.00  0.00    +0.000 A 
ATOM      2  C   UNL     1      -0.341  10.311  21.484  0.00  0.00    +0.000 A 
ATOM      3  C   UNL     1       0.238   9.184  22.082  0.00  0.00    +0.000 A 
ATOM      4  C   UNL     1       1.093   8.347  21.352  0.00  0.00    +0.000 A 
ATOM      5  C   UNL     1       1.325   8.617  20.001  0.00  0.00    +0.000 A 
ATOM      6  C   UNL     1       0.725   9.729  19.416  0.00  0.00    +0.000 A 
ENDROOT
BRANCH   5   7
ATOM      7  N   UNL     1       2.093   7.761  19.177  0.00  0.00    +0.000 N 
ATOM      8  C   UNL     1       2.547   6.487  19.696  0.00  0.00    +0.000 C 
ATOM      9  C   UNL     1       3.731   6.228  18.840  0.00  0.00    +0.000 A 
ATOM     10  C   UNL     1       4.873   5.503  19.098  0.00  0.00    +0.000 A 
ATOM     11  C   UNL     1       5.833   5.435  18.086  0.00  0.00    +0.000 A 
ATOM     12 CL   UNL     1       7.380   4.766  18.438  0.00  0.00    +0.000 Cl
ATOM     13  C   UNL     1       5.589   5.983  16.812  0.00  0.00    +0.000 A 
ATOM     14  C   UNL     1       4.462   6.778  16.591  0.00  0.00    +0.000 A 
ATOM     15  C   UNL     1       3.607   6.954  17.658  0.00  0.00    +0.000 A 
ATOM     16  C   UNL     1       2.635   8.035  17.925  0.00  0.00    +0.000 C 
ATOM     17  O   UNL     1       2.476   8.993  17.188  0.00  0.00    +0.000 OA
ENDBRANCH   5   7
BRANCH   1  19
ATOM     18  C   UNL     1      -0.061  13.173  19.972  0.00  0.00    +0.000 C 
ATOM     19  C   UNL     1      -0.591  11.854  19.411  0.00  0.00    +0.000 C 
BRANCH  19  20
ATOM     20  S   UNL     1      -2.427  11.849  19.394  0.00  0.00    +0.000 S 
BRANCH  20  21
ATOM     21  C   UNL     1      -2.780  11.328  17.787  0.00  0.00    +0.000 A 
ATOM     22  N   UNL     1      -1.958  10.811  16.905  0.00  0.00    +0.000 NA
ATOM     23  N   UNL     1      -2.666  10.596  15.745  0.00  0.00    +0.000 NA
ATOM     24  C   UNL     1      -3.907  10.963  15.967  0.00  0.00    +0.000 A 
ATOM     25  N   UNL     1      -4.035  11.411  17.249  0.00  0.00    +0.000 N 
ATOM     26  C   UNL     1      -5.236  11.882  17.877  0.00  0.00    +0.000 C 
ENDBRANCH  20  21
ENDBRANCH  19  20
ENDBRANCH   1  19
TORSDOF 4
ENDMDL
MODEL 9
REMARK VINA RESULT:      -7.4      2.295      3.147
REMARK  Name = 
REMARK  6 active torsions:
REMARK  status: ('A' for Active; 'I' for Inactive)
REMARK    1  A    between atoms: C_1  and  C_2
REMARK    2  A    between atoms: C_2  and  S_3
REMARK    3  A    between atoms: C_2  and  C_10
REMARK    4  A    between atoms: S_3  and  C_4
REMARK    5  A    between atoms: N_8  and  C_9
REMARK    6  A    between atoms: C_14  and  N_15
REMARK                            x       y       z     vdW  Elec       q    Type
REMARK                         _______ _______ _______ _____ _____    ______ ____
ROOT
ATOM      1  C   UNL     1       3.087   5.566  18.648  0.00  0.00    +0.000 A 
ATOM      2  C   UNL     1       2.875   5.018  19.920  0.00  0.00    +0.000 A 
ATOM      3  C   UNL     1       2.163   5.731  20.892  0.00  0.00    +0.000 A 
ATOM      4  C   UNL     1       1.641   7.000  20.610  0.00  0.00    +0.000 A 
ATOM      5  C   UNL     1       1.880   7.575  19.358  0.00  0.00    +0.000 A 
ATOM      6  C   UNL     1       2.608   6.862  18.410  0.00  0.00    +0.000 A 
ENDROOT
BRANCH   5   7
ATOM      7  N   UNL     1       1.472   8.891  19.038  0.00  0.00    +0.000 N 
ATOM      8  C   UNL     1       2.061   9.566  17.899  0.00  0.00    +0.000 C 
ATOM      9  C   UNL     1       1.863  10.990  18.269  0.00  0.00    +0.000 A 
ATOM     10  C   UNL     1       2.588  12.107  17.923  0.00  0.00    +0.000 A 
ATOM     11  C   UNL     1       2.158  13.335  18.431  0.00  0.00    +0.000 A 
ATOM     12 CL   UNL     1       3.164  14.720  18.246  0.00  0.00    +0.000 Cl
ATOM     13  C   UNL     1       0.962  13.441  19.166  0.00  0.00    +0.000 A 
ATOM     14  C   UNL     1       0.280  12.291  19.572  0.00  0.00    +0.000 A 
ATOM     15  C   UNL     1       0.816  11.082  19.183  0.00  0.00    +0.000 A 
ATOM     16  C   UNL     1       0.655   9.739  19.779  0.00  0.00    +0.000 C 
ATOM     17  O   UNL     1      -0.004   9.524  20.782  0.00  0.00    +0.000 OA
ENDBRANCH   5   7
BRANCH   1  19
ATOM     18  C   UNL     1       3.030   3.616  16.986  0.00  0.00    +0.000 C 
ATOM     19  C   UNL     1       3.775   4.853  17.489  0.00  0.00    +0.000 C 
BRANCH  19  20
ATOM     20  S   UNL     1       5.496   4.422  17.965  0.00  0.00    +0.000 S 
BRANCH  20  21
ATOM     21  C   UNL     1       6.338   5.901  17.680  0.00  0.00    +0.000 A 
ATOM     22  N   UNL     1       6.110   6.795  16.747  0.00  0.00    +0.000 NA
ATOM     23  N   UNL     1       7.061   7.782  16.870  0.00  0.00    +0.000 NA
ATOM     24  C   UNL     1       7.821   7.473  17.895  0.00  0.00    +0.000 A 
ATOM     25  N   UNL     1       7.390   6.306  18.454  0.00  0.00    +0.000 N 
ATOM     26  C   UNL     1       7.949   5.647  19.600  0.00  0.00    +0.000 C 
ENDBRANCH  20  21
ENDBRANCH  19  20
ENDBRANCH   1  19
TORSDOF 4
ENDMDL
