MODEL 1
REMARK VINA RESULT:      -9.5      0.000      0.000
REMARK  Name = 
REMARK  9 active torsions:
REMARK  status: ('A' for Active; 'I' for Inactive)
REMARK    1  A    between atoms: C_1  and  C_2
REMARK    2  A    between atoms: C_6  and  C_7
REMARK    3  A    between atoms: C_7  and  C_8
REMARK    4  A    between atoms: C_8  and  C_9
REMARK    5  A    between atoms: C_13  and  N_14
REMARK    6  A    between atoms: C_15  and  C_17
REMARK    7  A    between atoms: C_19  and  C_20
REMARK    8  A    between atoms: C_20  and  N_21
REMARK    9  A    between atoms: C_29  and  C_30
REMARK                            x       y       z     vdW  Elec       q    Type
REMARK                         _______ _______ _______ _____ _____    ______ ____
ROOT
ATOM      1  N   UNL     1       2.218   7.764  19.623  0.00  0.00    +0.000 N 
ATOM      2  C   UNL     1       2.547   7.799  18.282  0.00  0.00    +0.000 C 
ATOM      3  O   UNL     1       2.096   8.558  17.434  0.00  0.00    +0.000 OA
ATOM      4  H   UNL     1       2.606   6.975  20.134  0.00  0.00    +0.000 HD
ENDROOT
BRANCH   1   9
ATOM      5  C   UNL     1       0.212  10.810  20.360  0.00  0.00    +0.000 A 
ATOM      6  C   UNL     1      -0.523  10.347  21.466  0.00  0.00    +0.000 A 
ATOM      7  C   UNL     1      -0.379   9.050  21.954  0.00  0.00    +0.000 A 
ATOM      8  C   UNL     1       0.514   8.172  21.347  0.00  0.00    +0.000 A 
ATOM      9  C   UNL     1       1.258   8.579  20.248  0.00  0.00    +0.000 A 
ATOM     10  C   UNL     1       1.083   9.875  19.752  0.00  0.00    +0.000 A 
BRANCH   5  11
ATOM     11  C   UNL     1       0.157  12.331  19.838  0.00  0.00    +0.000 C 
ATOM     12  C   UNL     1       1.518  13.077  19.987  0.00  0.00    +0.000 C 
ATOM     13  O   UNL     1       0.965  14.037  20.906  0.00  0.00    +0.000 OA
ATOM     14  C   UNL     1      -0.352  13.462  20.778  0.00  0.00    +0.000 C 
BRANCH  11  15
ATOM     15  C   UNL     1      -0.394  12.411  18.403  0.00  0.00    +0.000 C 
BRANCH  15  21
ATOM     16  C   UNL     1      -3.523  12.463  19.670  0.00  0.00    +0.000 C 
ATOM     17  C   UNL     1      -2.891  11.541  18.701  0.00  0.00    +0.000 A 
ATOM     18  C   UNL     1      -3.485  10.440  18.127  0.00  0.00    +0.000 A 
ATOM     19  O   UNL     1      -2.622   9.829  17.289  0.00  0.00    +0.000 OA
ATOM     20  N   UNL     1      -1.426  10.508  17.291  0.00  0.00    +0.000 NA
ATOM     21  C   UNL     1      -1.578  11.533  18.142  0.00  0.00    +0.000 A 
ENDBRANCH  15  21
ENDBRANCH  11  15
ENDBRANCH   5  11
ENDBRANCH   1   9
BRANCH   2  22
ATOM     22  C   UNL     1       3.517   6.739  17.871  0.00  0.00    +0.000 A 
ATOM     23  C   UNL     1       3.044   5.457  17.658  0.00  0.00    +0.000 A 
ATOM     24  C   UNL     1       3.952   4.455  17.328  0.00  0.00    +0.000 A 
ATOM     25  C   UNL     1       5.300   4.810  17.196  0.00  0.00    +0.000 A 
ATOM     26  C   UNL     1       5.707   6.139  17.393  0.00  0.00    +0.000 A 
ATOM     27  N   UNL     1       4.820   7.102  17.758  0.00  0.00    +0.000 NA
BRANCH  26  28
ATOM     28  C   UNL     1       7.148   6.552  17.204  0.00  0.00    +0.000 C 
ATOM     29  C   UNL     1       7.597   7.964  17.500  0.00  0.00    +0.000 C 
ATOM     30  C   UNL     1       7.985   6.856  18.429  0.00  0.00    +0.000 C 
ENDBRANCH  26  28
BRANCH  24  31
ATOM     31  C   UNL     1       3.457   3.044  17.116  0.00  0.00    +0.000 C 
BRANCH  31  32
ATOM     32  N   UNL     1       2.742   2.455  18.259  0.00  0.00    +0.000 NA
ATOM     33  C   UNL     1       1.323   2.863  18.223  0.00  0.00    +0.000 C 
ATOM     34  C   UNL     1       0.849   2.847  19.669  0.00  0.00    +0.000 C 
ATOM     35  C   UNL     1       2.091   3.186  20.422  0.00  0.00    +0.000 C 
ATOM     36  C   UNL     1       2.137   3.029  21.926  0.00  0.00    +0.000 C 
ATOM     37  C   UNL     1       2.141   4.403  21.325  0.00  0.00    +0.000 C 
ATOM     38  C   UNL     1       3.287   2.855  19.571  0.00  0.00    +0.000 C 
ENDBRANCH  31  32
ENDBRANCH  24  31
ENDBRANCH   2  22
TORSDOF 8
ENDMDL
MODEL 2
REMARK VINA RESULT:      -9.4      1.242      2.594
REMARK  Name = 
REMARK  9 active torsions:
REMARK  status: ('A' for Active; 'I' for Inactive)
REMARK    1  A    between atoms: C_1  and  C_2
REMARK    2  A    between atoms: C_6  and  C_7
REMARK    3  A    between atoms: C_7  and  C_8
REMARK    4  A    between atoms: C_8  and  C_9
REMARK    5  A    between atoms: C_13  and  N_14
REMARK    6  A    between atoms: C_15  and  C_17
REMARK    7  A    between atoms: C_19  and  C_20
REMARK    8  A    between atoms: C_20  and  N_21
REMARK    9  A    between atoms: C_29  and  C_30
REMARK                            x       y       z     vdW  Elec       q    Type
REMARK                         _______ _______ _______ _____ _____    ______ ____
ROOT
ATOM      1  N   UNL     1       2.139   7.950  19.705  0.00  0.00    +0.000 N 
ATOM      2  C   UNL     1       2.442   8.013  18.359  0.00  0.00    +0.000 C 
ATOM      3  O   UNL     1       2.002   8.812  17.542  0.00  0.00    +0.000 OA
ATOM      4  H   UNL     1       2.508   7.133  20.184  0.00  0.00    +0.000 HD
ENDROOT
BRANCH   1   9
ATOM      5  C   UNL     1      -0.423  10.606  20.174  0.00  0.00    +0.000 A 
ATOM      6  C   UNL     1      -0.549  10.569  21.575  0.00  0.00    +0.000 A 
ATOM      7  C   UNL     1       0.181   9.674  22.355  0.00  0.00    +0.000 A 
ATOM      8  C   UNL     1       1.067   8.786  21.752  0.00  0.00    +0.000 A 
ATOM      9  C   UNL     1       1.222   8.779  20.373  0.00  0.00    +0.000 A 
ATOM     10  C   UNL     1       0.462   9.663  19.600  0.00  0.00    +0.000 A 
BRANCH   5  11
ATOM     11  C   UNL     1      -1.162  11.698  19.252  0.00  0.00    +0.000 C 
ATOM     12  C   UNL     1      -2.110  12.637  20.058  0.00  0.00    +0.000 C 
ATOM     13  O   UNL     1      -3.275  12.176  19.348  0.00  0.00    +0.000 OA
ATOM     14  C   UNL     1      -2.473  11.328  18.500  0.00  0.00    +0.000 C 
BRANCH  11  15
ATOM     15  C   UNL     1      -0.151  12.487  18.401  0.00  0.00    +0.000 C 
BRANCH  15  21
ATOM     16  C   UNL     1       2.137  13.119  20.802  0.00  0.00    +0.000 C 
ATOM     17  C   UNL     1       1.253  14.035  20.048  0.00  0.00    +0.000 A 
ATOM     18  C   UNL     1       1.165  15.397  20.222  0.00  0.00    +0.000 A 
ATOM     19  O   UNL     1       0.262  15.919  19.366  0.00  0.00    +0.000 OA
ATOM     20  N   UNL     1      -0.280  14.910  18.604  0.00  0.00    +0.000 NA
ATOM     21  C   UNL     1       0.306  13.775  19.013  0.00  0.00    +0.000 A 
ENDBRANCH  15  21
ENDBRANCH  11  15
ENDBRANCH   5  11
ENDBRANCH   1   9
BRANCH   2  22
ATOM     22  C   UNL     1       3.365   6.932  17.896  0.00  0.00    +0.000 A 
ATOM     23  C   UNL     1       2.843   5.673  17.663  0.00  0.00    +0.000 A 
ATOM     24  C   UNL     1       3.708   4.650  17.285  0.00  0.00    +0.000 A 
ATOM     25  C   UNL     1       5.064   4.963  17.129  0.00  0.00    +0.000 A 
ATOM     26  C   UNL     1       5.521   6.272  17.348  0.00  0.00    +0.000 A 
ATOM     27  N   UNL     1       4.676   7.254  17.759  0.00  0.00    +0.000 NA
BRANCH  26  28
ATOM     28  C   UNL     1       6.970   6.641  17.133  0.00  0.00    +0.000 C 
ATOM     29  C   UNL     1       7.516   7.963  17.621  0.00  0.00    +0.000 C 
ATOM     30  C   UNL     1       7.893   6.700  18.333  0.00  0.00    +0.000 C 
ENDBRANCH  26  28
BRANCH  24  31
ATOM     31  C   UNL     1       3.160   3.261  17.051  0.00  0.00    +0.000 C 
BRANCH  31  32
ATOM     32  N   UNL     1       2.558   2.621  18.231  0.00  0.00    +0.000 NA
ATOM     33  C   UNL     1       1.127   2.975  18.315  0.00  0.00    +0.000 C 
ATOM     34  C   UNL     1       0.769   2.909  19.791  0.00  0.00    +0.000 C 
ATOM     35  C   UNL     1       2.052   3.278  20.455  0.00  0.00    +0.000 C 
ATOM     36  C   UNL     1       2.221   3.090  21.947  0.00  0.00    +0.000 C 
ATOM     37  C   UNL     1       2.128   4.476  21.382  0.00  0.00    +0.000 C 
ATOM     38  C   UNL     1       3.189   3.012  19.506  0.00  0.00    +0.000 C 
ENDBRANCH  31  32
ENDBRANCH  24  31
ENDBRANCH   2  22
TORSDOF 8
ENDMDL
MODEL 3
REMARK VINA RESULT:      -9.4      1.090      2.644
REMARK  Name = 
REMARK  9 active torsions:
REMARK  status: ('A' for Active; 'I' for Inactive)
REMARK    1  A    between atoms: C_1  and  C_2
REMARK    2  A    between atoms: C_6  and  C_7
REMARK    3  A    between atoms: C_7  and  C_8
REMARK    4  A    between atoms: C_8  and  C_9
REMARK    5  A    between atoms: C_13  and  N_14
REMARK    6  A    between atoms: C_15  and  C_17
REMARK    7  A    between atoms: C_19  and  C_20
REMARK    8  A    between atoms: C_20  and  N_21
REMARK    9  A    between atoms: C_29  and  C_30
REMARK                            x       y       z     vdW  Elec       q    Type
REMARK                         _______ _______ _______ _____ _____    ______ ____
ROOT
ATOM      1  N   UNL     1       2.079   8.034  19.550  0.00  0.00    +0.000 N 
ATOM      2  C   UNL     1       2.514   8.115  18.241  0.00  0.00    +0.000 C 
ATOM      3  O   UNL     1       2.211   8.968  17.416  0.00  0.00    +0.000 OA
ATOM      4  H   UNL     1       2.343   7.179  20.032  0.00  0.00    +0.000 HD
ENDROOT
BRANCH   1   9
ATOM      5  C   UNL     1      -0.506  10.694  19.829  0.00  0.00    +0.000 A 
ATOM      6  C   UNL     1      -0.615  10.774  21.230  0.00  0.00    +0.000 A 
ATOM      7  C   UNL     1       0.136   9.955  22.072  0.00  0.00    +0.000 A 
ATOM      8  C   UNL     1       1.024   9.029  21.534  0.00  0.00    +0.000 A 
ATOM      9  C   UNL     1       1.161   8.907  20.158  0.00  0.00    +0.000 A 
ATOM     10  C   UNL     1       0.382   9.716  19.324  0.00  0.00    +0.000 A 
BRANCH   5  11
ATOM     11  C   UNL     1      -1.269  11.697  18.828  0.00  0.00    +0.000 C 
ATOM     12  C   UNL     1      -2.821  11.625  18.957  0.00  0.00    +0.000 C 
ATOM     13  O   UNL     1      -2.976  11.164  17.601  0.00  0.00    +0.000 OA
ATOM     14  C   UNL     1      -1.556  11.269  17.360  0.00  0.00    +0.000 C 
BRANCH  11  15
ATOM     15  C   UNL     1      -0.743  13.137  18.971  0.00  0.00    +0.000 C 
BRANCH  15  21
ATOM     16  C   UNL     1       1.091  14.125  21.629  0.00  0.00    +0.000 C 
ATOM     17  C   UNL     1       1.509  13.687  20.278  0.00  0.00    +0.000 A 
ATOM     18  C   UNL     1       2.802  13.634  19.810  0.00  0.00    +0.000 A 
ATOM     19  O   UNL     1       2.819  13.186  18.537  0.00  0.00    +0.000 OA
ATOM     20  N   UNL     1       1.531  12.937  18.124  0.00  0.00    +0.000 NA
ATOM     21  C   UNL     1       0.738  13.242  19.162  0.00  0.00    +0.000 A 
ENDBRANCH  15  21
ENDBRANCH  11  15
ENDBRANCH   5  11
ENDBRANCH   1   9
BRANCH   2  22
ATOM     22  C   UNL     1       3.400   6.985  17.829  0.00  0.00    +0.000 A 
ATOM     23  C   UNL     1       2.828   5.748  17.595  0.00  0.00    +0.000 A 
ATOM     24  C   UNL     1       3.657   4.679  17.263  0.00  0.00    +0.000 A 
ATOM     25  C   UNL     1       5.031   4.925  17.153  0.00  0.00    +0.000 A 
ATOM     26  C   UNL     1       5.541   6.215  17.370  0.00  0.00    +0.000 A 
ATOM     27  N   UNL     1       4.730   7.242  17.736  0.00  0.00    +0.000 NA
BRANCH  26  28
ATOM     28  C   UNL     1       7.013   6.511  17.204  0.00  0.00    +0.000 C 
ATOM     29  C   UNL     1       7.580   7.862  17.574  0.00  0.00    +0.000 C 
ATOM     30  C   UNL     1       7.867   6.678  18.443  0.00  0.00    +0.000 C 
ENDBRANCH  26  28
BRANCH  24  31
ATOM     31  C   UNL     1       3.051   3.315  17.029  0.00  0.00    +0.000 C 
BRANCH  31  32
ATOM     32  N   UNL     1       2.489   2.667  18.224  0.00  0.00    +0.000 NA
ATOM     33  C   UNL     1       1.057   3.005  18.348  0.00  0.00    +0.000 C 
ATOM     34  C   UNL     1       0.740   2.935  19.833  0.00  0.00    +0.000 C 
ATOM     35  C   UNL     1       2.037   3.319  20.462  0.00  0.00    +0.000 C 
ATOM     36  C   UNL     1       2.248   3.132  21.948  0.00  0.00    +0.000 C 
ATOM     37  C   UNL     1       2.124   4.518  21.387  0.00  0.00    +0.000 C 
ATOM     38  C   UNL     1       3.151   3.066  19.482  0.00  0.00    +0.000 C 
ENDBRANCH  31  32
ENDBRANCH  24  31
ENDBRANCH   2  22
TORSDOF 8
ENDMDL
MODEL 4
REMARK VINA RESULT:      -9.3      1.742      2.666
REMARK  Name = 
REMARK  9 active torsions:
REMARK  status: ('A' for Active; 'I' for Inactive)
REMARK    1  A    between atoms: C_1  and  C_2
REMARK    2  A    between atoms: C_6  and  C_7
REMARK    3  A    between atoms: C_7  and  C_8
REMARK    4  A    between atoms: C_8  and  C_9
REMARK    5  A    between atoms: C_13  and  N_14
REMARK    6  A    between atoms: C_15  and  C_17
REMARK    7  A    between atoms: C_19  and  C_20
REMARK    8  A    between atoms: C_20  and  N_21
REMARK    9  A    between atoms: C_29  and  C_30
REMARK                            x       y       z     vdW  Elec       q    Type
REMARK                         _______ _______ _______ _____ _____    ______ ____
ROOT
ATOM      1  N   UNL     1       1.854   8.457  17.684  0.00  0.00    +0.000 N 
ATOM      2  C   UNL     1       2.416   7.641  18.647  0.00  0.00    +0.000 C 
ATOM      3  O   UNL     1       2.236   7.700  19.857  0.00  0.00    +0.000 OA
ATOM      4  H   UNL     1       2.231   8.329  16.749  0.00  0.00    +0.000 HD
ENDROOT
BRANCH   1   9
ATOM      5  C   UNL     1       0.801  11.850  18.785  0.00  0.00    +0.000 A 
ATOM      6  C   UNL     1      -0.589  11.742  18.590  0.00  0.00    +0.000 A 
ATOM      7  C   UNL     1      -1.172  10.581  18.088  0.00  0.00    +0.000 A 
ATOM      8  C   UNL     1      -0.377   9.484  17.767  0.00  0.00    +0.000 A 
ATOM      9  C   UNL     1       0.999   9.544  17.934  0.00  0.00    +0.000 A 
ATOM     10  C   UNL     1       1.574  10.726  18.412  0.00  0.00    +0.000 A 
BRANCH   5  11
ATOM     11  C   UNL     1       1.498  13.130  19.467  0.00  0.00    +0.000 C 
ATOM     12  C   UNL     1       0.835  14.479  19.054  0.00  0.00    +0.000 C 
ATOM     13  O   UNL     1       2.039  14.951  18.421  0.00  0.00    +0.000 OA
ATOM     14  C   UNL     1       2.762  13.768  18.822  0.00  0.00    +0.000 C 
BRANCH  11  15
ATOM     15  C   UNL     1       1.585  12.972  20.995  0.00  0.00    +0.000 C 
BRANCH  15  21
ATOM     16  C   UNL     1       0.224  10.040  21.973  0.00  0.00    +0.000 C 
ATOM     17  C   UNL     1      -0.303  11.422  22.050  0.00  0.00    +0.000 A 
ATOM     18  C   UNL     1      -1.540  11.788  22.529  0.00  0.00    +0.000 A 
ATOM     19  O   UNL     1      -1.689  13.127  22.456  0.00  0.00    +0.000 OA
ATOM     20  N   UNL     1      -0.553  13.684  21.916  0.00  0.00    +0.000 NA
ATOM     21  C   UNL     1       0.282  12.665  21.664  0.00  0.00    +0.000 A 
ENDBRANCH  15  21
ENDBRANCH  11  15
ENDBRANCH   5  11
ENDBRANCH   1   9
BRANCH   2  22
ATOM     22  C   UNL     1       3.378   6.637  18.102  0.00  0.00    +0.000 A 
ATOM     23  C   UNL     1       2.921   5.360  17.834  0.00  0.00    +0.000 A 
ATOM     24  C   UNL     1       3.826   4.406  17.377  0.00  0.00    +0.000 A 
ATOM     25  C   UNL     1       5.154   4.805  17.182  0.00  0.00    +0.000 A 
ATOM     26  C   UNL     1       5.544   6.128  17.441  0.00  0.00    +0.000 A 
ATOM     27  N   UNL     1       4.663   7.041  17.928  0.00  0.00    +0.000 NA
BRANCH  26  28
ATOM     28  C   UNL     1       6.959   6.591  17.187  0.00  0.00    +0.000 C 
ATOM     29  C   UNL     1       7.403   7.983  17.571  0.00  0.00    +0.000 C 
ATOM     30  C   UNL     1       7.879   6.809  18.370  0.00  0.00    +0.000 C 
ENDBRANCH  26  28
BRANCH  24  31
ATOM     31  C   UNL     1       3.349   2.999  17.104  0.00  0.00    +0.000 C 
BRANCH  31  32
ATOM     32  N   UNL     1       2.608   2.366  18.205  0.00  0.00    +0.000 NA
ATOM     33  C   UNL     1       1.216   2.861  18.220  0.00  0.00    +0.000 C 
ATOM     34  C   UNL     1       0.754   2.759  19.665  0.00  0.00    +0.000 C 
ATOM     35  C   UNL     1       2.020   2.960  20.427  0.00  0.00    +0.000 C 
ATOM     36  C   UNL     1       2.068   2.681  21.914  0.00  0.00    +0.000 C 
ATOM     37  C   UNL     1       2.152   4.096  21.423  0.00  0.00    +0.000 C 
ATOM     38  C   UNL     1       3.187   2.626  19.538  0.00  0.00    +0.000 C 
ENDBRANCH  31  32
ENDBRANCH  24  31
ENDBRANCH   2  22
TORSDOF 8
ENDMDL
MODEL 5
REMARK VINA RESULT:      -9.2      1.060      1.218
REMARK  Name = 
REMARK  9 active torsions:
REMARK  status: ('A' for Active; 'I' for Inactive)
REMARK    1  A    between atoms: C_1  and  C_2
REMARK    2  A    between atoms: C_6  and  C_7
REMARK    3  A    between atoms: C_7  and  C_8
REMARK    4  A    between atoms: C_8  and  C_9
REMARK    5  A    between atoms: C_13  and  N_14
REMARK    6  A    between atoms: C_15  and  C_17
REMARK    7  A    between atoms: C_19  and  C_20
REMARK    8  A    between atoms: C_20  and  N_21
REMARK    9  A    between atoms: C_29  and  C_30
REMARK                            x       y       z     vdW  Elec       q    Type
REMARK                         _______ _______ _______ _____ _____    ______ ____
ROOT
ATOM      1  N   UNL     1       2.192   7.859  19.533  0.00  0.00    +0.000 N 
ATOM      2  C   UNL     1       2.583   7.894  18.209  0.00  0.00    +0.000 C 
ATOM      3  O   UNL     1       2.212   8.688  17.353  0.00  0.00    +0.000 OA
ATOM      4  H   UNL     1       2.513   7.043  20.048  0.00  0.00    +0.000 HD
ENDROOT
BRANCH   1   9
ATOM      5  C   UNL     1      -0.005  10.832  19.952  0.00  0.00    +0.000 A 
ATOM      6  C   UNL     1      -0.517  10.569  21.236  0.00  0.00    +0.000 A 
ATOM      7  C   UNL     1      -0.162   9.424  21.948  0.00  0.00    +0.000 A 
ATOM      8  C   UNL     1       0.723   8.505  21.395  0.00  0.00    +0.000 A 
ATOM      9  C   UNL     1       1.251   8.716  20.128  0.00  0.00    +0.000 A 
ATOM     10  C   UNL     1       0.864   9.854  19.413  0.00  0.00    +0.000 A 
BRANCH   5  11
ATOM     11  C   UNL     1      -0.300  12.193  19.147  0.00  0.00    +0.000 C 
ATOM     12  C   UNL     1       0.997  12.921  18.682  0.00  0.00    +0.000 C 
ATOM     13  O   UNL     1       0.714  14.080  19.488  0.00  0.00    +0.000 OA
ATOM     14  C   UNL     1      -0.545  13.521  19.920  0.00  0.00    +0.000 C 
BRANCH  11  15
ATOM     15  C   UNL     1      -1.280  11.954  17.984  0.00  0.00    +0.000 C 
BRANCH  15  21
ATOM     16  C   UNL     1      -3.995  10.840  16.313  0.00  0.00    +0.000 C 
ATOM     17  C   UNL     1      -3.866  11.413  17.672  0.00  0.00    +0.000 A 
ATOM     18  C   UNL     1      -4.900  11.650  18.549  0.00  0.00    +0.000 A 
ATOM     19  O   UNL     1      -4.425  12.175  19.698  0.00  0.00    +0.000 OA
ATOM     20  N   UNL     1      -3.059  12.307  19.608  0.00  0.00    +0.000 NA
ATOM     21  C   UNL     1      -2.717  11.858  18.391  0.00  0.00    +0.000 A 
ENDBRANCH  15  21
ENDBRANCH  11  15
ENDBRANCH   5  11
ENDBRANCH   1   9
BRANCH   2  22
ATOM     22  C   UNL     1       3.511   6.789  17.823  0.00  0.00    +0.000 A 
ATOM     23  C   UNL     1       2.985   5.530  17.603  0.00  0.00    +0.000 A 
ATOM     24  C   UNL     1       3.853   4.485  17.297  0.00  0.00    +0.000 A 
ATOM     25  C   UNL     1       5.219   4.777  17.197  0.00  0.00    +0.000 A 
ATOM     26  C   UNL     1       5.682   6.086  17.400  0.00  0.00    +0.000 A 
ATOM     27  N   UNL     1       4.833   7.091  17.740  0.00  0.00    +0.000 NA
BRANCH  26  28
ATOM     28  C   UNL     1       7.145   6.430  17.244  0.00  0.00    +0.000 C 
ATOM     29  C   UNL     1       7.651   7.823  17.541  0.00  0.00    +0.000 C 
ATOM     30  C   UNL     1       7.965   6.707  18.488  0.00  0.00    +0.000 C 
ENDBRANCH  26  28
BRANCH  24  31
ATOM     31  C   UNL     1       3.297   3.097  17.077  0.00  0.00    +0.000 C 
BRANCH  31  32
ATOM     32  N   UNL     1       2.653   2.490  18.252  0.00  0.00    +0.000 NA
ATOM     33  C   UNL     1       1.222   2.855  18.280  0.00  0.00    +0.000 C 
ATOM     34  C   UNL     1       0.815   2.828  19.745  0.00  0.00    +0.000 C 
ATOM     35  C   UNL     1       2.079   3.205  20.441  0.00  0.00    +0.000 C 
ATOM     36  C   UNL     1       2.198   3.052  21.942  0.00  0.00    +0.000 C 
ATOM     37  C   UNL     1       2.133   4.425  21.341  0.00  0.00    +0.000 C 
ATOM     38  C   UNL     1       3.245   2.908  19.537  0.00  0.00    +0.000 C 
ENDBRANCH  31  32
ENDBRANCH  24  31
ENDBRANCH   2  22
TORSDOF 8
ENDMDL
MODEL 6
REMARK VINA RESULT:      -9.2      1.392      2.690
REMARK  Name = 
REMARK  9 active torsions:
REMARK  status: ('A' for Active; 'I' for Inactive)
REMARK    1  A    between atoms: C_1  and  C_2
REMARK    2  A    between atoms: C_6  and  C_7
REMARK    3  A    between atoms: C_7  and  C_8
REMARK    4  A    between atoms: C_8  and  C_9
REMARK    5  A    between atoms: C_13  and  N_14
REMARK    6  A    between atoms: C_15  and  C_17
REMARK    7  A    between atoms: C_19  and  C_20
REMARK    8  A    between atoms: C_20  and  N_21
REMARK    9  A    between atoms: C_29  and  C_30
REMARK                            x       y       z     vdW  Elec       q    Type
REMARK                         _______ _______ _______ _____ _____    ______ ____
ROOT
ATOM      1  N   UNL     1       2.086   7.743  19.798  0.00  0.00    +0.000 N 
ATOM      2  C   UNL     1       2.385   7.872  18.456  0.00  0.00    +0.000 C 
ATOM      3  O   UNL     1       1.995   8.751  17.697  0.00  0.00    +0.000 OA
ATOM      4  H   UNL     1       2.401   6.873  20.220  0.00  0.00    +0.000 HD
ENDROOT
BRANCH   1   9
ATOM      5  C   UNL     1      -0.260  10.550  20.472  0.00  0.00    +0.000 A 
ATOM      6  C   UNL     1      -0.403  10.411  21.864  0.00  0.00    +0.000 A 
ATOM      7  C   UNL     1       0.246   9.401  22.572  0.00  0.00    +0.000 A 
ATOM      8  C   UNL     1       1.063   8.496  21.903  0.00  0.00    +0.000 A 
ATOM      9  C   UNL     1       1.231   8.587  20.528  0.00  0.00    +0.000 A 
ATOM     10  C   UNL     1       0.552   9.589  19.826  0.00  0.00    +0.000 A 
BRANCH   5  11
ATOM     11  C   UNL     1      -0.899  11.769  19.637  0.00  0.00    +0.000 C 
ATOM     12  C   UNL     1      -2.167  12.373  20.314  0.00  0.00    +0.000 C 
ATOM     13  O   UNL     1      -3.012  12.004  19.209  0.00  0.00    +0.000 OA
ATOM     14  C   UNL     1      -1.887  11.484  18.469  0.00  0.00    +0.000 C 
BRANCH  11  15
ATOM     15  C   UNL     1       0.155  12.844  19.320  0.00  0.00    +0.000 C 
BRANCH  15  21
ATOM     16  C   UNL     1      -0.935  15.996  19.853  0.00  0.00    +0.000 C 
ATOM     17  C   UNL     1      -0.019  15.145  20.645  0.00  0.00    +0.000 A 
ATOM     18  C   UNL     1       0.632  15.517  21.800  0.00  0.00    +0.000 A 
ATOM     19  O   UNL     1       1.384  14.496  22.259  0.00  0.00    +0.000 OA
ATOM     20  N   UNL     1       1.257  13.418  21.413  0.00  0.00    +0.000 NA
ATOM     21  C   UNL     1       0.421  13.804  20.438  0.00  0.00    +0.000 A 
ENDBRANCH  15  21
ENDBRANCH  11  15
ENDBRANCH   5  11
ENDBRANCH   1   9
BRANCH   2  22
ATOM     22  C   UNL     1       3.228   6.764  17.915  0.00  0.00    +0.000 A 
ATOM     23  C   UNL     1       2.637   5.535  17.684  0.00  0.00    +0.000 A 
ATOM     24  C   UNL     1       3.431   4.485  17.232  0.00  0.00    +0.000 A 
ATOM     25  C   UNL     1       4.789   4.741  17.004  0.00  0.00    +0.000 A 
ATOM     26  C   UNL     1       5.317   6.022  17.228  0.00  0.00    +0.000 A 
ATOM     27  N   UNL     1       4.544   7.030  17.710  0.00  0.00    +0.000 NA
BRANCH  26  28
ATOM     28  C   UNL     1       6.767   6.332  16.938  0.00  0.00    +0.000 C 
ATOM     29  C   UNL     1       7.423   7.574  17.494  0.00  0.00    +0.000 C 
ATOM     30  C   UNL     1       7.772   6.236  18.067  0.00  0.00    +0.000 C 
ENDBRANCH  26  28
BRANCH  24  31
ATOM     31  C   UNL     1       2.807   3.129  16.997  0.00  0.00    +0.000 C 
BRANCH  31  32
ATOM     32  N   UNL     1       2.311   2.452  18.206  0.00  0.00    +0.000 NA
ATOM     33  C   UNL     1       0.904   2.829  18.446  0.00  0.00    +0.000 C 
ATOM     34  C   UNL     1       0.692   2.710  19.948  0.00  0.00    +0.000 C 
ATOM     35  C   UNL     1       2.044   3.029  20.493  0.00  0.00    +0.000 C 
ATOM     36  C   UNL     1       2.355   2.777  21.952  0.00  0.00    +0.000 C 
ATOM     37  C   UNL     1       2.237   4.187  21.453  0.00  0.00    +0.000 C 
ATOM     38  C   UNL     1       3.074   2.780  19.426  0.00  0.00    +0.000 C 
ENDBRANCH  31  32
ENDBRANCH  24  31
ENDBRANCH   2  22
TORSDOF 8
ENDMDL
MODEL 7
REMARK VINA RESULT:      -9.1      2.340      3.884
REMARK  Name = 
REMARK  9 active torsions:
REMARK  status: ('A' for Active; 'I' for Inactive)
REMARK    1  A    between atoms: C_1  and  C_2
REMARK    2  A    between atoms: C_6  and  C_7
REMARK    3  A    between atoms: C_7  and  C_8
REMARK    4  A    between atoms: C_8  and  C_9
REMARK    5  A    between atoms: C_13  and  N_14
REMARK    6  A    between atoms: C_15  and  C_17
REMARK    7  A    between atoms: C_19  and  C_20
REMARK    8  A    between atoms: C_20  and  N_21
REMARK    9  A    between atoms: C_29  and  C_30
REMARK                            x       y       z     vdW  Elec       q    Type
REMARK                         _______ _______ _______ _____ _____    ______ ____
ROOT
ATOM      1  N   UNL     1       1.934   8.644  17.734  0.00  0.00    +0.000 N 
ATOM      2  C   UNL     1       2.394   7.728  18.660  0.00  0.00    +0.000 C 
ATOM      3  O   UNL     1       2.163   7.719  19.863  0.00  0.00    +0.000 OA
ATOM      4  H   UNL     1       2.344   8.553  16.809  0.00  0.00    +0.000 HD
ENDROOT
BRANCH   1   9
ATOM      5  C   UNL     1       1.112  12.129  18.742  0.00  0.00    +0.000 A 
ATOM      6  C   UNL     1      -0.293  12.051  18.741  0.00  0.00    +0.000 A 
ATOM      7  C   UNL     1      -0.963  10.879  18.397  0.00  0.00    +0.000 A 
ATOM      8  C   UNL     1      -0.243   9.742  18.045  0.00  0.00    +0.000 A 
ATOM      9  C   UNL     1       1.144   9.770  18.024  0.00  0.00    +0.000 A 
ATOM     10  C   UNL     1       1.804  10.962  18.344  0.00  0.00    +0.000 A 
BRANCH   5  11
ATOM     11  C   UNL     1       1.922  13.427  19.241  0.00  0.00    +0.000 C 
ATOM     12  C   UNL     1       2.268  13.384  20.760  0.00  0.00    +0.000 C 
ATOM     13  O   UNL     1       1.475  14.552  21.041  0.00  0.00    +0.000 OA
ATOM     14  C   UNL     1       1.156  14.720  19.643  0.00  0.00    +0.000 C 
BRANCH  11  15
ATOM     15  C   UNL     1       3.166  13.679  18.370  0.00  0.00    +0.000 C 
BRANCH  15  21
ATOM     16  C   UNL     1       2.962  16.817  17.137  0.00  0.00    +0.000 C 
ATOM     17  C   UNL     1       3.853  16.242  18.169  0.00  0.00    +0.000 A 
ATOM     18  C   UNL     1       4.855  16.912  18.834  0.00  0.00    +0.000 A 
ATOM     19  O   UNL     1       5.466  16.086  19.709  0.00  0.00    +0.000 OA
ATOM     20  N   UNL     1       4.888  14.840  19.640  0.00  0.00    +0.000 NA
ATOM     21  C   UNL     1       3.923  14.925  18.713  0.00  0.00    +0.000 A 
ENDBRANCH  15  21
ENDBRANCH  11  15
ENDBRANCH   5  11
ENDBRANCH   1   9
BRANCH   2  22
ATOM     22  C   UNL     1       3.310   6.697  18.086  0.00  0.00    +0.000 A 
ATOM     23  C   UNL     1       2.802   5.441  17.809  0.00  0.00    +0.000 A 
ATOM     24  C   UNL     1       3.665   4.462  17.326  0.00  0.00    +0.000 A 
ATOM     25  C   UNL     1       5.004   4.815  17.114  0.00  0.00    +0.000 A 
ATOM     26  C   UNL     1       5.445   6.119  17.384  0.00  0.00    +0.000 A 
ATOM     27  N   UNL     1       4.606   7.057  17.896  0.00  0.00    +0.000 NA
BRANCH  26  28
ATOM     28  C   UNL     1       6.872   6.533  17.112  0.00  0.00    +0.000 C 
ATOM     29  C   UNL     1       7.388   7.883  17.556  0.00  0.00    +0.000 C 
ATOM     30  C   UNL     1       7.833   6.648  18.277  0.00  0.00    +0.000 C 
ENDBRANCH  26  28
BRANCH  24  31
ATOM     31  C   UNL     1       3.133   3.077  17.042  0.00  0.00    +0.000 C 
BRANCH  31  32
ATOM     32  N   UNL     1       2.487   2.410  18.183  0.00  0.00    +0.000 NA
ATOM     33  C   UNL     1       1.086   2.861  18.297  0.00  0.00    +0.000 C 
ATOM     34  C   UNL     1       0.725   2.730  19.769  0.00  0.00    +0.000 C 
ATOM     35  C   UNL     1       2.033   2.963  20.446  0.00  0.00    +0.000 C 
ATOM     36  C   UNL     1       2.190   2.671  21.923  0.00  0.00    +0.000 C 
ATOM     37  C   UNL     1       2.197   4.093  21.445  0.00  0.00    +0.000 C 
ATOM     38  C   UNL     1       3.147   2.675  19.476  0.00  0.00    +0.000 C 
ENDBRANCH  31  32
ENDBRANCH  24  31
ENDBRANCH   2  22
TORSDOF 8
ENDMDL
MODEL 8
REMARK VINA RESULT:      -9.1      1.636      2.863
REMARK  Name = 
REMARK  9 active torsions:
REMARK  status: ('A' for Active; 'I' for Inactive)
REMARK    1  A    between atoms: C_1  and  C_2
REMARK    2  A    between atoms: C_6  and  C_7
REMARK    3  A    between atoms: C_7  and  C_8
REMARK    4  A    between atoms: C_8  and  C_9
REMARK    5  A    between atoms: C_13  and  N_14
REMARK    6  A    between atoms: C_15  and  C_17
REMARK    7  A    between atoms: C_19  and  C_20
REMARK    8  A    between atoms: C_20  and  N_21
REMARK    9  A    between atoms: C_29  and  C_30
REMARK                            x       y       z     vdW  Elec       q    Type
REMARK                         _______ _______ _______ _____ _____    ______ ____
ROOT
ATOM      1  N   UNL     1       2.085   7.871  19.843  0.00  0.00    +0.000 N 
ATOM      2  C   UNL     1       2.314   7.947  18.483  0.00  0.00    +0.000 C 
ATOM      3  O   UNL     1       1.791   8.722  17.691  0.00  0.00    +0.000 OA
ATOM      4  H   UNL     1       2.521   7.075  20.301  0.00  0.00    +0.000 HD
ENDROOT
BRANCH   1   9
ATOM      5  C   UNL     1       0.211  10.900  20.916  0.00  0.00    +0.000 A 
ATOM      6  C   UNL     1      -0.539  10.352  21.973  0.00  0.00    +0.000 A 
ATOM      7  C   UNL     1      -0.447   9.006  22.318  0.00  0.00    +0.000 A 
ATOM      8  C   UNL     1       0.407   8.162  21.614  0.00  0.00    +0.000 A 
ATOM      9  C   UNL     1       1.163   8.653  20.559  0.00  0.00    +0.000 A 
ATOM     10  C   UNL     1       1.039  10.000  20.205  0.00  0.00    +0.000 A 
BRANCH   5  11
ATOM     11  C   UNL     1       0.218  12.470  20.561  0.00  0.00    +0.000 C 
ATOM     12  C   UNL     1      -0.937  13.256  21.251  0.00  0.00    +0.000 C 
ATOM     13  O   UNL     1      -1.531  13.618  19.991  0.00  0.00    +0.000 OA
ATOM     14  C   UNL     1      -0.464  12.979  19.258  0.00  0.00    +0.000 C 
BRANCH  11  15
ATOM     15  C   UNL     1       1.594  13.100  20.837  0.00  0.00    +0.000 C 
BRANCH  15  21
ATOM     16  C   UNL     1       2.827  12.241  17.813  0.00  0.00    +0.000 C 
ATOM     17  C   UNL     1       2.678  13.567  18.452  0.00  0.00    +0.000 A 
ATOM     18  C   UNL     1       3.074  14.771  17.915  0.00  0.00    +0.000 A 
ATOM     19  O   UNL     1       2.783  15.778  18.765  0.00  0.00    +0.000 OA
ATOM     20  N   UNL     1       2.192  15.264  19.896  0.00  0.00    +0.000 NA
ATOM     21  C   UNL     1       2.131  13.937  19.717  0.00  0.00    +0.000 A 
ENDBRANCH  15  21
ENDBRANCH  11  15
ENDBRANCH   5  11
ENDBRANCH   1   9
BRANCH   2  22
ATOM     22  C   UNL     1       3.266   6.915  17.971  0.00  0.00    +0.000 A 
ATOM     23  C   UNL     1       2.788   5.642  17.721  0.00  0.00    +0.000 A 
ATOM     24  C   UNL     1       3.682   4.663  17.297  0.00  0.00    +0.000 A 
ATOM     25  C   UNL     1       5.020   5.032  17.115  0.00  0.00    +0.000 A 
ATOM     26  C   UNL     1       5.431   6.353  17.354  0.00  0.00    +0.000 A 
ATOM     27  N   UNL     1       4.560   7.292  17.810  0.00  0.00    +0.000 NA
BRANCH  26  28
ATOM     28  C   UNL     1       6.859   6.784  17.113  0.00  0.00    +0.000 C 
ATOM     29  C   UNL     1       7.374   8.101  17.646  0.00  0.00    +0.000 C 
ATOM     30  C   UNL     1       7.817   6.821  18.285  0.00  0.00    +0.000 C 
ENDBRANCH  26  28
BRANCH  24  31
ATOM     31  C   UNL     1       3.182   3.260  17.043  0.00  0.00    +0.000 C 
BRANCH  31  32
ATOM     32  N   UNL     1       2.579   2.592  18.207  0.00  0.00    +0.000 NA
ATOM     33  C   UNL     1       1.149   2.950  18.301  0.00  0.00    +0.000 C 
ATOM     34  C   UNL     1       0.792   2.848  19.776  0.00  0.00    +0.000 C 
ATOM     35  C   UNL     1       2.078   3.194  20.447  0.00  0.00    +0.000 C 
ATOM     36  C   UNL     1       2.247   2.967  21.934  0.00  0.00    +0.000 C 
ATOM     37  C   UNL     1       2.159   4.368  21.405  0.00  0.00    +0.000 C 
ATOM     38  C   UNL     1       3.213   2.947  19.491  0.00  0.00    +0.000 C 
ENDBRANCH  31  32
ENDBRANCH  24  31
ENDBRANCH   2  22
TORSDOF 8
ENDMDL
MODEL 9
REMARK VINA RESULT:      -9.1      1.547      2.748
REMARK  Name = 
REMARK  9 active torsions:
REMARK  status: ('A' for Active; 'I' for Inactive)
REMARK    1  A    between atoms: C_1  and  C_2
REMARK    2  A    between atoms: C_6  and  C_7
REMARK    3  A    between atoms: C_7  and  C_8
REMARK    4  A    between atoms: C_8  and  C_9
REMARK    5  A    between atoms: C_13  and  N_14
REMARK    6  A    between atoms: C_15  and  C_17
REMARK    7  A    between atoms: C_19  and  C_20
REMARK    8  A    between atoms: C_20  and  N_21
REMARK    9  A    between atoms: C_29  and  C_30
REMARK                            x       y       z     vdW  Elec       q    Type
REMARK                         _______ _______ _______ _____ _____    ______ ____
ROOT
ATOM      1  N   UNL     1       2.135   7.792  19.745  0.00  0.00    +0.000 N 
ATOM      2  C   UNL     1       2.387   7.831  18.388  0.00  0.00    +0.000 C 
ATOM      3  O   UNL     1       1.893   8.596  17.569  0.00  0.00    +0.000 OA
ATOM      4  H   UNL     1       2.546   6.999  20.230  0.00  0.00    +0.000 HD
ENDROOT
BRANCH   1   9
ATOM      5  C   UNL     1       0.185  10.843  20.600  0.00  0.00    +0.000 A 
ATOM      6  C   UNL     1      -0.483  10.383  21.750  0.00  0.00    +0.000 A 
ATOM      7  C   UNL     1      -0.311   9.086  22.230  0.00  0.00    +0.000 A 
ATOM      8  C   UNL     1       0.541   8.206  21.570  0.00  0.00    +0.000 A 
ATOM      9  C   UNL     1       1.217   8.609  20.427  0.00  0.00    +0.000 A 
ATOM     10  C   UNL     1       1.014   9.905  19.941  0.00  0.00    +0.000 A 
BRANCH   5  11
ATOM     11  C   UNL     1       0.101  12.364  20.081  0.00  0.00    +0.000 C 
ATOM     12  C   UNL     1      -1.296  13.014  20.320  0.00  0.00    +0.000 C 
ATOM     13  O   UNL     1      -1.528  13.186  18.910  0.00  0.00    +0.000 OA
ATOM     14  C   UNL     1      -0.221  12.664  18.589  0.00  0.00    +0.000 C 
BRANCH  11  15
ATOM     15  C   UNL     1       1.243  13.217  20.662  0.00  0.00    +0.000 C 
BRANCH  15  21
ATOM     16  C   UNL     1       0.778  16.391  19.609  0.00  0.00    +0.000 C 
ATOM     17  C   UNL     1       1.763  15.371  19.188  0.00  0.00    +0.000 A 
ATOM     18  C   UNL     1       2.709  15.521  18.200  0.00  0.00    +0.000 A 
ATOM     19  O   UNL     1       3.442  14.394  18.081  0.00  0.00    +0.000 OA
ATOM     20  N   UNL     1       2.993  13.461  18.987  0.00  0.00    +0.000 NA
ATOM     21  C   UNL     1       1.981  14.039  19.651  0.00  0.00    +0.000 A 
ENDBRANCH  15  21
ENDBRANCH  11  15
ENDBRANCH   5  11
ENDBRANCH   1   9
BRANCH   2  22
ATOM     22  C   UNL     1       3.325   6.767  17.917  0.00  0.00    +0.000 A 
ATOM     23  C   UNL     1       2.826   5.498  17.690  0.00  0.00    +0.000 A 
ATOM     24  C   UNL     1       3.706   4.491  17.305  0.00  0.00    +0.000 A 
ATOM     25  C   UNL     1       5.055   4.830  17.135  0.00  0.00    +0.000 A 
ATOM     26  C   UNL     1       5.488   6.147  17.349  0.00  0.00    +0.000 A 
ATOM     27  N   UNL     1       4.630   7.114  17.768  0.00  0.00    +0.000 NA
BRANCH  26  28
ATOM     28  C   UNL     1       6.928   6.544  17.120  0.00  0.00    +0.000 C 
ATOM     29  C   UNL     1       7.439   7.900  17.549  0.00  0.00    +0.000 C 
ATOM     30  C   UNL     1       7.846   6.680  18.318  0.00  0.00    +0.000 C 
ENDBRANCH  26  28
BRANCH  24  31
ATOM     31  C   UNL     1       3.182   3.093  17.077  0.00  0.00    +0.000 C 
BRANCH  31  32
ATOM     32  N   UNL     1       2.546   2.466  18.246  0.00  0.00    +0.000 NA
ATOM     33  C   UNL     1       1.128   2.872  18.319  0.00  0.00    +0.000 C 
ATOM     34  C   UNL     1       0.753   2.809  19.791  0.00  0.00    +0.000 C 
ATOM     35  C   UNL     1       2.042   3.126  20.470  0.00  0.00    +0.000 C 
ATOM     36  C   UNL     1       2.189   2.921  21.962  0.00  0.00    +0.000 C 
ATOM     37  C   UNL     1       2.152   4.314  21.406  0.00  0.00    +0.000 C 
ATOM     38  C   UNL     1       3.178   2.826  19.530  0.00  0.00    +0.000 C 
ENDBRANCH  31  32
ENDBRANCH  24  31
ENDBRANCH   2  22
TORSDOF 8
ENDMDL
