MODEL 1
REMARK VINA RESULT:      -9.4      0.000      0.000
REMARK  Name = 
REMARK  9 active torsions:
REMARK  status: ('A' for Active; 'I' for Inactive)
REMARK    1  A    between atoms: C_1  and  N_2
REMARK    2  A    between atoms: C_6  and  C_7
REMARK    3  A    between atoms: C_7  and  C_8
REMARK    4  A    between atoms: C_8  and  C_9
REMARK    5  A    between atoms: C_13  and  N_14
REMARK    6  A    between atoms: C_19  and  C_20
REMARK    7  A    between atoms: C_20  and  N_21
REMARK    8  A    between atoms: C_25  and  C_26
REMARK    9  A    between atoms: C_30  and  C_31
REMARK                            x       y       z     vdW  Elec       q    Type
REMARK                         _______ _______ _______ _____ _____    ______ ____
ROOT
ATOM      1  N   UNL     1       1.375   8.333  20.404  0.00  0.00    +0.000 N 
ATOM      2  C   UNL     1       1.522   6.982  20.907  0.00  0.00    +0.000 C 
ATOM      3  C   UNL     1       2.123   6.240  19.782  0.00  0.00    +0.000 A 
ATOM      4  C   UNL     1       2.484   7.116  18.757  0.00  0.00    +0.000 A 
ATOM      5  C   UNL     1       3.244   6.664  17.676  0.00  0.00    +0.000 A 
ATOM      6  C   UNL     1       3.580   5.289  17.620  0.00  0.00    +0.000 A 
ATOM      7  C   UNL     1       3.083   4.413  18.624  0.00  0.00    +0.000 A 
ATOM      8  C   UNL     1       2.364   4.879  19.726  0.00  0.00    +0.000 A 
ATOM      9  C   UNL     1       1.944   8.463  19.124  0.00  0.00    +0.000 C 
ATOM     10  O   UNL     1       1.992   9.434  18.402  0.00  0.00    +0.000 OA
ENDROOT
BRANCH   1  15
ATOM     11  C   UNL     1      -0.005  11.602  21.623  0.00  0.00    +0.000 A 
ATOM     12  C   UNL     1      -0.704  11.145  22.751  0.00  0.00    +0.000 A 
ATOM     13  C   UNL     1      -0.825   9.777  23.042  0.00  0.00    +0.000 A 
ATOM     14  C   UNL     1      -0.210   8.808  22.240  0.00  0.00    +0.000 A 
ATOM     15  C   UNL     1       0.548   9.212  21.147  0.00  0.00    +0.000 A 
ATOM     16  C   UNL     1       0.593  10.593  20.845  0.00  0.00    +0.000 A 
BRANCH  11  17
ATOM     17  C   UNL     1       0.144  13.156  21.209  0.00  0.00    +0.000 C 
ATOM     18  C   UNL     1       1.592  13.720  21.253  0.00  0.00    +0.000 C 
ATOM     19  O   UNL     1       1.263  14.684  22.269  0.00  0.00    +0.000 OA
ATOM     20  C   UNL     1      -0.108  14.239  22.305  0.00  0.00    +0.000 C 
BRANCH  17  21
ATOM     21  C   UNL     1      -0.580  13.450  19.875  0.00  0.00    +0.000 C 
BRANCH  21  27
ATOM     22  C   UNL     1      -1.793  11.283  17.896  0.00  0.00    +0.000 C 
ATOM     23  N   UNL     1      -2.487  12.025  18.910  0.00  0.00    +0.000 N 
ATOM     24  C   UNL     1      -3.827  11.949  19.154  0.00  0.00    +0.000 A 
ATOM     25  N   UNL     1      -4.142  12.755  20.141  0.00  0.00    +0.000 NA
ATOM     26  N   UNL     1      -2.992  13.374  20.550  0.00  0.00    +0.000 NA
ATOM     27  C   UNL     1      -1.987  12.943  19.805  0.00  0.00    +0.000 A 
ENDBRANCH  21  27
ENDBRANCH  17  21
ENDBRANCH  11  17
ENDBRANCH   1  15
BRANCH   8  28
ATOM     28  C   UNL     1       1.907   3.922  20.804  0.00  0.00    +0.000 C 
ATOM     29  F   UNL     1       2.374   4.230  22.037  0.00  0.00    +0.000 F 
ATOM     30  F   UNL     1       0.550   3.891  20.911  0.00  0.00    +0.000 F 
ATOM     31  F   UNL     1       2.303   2.642  20.562  0.00  0.00    +0.000 F 
ENDBRANCH   8  28
BRANCH   6  32
ATOM     32  C   UNL     1       4.637   4.685  16.704  0.00  0.00    +0.000 C 
BRANCH  32  33
ATOM     33  N   UNL     1       5.921   4.270  17.270  0.00  0.00    +0.000 NA
ATOM     34  C   UNL     1       6.628   5.351  17.971  0.00  0.00    +0.000 C 
ATOM     35  C   UNL     1       7.251   6.456  17.096  0.00  0.00    +0.000 C 
ATOM     36  O   UNL     1       7.665   6.147  15.770  0.00  0.00    +0.000 OA
ATOM     37  C   UNL     1       7.371   4.865  15.208  0.00  0.00    +0.000 C 
ATOM     38  C   UNL     1       6.845   3.807  16.207  0.00  0.00    +0.000 C 
BRANCH  37  39
ATOM     39  C   UNL     1       6.481   5.019  13.967  0.00  0.00    +0.000 C 
ATOM     40  F   UNL     1       7.191   4.686  12.851  0.00  0.00    +0.000 F 
ENDBRANCH  37  39
ENDBRANCH  32  33
ENDBRANCH   6  32
TORSDOF 8
ENDMDL
MODEL 2
REMARK VINA RESULT:      -9.4      1.878      2.668
REMARK  Name = 
REMARK  9 active torsions:
REMARK  status: ('A' for Active; 'I' for Inactive)
REMARK    1  A    between atoms: C_1  and  N_2
REMARK    2  A    between atoms: C_6  and  C_7
REMARK    3  A    between atoms: C_7  and  C_8
REMARK    4  A    between atoms: C_8  and  C_9
REMARK    5  A    between atoms: C_13  and  N_14
REMARK    6  A    between atoms: C_19  and  C_20
REMARK    7  A    between atoms: C_20  and  N_21
REMARK    8  A    between atoms: C_25  and  C_26
REMARK    9  A    between atoms: C_30  and  C_31
REMARK                            x       y       z     vdW  Elec       q    Type
REMARK                         _______ _______ _______ _____ _____    ______ ____
ROOT
ATOM      1  N   UNL     1       1.215   8.386  20.526  0.00  0.00    +0.000 N 
ATOM      2  C   UNL     1       1.444   7.027  20.971  0.00  0.00    +0.000 C 
ATOM      3  C   UNL     1       2.028   6.354  19.795  0.00  0.00    +0.000 A 
ATOM      4  C   UNL     1       2.305   7.282  18.790  0.00  0.00    +0.000 A 
ATOM      5  C   UNL     1       3.037   6.905  17.661  0.00  0.00    +0.000 A 
ATOM      6  C   UNL     1       3.431   5.550  17.540  0.00  0.00    +0.000 A 
ATOM      7  C   UNL     1       3.019   4.617  18.531  0.00  0.00    +0.000 A 
ATOM      8  C   UNL     1       2.328   5.009  19.678  0.00  0.00    +0.000 A 
ATOM      9  C   UNL     1       1.722   8.588  19.229  0.00  0.00    +0.000 C 
ATOM     10  O   UNL     1       1.694   9.586  18.543  0.00  0.00    +0.000 OA
ENDROOT
BRANCH   1  15
ATOM     11  C   UNL     1      -0.974  11.295  21.434  0.00  0.00    +0.000 A 
ATOM     12  C   UNL     1      -0.985  11.142  22.829  0.00  0.00    +0.000 A 
ATOM     13  C   UNL     1      -0.387  10.038  23.457  0.00  0.00    +0.000 A 
ATOM     14  C   UNL     1       0.288   9.061  22.716  0.00  0.00    +0.000 A 
ATOM     15  C   UNL     1       0.383   9.200  21.336  0.00  0.00    +0.000 A 
ATOM     16  C   UNL     1      -0.288  10.288  20.731  0.00  0.00    +0.000 A 
BRANCH  11  17
ATOM     17  C   UNL     1      -1.671  12.520  20.644  0.00  0.00    +0.000 C 
ATOM     18  C   UNL     1      -2.619  12.108  19.483  0.00  0.00    +0.000 C 
ATOM     19  O   UNL     1      -1.811  12.771  18.493  0.00  0.00    +0.000 OA
ATOM     20  C   UNL     1      -0.870  13.207  19.494  0.00  0.00    +0.000 C 
BRANCH  17  21
ATOM     21  C   UNL     1      -2.318  13.522  21.628  0.00  0.00    +0.000 C 
BRANCH  21  27
ATOM     22  C   UNL     1      -4.848  15.029  20.439  0.00  0.00    +0.000 C 
ATOM     23  N   UNL     1      -4.838  13.966  21.402  0.00  0.00    +0.000 N 
ATOM     24  C   UNL     1      -5.946  13.456  22.014  0.00  0.00    +0.000 A 
ATOM     25  N   UNL     1      -5.593  12.500  22.841  0.00  0.00    +0.000 NA
ATOM     26  N   UNL     1      -4.231  12.381  22.774  0.00  0.00    +0.000 NA
ATOM     27  C   UNL     1      -3.767  13.269  21.912  0.00  0.00    +0.000 A 
ENDBRANCH  21  27
ENDBRANCH  17  21
ENDBRANCH  11  17
ENDBRANCH   1  15
BRANCH   8  28
ATOM     28  C   UNL     1       1.962   3.994  20.737  0.00  0.00    +0.000 C 
ATOM     29  F   UNL     1       2.425   2.749  20.479  0.00  0.00    +0.000 F 
ATOM     30  F   UNL     1       2.457   4.336  21.958  0.00  0.00    +0.000 F 
ATOM     31  F   UNL     1       0.614   3.868  20.891  0.00  0.00    +0.000 F 
ENDBRANCH   8  28
BRANCH   6  32
ATOM     32  C   UNL     1       4.474   5.028  16.558  0.00  0.00    +0.000 C 
BRANCH  32  33
ATOM     33  N   UNL     1       5.429   5.965  15.967  0.00  0.00    +0.000 NA
ATOM     34  C   UNL     1       6.290   5.355  14.944  0.00  0.00    +0.000 C 
ATOM     35  C   UNL     1       7.384   4.389  15.441  0.00  0.00    +0.000 C 
ATOM     36  O   UNL     1       7.927   4.561  16.744  0.00  0.00    +0.000 OA
ATOM     37  C   UNL     1       7.361   5.527  17.635  0.00  0.00    +0.000 C 
ATOM     38  C   UNL     1       6.349   6.507  16.996  0.00  0.00    +0.000 C 
BRANCH  37  39
ATOM     39  C   UNL     1       6.820   4.836  18.895  0.00  0.00    +0.000 C 
ATOM     40  F   UNL     1       6.040   5.708  19.595  0.00  0.00    +0.000 F 
ENDBRANCH  37  39
ENDBRANCH  32  33
ENDBRANCH   6  32
TORSDOF 8
ENDMDL
MODEL 3
REMARK VINA RESULT:      -9.4      1.737      2.473
REMARK  Name = 
REMARK  9 active torsions:
REMARK  status: ('A' for Active; 'I' for Inactive)
REMARK    1  A    between atoms: C_1  and  N_2
REMARK    2  A    between atoms: C_6  and  C_7
REMARK    3  A    between atoms: C_7  and  C_8
REMARK    4  A    between atoms: C_8  and  C_9
REMARK    5  A    between atoms: C_13  and  N_14
REMARK    6  A    between atoms: C_19  and  C_20
REMARK    7  A    between atoms: C_20  and  N_21
REMARK    8  A    between atoms: C_25  and  C_26
REMARK    9  A    between atoms: C_30  and  C_31
REMARK                            x       y       z     vdW  Elec       q    Type
REMARK                         _______ _______ _______ _____ _____    ______ ____
ROOT
ATOM      1  N   UNL     1       1.363   8.161  20.358  0.00  0.00    +0.000 N 
ATOM      2  C   UNL     1       1.489   6.816  20.879  0.00  0.00    +0.000 C 
ATOM      3  C   UNL     1       2.153   6.068  19.795  0.00  0.00    +0.000 A 
ATOM      4  C   UNL     1       2.564   6.938  18.783  0.00  0.00    +0.000 A 
ATOM      5  C   UNL     1       3.383   6.482  17.748  0.00  0.00    +0.000 A 
ATOM      6  C   UNL     1       3.729   5.108  17.722  0.00  0.00    +0.000 A 
ATOM      7  C   UNL     1       3.184   4.238  18.705  0.00  0.00    +0.000 A 
ATOM      8  C   UNL     1       2.404   4.708  19.763  0.00  0.00    +0.000 A 
ATOM      9  C   UNL     1       1.998   8.285  19.110  0.00  0.00    +0.000 C 
ATOM     10  O   UNL     1       2.079   9.250  18.383  0.00  0.00    +0.000 OA
ENDROOT
BRANCH   1  15
ATOM     11  C   UNL     1      -0.905  11.106  20.875  0.00  0.00    +0.000 A 
ATOM     12  C   UNL     1      -0.953  11.110  22.278  0.00  0.00    +0.000 A 
ATOM     13  C   UNL     1      -0.353  10.097  23.042  0.00  0.00    +0.000 A 
ATOM     14  C   UNL     1       0.361   9.057  22.434  0.00  0.00    +0.000 A 
ATOM     15  C   UNL     1       0.492   9.042  21.050  0.00  0.00    +0.000 A 
ATOM     16  C   UNL     1      -0.181  10.041  20.308  0.00  0.00    +0.000 A 
BRANCH  11  17
ATOM     17  C   UNL     1      -1.602  12.219  19.934  0.00  0.00    +0.000 C 
ATOM     18  C   UNL     1      -2.673  13.102  20.633  0.00  0.00    +0.000 C 
ATOM     19  O   UNL     1      -3.725  12.638  19.767  0.00  0.00    +0.000 OA
ATOM     20  C   UNL     1      -2.811  11.784  19.049  0.00  0.00    +0.000 C 
BRANCH  17  21
ATOM     21  C   UNL     1      -0.542  13.044  19.167  0.00  0.00    +0.000 C 
BRANCH  21  27
ATOM     22  C   UNL     1       2.535  12.731  18.452  0.00  0.00    +0.000 C 
ATOM     23  N   UNL     1       1.969  13.264  19.658  0.00  0.00    +0.000 N 
ATOM     24  C   UNL     1       2.688  13.685  20.739  0.00  0.00    +0.000 A 
ATOM     25  N   UNL     1       1.870  14.111  21.674  0.00  0.00    +0.000 NA
ATOM     26  N   UNL     1       0.594  13.965  21.202  0.00  0.00    +0.000 NA
ATOM     27  C   UNL     1       0.645  13.446  19.986  0.00  0.00    +0.000 A 
ENDBRANCH  21  27
ENDBRANCH  17  21
ENDBRANCH  11  17
ENDBRANCH   1  15
BRANCH   8  28
ATOM     28  C   UNL     1       1.896   3.757  20.822  0.00  0.00    +0.000 C 
ATOM     29  F   UNL     1       2.353   4.035  22.066  0.00  0.00    +0.000 F 
ATOM     30  F   UNL     1       0.537   3.774  20.907  0.00  0.00    +0.000 F 
ATOM     31  F   UNL     1       2.248   2.466  20.573  0.00  0.00    +0.000 F 
ENDBRANCH   8  28
BRANCH   6  32
ATOM     32  C   UNL     1       4.836   4.503  16.868  0.00  0.00    +0.000 C 
BRANCH  32  33
ATOM     33  N   UNL     1       6.166   4.320  17.448  0.00  0.00    +0.000 NA
ATOM     34  C   UNL     1       6.694   5.528  18.097  0.00  0.00    +0.000 C 
ATOM     35  C   UNL     1       7.141   6.676  17.170  0.00  0.00    +0.000 C 
ATOM     36  O   UNL     1       7.604   6.374  15.858  0.00  0.00    +0.000 OA
ATOM     37  C   UNL     1       7.515   5.037  15.357  0.00  0.00    +0.000 C 
ATOM     38  C   UNL     1       7.156   3.958  16.405  0.00  0.00    +0.000 C 
BRANCH  37  39
ATOM     39  C   UNL     1       6.617   4.994  14.113  0.00  0.00    +0.000 C 
ATOM     40  F   UNL     1       6.220   3.710  13.880  0.00  0.00    +0.000 F 
ENDBRANCH  37  39
ENDBRANCH  32  33
ENDBRANCH   6  32
TORSDOF 8
ENDMDL
MODEL 4
REMARK VINA RESULT:      -9.4      1.681      2.484
REMARK  Name = 
REMARK  9 active torsions:
REMARK  status: ('A' for Active; 'I' for Inactive)
REMARK    1  A    between atoms: C_1  and  N_2
REMARK    2  A    between atoms: C_6  and  C_7
REMARK    3  A    between atoms: C_7  and  C_8
REMARK    4  A    between atoms: C_8  and  C_9
REMARK    5  A    between atoms: C_13  and  N_14
REMARK    6  A    between atoms: C_19  and  C_20
REMARK    7  A    between atoms: C_20  and  N_21
REMARK    8  A    between atoms: C_25  and  C_26
REMARK    9  A    between atoms: C_30  and  C_31
REMARK                            x       y       z     vdW  Elec       q    Type
REMARK                         _______ _______ _______ _____ _____    ______ ____
ROOT
ATOM      1  N   UNL     1       1.380   8.161  20.351  0.00  0.00    +0.000 N 
ATOM      2  C   UNL     1       1.508   6.826  20.897  0.00  0.00    +0.000 C 
ATOM      3  C   UNL     1       2.173   6.059  19.827  0.00  0.00    +0.000 A 
ATOM      4  C   UNL     1       2.582   6.910  18.799  0.00  0.00    +0.000 A 
ATOM      5  C   UNL     1       3.401   6.436  17.771  0.00  0.00    +0.000 A 
ATOM      6  C   UNL     1       3.749   5.062  17.771  0.00  0.00    +0.000 A 
ATOM      7  C   UNL     1       3.205   4.210  18.771  0.00  0.00    +0.000 A 
ATOM      8  C   UNL     1       2.425   4.699  19.820  0.00  0.00    +0.000 A 
ATOM      9  C   UNL     1       2.015   8.262  19.100  0.00  0.00    +0.000 C 
ATOM     10  O   UNL     1       2.094   9.214  18.356  0.00  0.00    +0.000 OA
ENDROOT
BRANCH   1  15
ATOM     11  C   UNL     1      -0.816  11.164  20.842  0.00  0.00    +0.000 A 
ATOM     12  C   UNL     1      -0.922  11.139  22.241  0.00  0.00    +0.000 A 
ATOM     13  C   UNL     1      -0.386  10.091  23.006  0.00  0.00    +0.000 A 
ATOM     14  C   UNL     1       0.321   9.043  22.404  0.00  0.00    +0.000 A 
ATOM     15  C   UNL     1       0.509   9.054  21.026  0.00  0.00    +0.000 A 
ATOM     16  C   UNL     1      -0.102  10.089  20.281  0.00  0.00    +0.000 A 
BRANCH  11  17
ATOM     17  C   UNL     1      -1.439  12.319  19.900  0.00  0.00    +0.000 C 
ATOM     18  C   UNL     1      -2.907  12.085  19.445  0.00  0.00    +0.000 C 
ATOM     19  O   UNL     1      -2.544  12.037  18.053  0.00  0.00    +0.000 OA
ATOM     20  C   UNL     1      -1.153  12.253  18.367  0.00  0.00    +0.000 C 
BRANCH  17  21
ATOM     21  C   UNL     1      -1.209  13.721  20.510  0.00  0.00    +0.000 C 
BRANCH  21  27
ATOM     22  C   UNL     1       1.953  13.466  20.641  0.00  0.00    +0.000 C 
ATOM     23  N   UNL     1       1.185  14.431  19.907  0.00  0.00    +0.000 N 
ATOM     24  C   UNL     1       1.711  15.451  19.170  0.00  0.00    +0.000 A 
ATOM     25  N   UNL     1       0.741  16.151  18.631  0.00  0.00    +0.000 NA
ATOM     26  N   UNL     1      -0.442  15.585  19.022  0.00  0.00    +0.000 NA
ATOM     27  C   UNL     1      -0.182  14.548  19.800  0.00  0.00    +0.000 A 
ENDBRANCH  21  27
ENDBRANCH  17  21
ENDBRANCH  11  17
ENDBRANCH   1  15
BRANCH   8  28
ATOM     28  C   UNL     1       1.919   3.768  20.898  0.00  0.00    +0.000 C 
ATOM     29  F   UNL     1       2.342   4.095  22.141  0.00  0.00    +0.000 F 
ATOM     30  F   UNL     1       0.558   3.751  20.953  0.00  0.00    +0.000 F 
ATOM     31  F   UNL     1       2.310   2.479  20.696  0.00  0.00    +0.000 F 
ENDBRANCH   8  28
BRANCH   6  32
ATOM     32  C   UNL     1       4.856   4.442  16.928  0.00  0.00    +0.000 C 
BRANCH  32  33
ATOM     33  N   UNL     1       6.193   4.293  17.503  0.00  0.00    +0.000 NA
ATOM     34  C   UNL     1       6.693   5.514  18.150  0.00  0.00    +0.000 C 
ATOM     35  C   UNL     1       7.107   6.672  17.221  0.00  0.00    +0.000 C 
ATOM     36  O   UNL     1       7.572   6.382  15.908  0.00  0.00    +0.000 OA
ATOM     37  C   UNL     1       7.515   5.043  15.407  0.00  0.00    +0.000 C 
ATOM     38  C   UNL     1       7.187   3.955  16.457  0.00  0.00    +0.000 C 
BRANCH  37  39
ATOM     39  C   UNL     1       6.613   4.977  14.166  0.00  0.00    +0.000 C 
ATOM     40  F   UNL     1       6.237   3.685  13.943  0.00  0.00    +0.000 F 
ENDBRANCH  37  39
ENDBRANCH  32  33
ENDBRANCH   6  32
TORSDOF 8
ENDMDL
MODEL 5
REMARK VINA RESULT:      -9.4      1.591      2.156
REMARK  Name = 
REMARK  9 active torsions:
REMARK  status: ('A' for Active; 'I' for Inactive)
REMARK    1  A    between atoms: C_1  and  N_2
REMARK    2  A    between atoms: C_6  and  C_7
REMARK    3  A    between atoms: C_7  and  C_8
REMARK    4  A    between atoms: C_8  and  C_9
REMARK    5  A    between atoms: C_13  and  N_14
REMARK    6  A    between atoms: C_19  and  C_20
REMARK    7  A    between atoms: C_20  and  N_21
REMARK    8  A    between atoms: C_25  and  C_26
REMARK    9  A    between atoms: C_30  and  C_31
REMARK                            x       y       z     vdW  Elec       q    Type
REMARK                         _______ _______ _______ _____ _____    ______ ____
ROOT
ATOM      1  N   UNL     1       1.164   8.501  20.518  0.00  0.00    +0.000 N 
ATOM      2  C   UNL     1       1.391   7.147  20.980  0.00  0.00    +0.000 C 
ATOM      3  C   UNL     1       1.991   6.464  19.818  0.00  0.00    +0.000 A 
ATOM      4  C   UNL     1       2.276   7.382  18.806  0.00  0.00    +0.000 A 
ATOM      5  C   UNL     1       3.022   6.996  17.690  0.00  0.00    +0.000 A 
ATOM      6  C   UNL     1       3.422   5.641  17.587  0.00  0.00    +0.000 A 
ATOM      7  C   UNL     1       3.001   4.717  18.582  0.00  0.00    +0.000 A 
ATOM      8  C   UNL     1       2.296   5.119  19.718  0.00  0.00    +0.000 A 
ATOM      9  C   UNL     1       1.684   8.691  19.225  0.00  0.00    +0.000 C 
ATOM     10  O   UNL     1       1.660   9.681  18.528  0.00  0.00    +0.000 OA
ENDROOT
BRANCH   1  15
ATOM     11  C   UNL     1      -0.936  11.477  21.420  0.00  0.00    +0.000 A 
ATOM     12  C   UNL     1      -1.049  11.263  22.803  0.00  0.00    +0.000 A 
ATOM     13  C   UNL     1      -0.550  10.102  23.415  0.00  0.00    +0.000 A 
ATOM     14  C   UNL     1       0.124   9.124  22.673  0.00  0.00    +0.000 A 
ATOM     15  C   UNL     1       0.319   9.320  21.310  0.00  0.00    +0.000 A 
ATOM     16  C   UNL     1      -0.255  10.468  20.716  0.00  0.00    +0.000 A 
BRANCH  11  17
ATOM     17  C   UNL     1      -1.516  12.771  20.647  0.00  0.00    +0.000 C 
ATOM     18  C   UNL     1      -0.837  14.122  21.009  0.00  0.00    +0.000 C 
ATOM     19  O   UNL     1      -2.059  14.679  21.527  0.00  0.00    +0.000 OA
ATOM     20  C   UNL     1      -2.785  13.470  21.227  0.00  0.00    +0.000 C 
BRANCH  17  21
ATOM     21  C   UNL     1      -1.594  12.522  19.122  0.00  0.00    +0.000 C 
BRANCH  21  27
ATOM     22  C   UNL     1      -1.679   9.944  17.271  0.00  0.00    +0.000 C 
ATOM     23  N   UNL     1      -2.793  10.643  17.847  0.00  0.00    +0.000 N 
ATOM     24  C   UNL     1      -4.104  10.328  17.640  0.00  0.00    +0.000 A 
ATOM     25  N   UNL     1      -4.868  11.162  18.306  0.00  0.00    +0.000 NA
ATOM     26  N   UNL     1      -4.047  12.041  18.958  0.00  0.00    +0.000 NA
ATOM     27  C   UNL     1      -2.790  11.738  18.679  0.00  0.00    +0.000 A 
ENDBRANCH  21  27
ENDBRANCH  17  21
ENDBRANCH  11  17
ENDBRANCH   1  15
BRANCH   8  28
ATOM     28  C   UNL     1       1.922   4.114  20.783  0.00  0.00    +0.000 C 
ATOM     29  F   UNL     1       2.394   2.868  20.544  0.00  0.00    +0.000 F 
ATOM     30  F   UNL     1       2.400   4.471  22.007  0.00  0.00    +0.000 F 
ATOM     31  F   UNL     1       0.573   3.983  20.922  0.00  0.00    +0.000 F 
ENDBRANCH   8  28
BRANCH   6  32
ATOM     32  C   UNL     1       4.477   5.113  16.622  0.00  0.00    +0.000 C 
BRANCH  32  33
ATOM     33  N   UNL     1       5.421   6.050  16.013  0.00  0.00    +0.000 NA
ATOM     34  C   UNL     1       6.216   5.458  14.929  0.00  0.00    +0.000 C 
ATOM     35  C   UNL     1       7.313   4.456  15.338  0.00  0.00    +0.000 C 
ATOM     36  O   UNL     1       7.925   4.576  16.618  0.00  0.00    +0.000 OA
ATOM     37  C   UNL     1       7.424   5.522  17.566  0.00  0.00    +0.000 C 
ATOM     38  C   UNL     1       6.401   6.541  17.010  0.00  0.00    +0.000 C 
BRANCH  37  39
ATOM     39  C   UNL     1       6.933   4.801  18.830  0.00  0.00    +0.000 C 
ATOM     40  F   UNL     1       6.167   5.650  19.572  0.00  0.00    +0.000 F 
ENDBRANCH  37  39
ENDBRANCH  32  33
ENDBRANCH   6  32
TORSDOF 8
ENDMDL
MODEL 6
REMARK VINA RESULT:      -9.3      1.458      2.100
REMARK  Name = 
REMARK  9 active torsions:
REMARK  status: ('A' for Active; 'I' for Inactive)
REMARK    1  A    between atoms: C_1  and  N_2
REMARK    2  A    between atoms: C_6  and  C_7
REMARK    3  A    between atoms: C_7  and  C_8
REMARK    4  A    between atoms: C_8  and  C_9
REMARK    5  A    between atoms: C_13  and  N_14
REMARK    6  A    between atoms: C_19  and  C_20
REMARK    7  A    between atoms: C_20  and  N_21
REMARK    8  A    between atoms: C_25  and  C_26
REMARK    9  A    between atoms: C_30  and  C_31
REMARK                            x       y       z     vdW  Elec       q    Type
REMARK                         _______ _______ _______ _____ _____    ______ ____
ROOT
ATOM      1  N   UNL     1       1.291   8.261  20.503  0.00  0.00    +0.000 N 
ATOM      2  C   UNL     1       1.457   6.898  20.964  0.00  0.00    +0.000 C 
ATOM      3  C   UNL     1       2.070   6.200  19.818  0.00  0.00    +0.000 A 
ATOM      4  C   UNL     1       2.419   7.113  18.821  0.00  0.00    +0.000 A 
ATOM      5  C   UNL     1       3.186   6.706  17.727  0.00  0.00    +0.000 A 
ATOM      6  C   UNL     1       3.542   5.338  17.629  0.00  0.00    +0.000 A 
ATOM      7  C   UNL     1       3.058   4.424  18.605  0.00  0.00    +0.000 A 
ATOM      8  C   UNL     1       2.331   4.845  19.720  0.00  0.00    +0.000 A 
ATOM      9  C   UNL     1       1.859   8.439  19.229  0.00  0.00    +0.000 C 
ATOM     10  O   UNL     1       1.892   9.433  18.537  0.00  0.00    +0.000 OA
ENDROOT
BRANCH   1  15
ATOM     11  C   UNL     1      -0.944  11.178  21.262  0.00  0.00    +0.000 A 
ATOM     12  C   UNL     1      -0.940  11.107  22.664  0.00  0.00    +0.000 A 
ATOM     13  C   UNL     1      -0.316  10.052  23.349  0.00  0.00    +0.000 A 
ATOM     14  C   UNL     1       0.371   9.045  22.660  0.00  0.00    +0.000 A 
ATOM     15  C   UNL     1       0.451   9.105  21.273  0.00  0.00    +0.000 A 
ATOM     16  C   UNL     1      -0.246  10.144  20.612  0.00  0.00    +0.000 A 
BRANCH  11  17
ATOM     17  C   UNL     1      -1.670  12.342  20.409  0.00  0.00    +0.000 C 
ATOM     18  C   UNL     1      -2.675  11.847  19.332  0.00  0.00    +0.000 C 
ATOM     19  O   UNL     1      -1.912  12.420  18.254  0.00  0.00    +0.000 OA
ATOM     20  C   UNL     1      -0.921  12.926  19.171  0.00  0.00    +0.000 C 
BRANCH  17  21
ATOM     21  C   UNL     1      -2.264  13.427  21.339  0.00  0.00    +0.000 C 
BRANCH  21  27
ATOM     22  C   UNL     1      -4.880  14.899  20.303  0.00  0.00    +0.000 C 
ATOM     23  N   UNL     1      -4.793  13.870  21.300  0.00  0.00    +0.000 N 
ATOM     24  C   UNL     1      -5.849  13.386  22.016  0.00  0.00    +0.000 A 
ATOM     25  N   UNL     1      -5.431  12.457  22.845  0.00  0.00    +0.000 NA
ATOM     26  N   UNL     1      -4.079  12.332  22.674  0.00  0.00    +0.000 NA
ATOM     27  C   UNL     1      -3.685  13.188  21.746  0.00  0.00    +0.000 A 
ENDBRANCH  21  27
ENDBRANCH  17  21
ENDBRANCH  11  17
ENDBRANCH   1  15
BRANCH   8  28
ATOM     28  C   UNL     1       1.888   3.849  20.767  0.00  0.00    +0.000 C 
ATOM     29  F   UNL     1       0.543   3.753  20.890  0.00  0.00    +0.000 F 
ATOM     30  F   UNL     1       2.332   2.592  20.489  0.00  0.00    +0.000 F 
ATOM     31  F   UNL     1       2.357   4.156  22.008  0.00  0.00    +0.000 F 
ENDBRANCH   8  28
BRANCH   6  32
ATOM     32  C   UNL     1       4.609   4.778  16.696  0.00  0.00    +0.000 C 
BRANCH  32  33
ATOM     33  N   UNL     1       5.875   4.310  17.257  0.00  0.00    +0.000 NA
ATOM     34  C   UNL     1       6.610   5.349  17.993  0.00  0.00    +0.000 C 
ATOM     35  C   UNL     1       7.271   6.459  17.154  0.00  0.00    +0.000 C 
ATOM     36  O   UNL     1       7.685   6.176  15.823  0.00  0.00    +0.000 OA
ATOM     37  C   UNL     1       7.357   4.919  15.222  0.00  0.00    +0.000 C 
ATOM     38  C   UNL     1       6.793   3.849  16.188  0.00  0.00    +0.000 C 
BRANCH  37  39
ATOM     39  C   UNL     1       6.481   5.135  13.981  0.00  0.00    +0.000 C 
ATOM     40  F   UNL     1       6.804   4.215  13.028  0.00  0.00    +0.000 F 
ENDBRANCH  37  39
ENDBRANCH  32  33
ENDBRANCH   6  32
TORSDOF 8
ENDMDL
MODEL 7
REMARK VINA RESULT:      -9.3      2.108      3.106
REMARK  Name = 
REMARK  9 active torsions:
REMARK  status: ('A' for Active; 'I' for Inactive)
REMARK    1  A    between atoms: C_1  and  N_2
REMARK    2  A    between atoms: C_6  and  C_7
REMARK    3  A    between atoms: C_7  and  C_8
REMARK    4  A    between atoms: C_8  and  C_9
REMARK    5  A    between atoms: C_13  and  N_14
REMARK    6  A    between atoms: C_19  and  C_20
REMARK    7  A    between atoms: C_20  and  N_21
REMARK    8  A    between atoms: C_25  and  C_26
REMARK    9  A    between atoms: C_30  and  C_31
REMARK                            x       y       z     vdW  Elec       q    Type
REMARK                         _______ _______ _______ _____ _____    ______ ____
ROOT
ATOM      1  N   UNL     1       1.152   8.438  20.528  0.00  0.00    +0.000 N 
ATOM      2  C   UNL     1       1.374   7.084  20.994  0.00  0.00    +0.000 C 
ATOM      3  C   UNL     1       1.972   6.396  19.833  0.00  0.00    +0.000 A 
ATOM      4  C   UNL     1       2.261   7.311  18.819  0.00  0.00    +0.000 A 
ATOM      5  C   UNL     1       3.005   6.919  17.704  0.00  0.00    +0.000 A 
ATOM      6  C   UNL     1       3.400   5.562  17.605  0.00  0.00    +0.000 A 
ATOM      7  C   UNL     1       2.975   4.642  18.602  0.00  0.00    +0.000 A 
ATOM      8  C   UNL     1       2.271   5.050  19.737  0.00  0.00    +0.000 A 
ATOM      9  C   UNL     1       1.674   8.624  19.236  0.00  0.00    +0.000 C 
ATOM     10  O   UNL     1       1.655   9.612  18.536  0.00  0.00    +0.000 OA
ENDROOT
BRANCH   1  15
ATOM     11  C   UNL     1      -0.950  11.417  21.416  0.00  0.00    +0.000 A 
ATOM     12  C   UNL     1      -1.053  11.216  22.801  0.00  0.00    +0.000 A 
ATOM     13  C   UNL     1      -0.546  10.063  23.421  0.00  0.00    +0.000 A 
ATOM     14  C   UNL     1       0.126   9.080  22.685  0.00  0.00    +0.000 A 
ATOM     15  C   UNL     1       0.311   9.262  21.319  0.00  0.00    +0.000 A 
ATOM     16  C   UNL     1      -0.271  10.403  20.717  0.00  0.00    +0.000 A 
BRANCH  11  17
ATOM     17  C   UNL     1      -1.540  12.702  20.634  0.00  0.00    +0.000 C 
ATOM     18  C   UNL     1      -2.485  13.611  21.468  0.00  0.00    +0.000 C 
ATOM     19  O   UNL     1      -3.605  13.369  20.597  0.00  0.00    +0.000 OA
ATOM     20  C   UNL     1      -2.814  12.508  19.753  0.00  0.00    +0.000 C 
BRANCH  17  21
ATOM     21  C   UNL     1      -0.413  13.488  19.923  0.00  0.00    +0.000 C 
BRANCH  21  27
ATOM     22  C   UNL     1      -0.386  16.563  20.714  0.00  0.00    +0.000 C 
ATOM     23  N   UNL     1       0.529  15.544  21.140  0.00  0.00    +0.000 N 
ATOM     24  C   UNL     1       1.618  15.755  21.936  0.00  0.00    +0.000 A 
ATOM     25  N   UNL     1       2.245  14.619  22.135  0.00  0.00    +0.000 NA
ATOM     26  N   UNL     1       1.562  13.647  21.456  0.00  0.00    +0.000 NA
ATOM     27  C   UNL     1       0.526  14.200  20.846  0.00  0.00    +0.000 A 
ENDBRANCH  21  27
ENDBRANCH  17  21
ENDBRANCH  11  17
ENDBRANCH   1  15
BRANCH   8  28
ATOM     28  C   UNL     1       1.892   4.049  20.804  0.00  0.00    +0.000 C 
ATOM     29  F   UNL     1       0.556   3.926  20.984  0.00  0.00    +0.000 F 
ATOM     30  F   UNL     1       2.349   2.800  20.512  0.00  0.00    +0.000 F 
ATOM     31  F   UNL     1       2.407   4.370  22.023  0.00  0.00    +0.000 F 
ENDBRANCH   8  28
BRANCH   6  32
ATOM     32  C   UNL     1       4.453   5.028  16.642  0.00  0.00    +0.000 C 
BRANCH  32  33
ATOM     33  N   UNL     1       5.344   5.969  15.963  0.00  0.00    +0.000 NA
ATOM     34  C   UNL     1       6.111   5.362  14.866  0.00  0.00    +0.000 C 
ATOM     35  C   UNL     1       7.252   4.405  15.263  0.00  0.00    +0.000 C 
ATOM     36  O   UNL     1       7.913   4.585  16.510  0.00  0.00    +0.000 OA
ATOM     37  C   UNL     1       7.424   5.549  17.448  0.00  0.00    +0.000 C 
ATOM     38  C   UNL     1       6.350   6.520  16.902  0.00  0.00    +0.000 C 
BRANCH  37  39
ATOM     39  C   UNL     1       7.006   4.858  18.753  0.00  0.00    +0.000 C 
ATOM     40  F   UNL     1       6.175   5.677  19.458  0.00  0.00    +0.000 F 
ENDBRANCH  37  39
ENDBRANCH  32  33
ENDBRANCH   6  32
TORSDOF 8
ENDMDL
MODEL 8
REMARK VINA RESULT:      -9.3      2.287      3.162
REMARK  Name = 
REMARK  9 active torsions:
REMARK  status: ('A' for Active; 'I' for Inactive)
REMARK    1  A    between atoms: C_1  and  N_2
REMARK    2  A    between atoms: C_6  and  C_7
REMARK    3  A    between atoms: C_7  and  C_8
REMARK    4  A    between atoms: C_8  and  C_9
REMARK    5  A    between atoms: C_13  and  N_14
REMARK    6  A    between atoms: C_19  and  C_20
REMARK    7  A    between atoms: C_20  and  N_21
REMARK    8  A    between atoms: C_25  and  C_26
REMARK    9  A    between atoms: C_30  and  C_31
REMARK                            x       y       z     vdW  Elec       q    Type
REMARK                         _______ _______ _______ _____ _____    ______ ____
ROOT
ATOM      1  N   UNL     1       1.228   8.728  20.418  0.00  0.00    +0.000 N 
ATOM      2  C   UNL     1       1.432   7.374  20.890  0.00  0.00    +0.000 C 
ATOM      3  C   UNL     1       2.027   6.674  19.736  0.00  0.00    +0.000 A 
ATOM      4  C   UNL     1       2.332   7.581  18.719  0.00  0.00    +0.000 A 
ATOM      5  C   UNL     1       3.076   7.175  17.609  0.00  0.00    +0.000 A 
ATOM      6  C   UNL     1       3.456   5.813  17.518  0.00  0.00    +0.000 A 
ATOM      7  C   UNL     1       3.015   4.902  18.517  0.00  0.00    +0.000 A 
ATOM      8  C   UNL     1       2.310   5.323  19.646  0.00  0.00    +0.000 A 
ATOM      9  C   UNL     1       1.758   8.902  19.127  0.00  0.00    +0.000 C 
ATOM     10  O   UNL     1       1.754   9.887  18.423  0.00  0.00    +0.000 OA
ENDROOT
BRANCH   1  15
ATOM     11  C   UNL     1      -0.297  11.921  21.666  0.00  0.00    +0.000 A 
ATOM     12  C   UNL     1      -0.882  11.445  22.849  0.00  0.00    +0.000 A 
ATOM     13  C   UNL     1      -0.882  10.079  23.177  0.00  0.00    +0.000 A 
ATOM     14  C   UNL     1      -0.256   9.136  22.353  0.00  0.00    +0.000 A 
ATOM     15  C   UNL     1       0.393   9.566  21.200  0.00  0.00    +0.000 A 
ATOM     16  C   UNL     1       0.316  10.938  20.868  0.00  0.00    +0.000 A 
BRANCH  11  17
ATOM     17  C   UNL     1      -0.291  13.471  21.211  0.00  0.00    +0.000 C 
ATOM     18  C   UNL     1      -1.438  14.341  21.798  0.00  0.00    +0.000 C 
ATOM     19  O   UNL     1      -1.985  14.626  20.498  0.00  0.00    +0.000 OA
ATOM     20  C   UNL     1      -0.961  13.844  19.851  0.00  0.00    +0.000 C 
BRANCH  17  21
ATOM     21  C   UNL     1       1.108  14.104  21.402  0.00  0.00    +0.000 C 
BRANCH  21  27
ATOM     22  C   UNL     1       1.548  16.717  19.654  0.00  0.00    +0.000 C 
ATOM     23  N   UNL     1       2.043  15.396  19.389  0.00  0.00    +0.000 N 
ATOM     24  C   UNL     1       2.758  15.037  18.284  0.00  0.00    +0.000 A 
ATOM     25  N   UNL     1       3.053  13.760  18.346  0.00  0.00    +0.000 NA
ATOM     26  N   UNL     1       2.520  13.270  19.508  0.00  0.00    +0.000 NA
ATOM     27  C   UNL     1       1.901  14.253  20.140  0.00  0.00    +0.000 A 
ENDBRANCH  21  27
ENDBRANCH  17  21
ENDBRANCH  11  17
ENDBRANCH   1  15
BRANCH   8  28
ATOM     28  C   UNL     1       1.914   4.331  20.716  0.00  0.00    +0.000 C 
ATOM     29  F   UNL     1       0.576   4.233  20.897  0.00  0.00    +0.000 F 
ATOM     30  F   UNL     1       2.349   3.074  20.426  0.00  0.00    +0.000 F 
ATOM     31  F   UNL     1       2.435   4.646  21.934  0.00  0.00    +0.000 F 
ENDBRANCH   8  28
BRANCH   6  32
ATOM     32  C   UNL     1       4.507   5.262  16.562  0.00  0.00    +0.000 C 
BRANCH  32  33
ATOM     33  N   UNL     1       5.515   6.167  16.010  0.00  0.00    +0.000 NA
ATOM     34  C   UNL     1       6.324   5.561  14.943  0.00  0.00    +0.000 C 
ATOM     35  C   UNL     1       7.358   4.501  15.372  0.00  0.00    +0.000 C 
ATOM     36  O   UNL     1       7.925   4.566  16.675  0.00  0.00    +0.000 OA
ATOM     37  C   UNL     1       7.431   5.515  17.626  0.00  0.00    +0.000 C 
ATOM     38  C   UNL     1       6.478   6.591  17.054  0.00  0.00    +0.000 C 
BRANCH  37  39
ATOM     39  C   UNL     1       6.859   4.791  18.853  0.00  0.00    +0.000 C 
ATOM     40  F   UNL     1       6.094   5.656  19.578  0.00  0.00    +0.000 F 
ENDBRANCH  37  39
ENDBRANCH  32  33
ENDBRANCH   6  32
TORSDOF 8
ENDMDL
MODEL 9
REMARK VINA RESULT:      -9.3      1.802      2.400
REMARK  Name = 
REMARK  9 active torsions:
REMARK  status: ('A' for Active; 'I' for Inactive)
REMARK    1  A    between atoms: C_1  and  N_2
REMARK    2  A    between atoms: C_6  and  C_7
REMARK    3  A    between atoms: C_7  and  C_8
REMARK    4  A    between atoms: C_8  and  C_9
REMARK    5  A    between atoms: C_13  and  N_14
REMARK    6  A    between atoms: C_19  and  C_20
REMARK    7  A    between atoms: C_20  and  N_21
REMARK    8  A    between atoms: C_25  and  C_26
REMARK    9  A    between atoms: C_30  and  C_31
REMARK                            x       y       z     vdW  Elec       q    Type
REMARK                         _______ _______ _______ _____ _____    ______ ____
ROOT
ATOM      1  N   UNL     1       1.172   8.490  20.373  0.00  0.00    +0.000 N 
ATOM      2  C   UNL     1       1.385   7.154  20.892  0.00  0.00    +0.000 C 
ATOM      3  C   UNL     1       1.998   6.422  19.768  0.00  0.00    +0.000 A 
ATOM      4  C   UNL     1       2.303   7.297  18.724  0.00  0.00    +0.000 A 
ATOM      5  C   UNL     1       3.062   6.862  17.635  0.00  0.00    +0.000 A 
ATOM      6  C   UNL     1       3.457   5.502  17.594  0.00  0.00    +0.000 A 
ATOM      7  C   UNL     1       3.016   4.621  18.619  0.00  0.00    +0.000 A 
ATOM      8  C   UNL     1       2.297   5.072  19.727  0.00  0.00    +0.000 A 
ATOM      9  C   UNL     1       1.712   8.625  19.081  0.00  0.00    +0.000 C 
ATOM     10  O   UNL     1       1.705   9.586  18.344  0.00  0.00    +0.000 OA
ENDROOT
BRANCH   1  15
ATOM     11  C   UNL     1      -1.062  11.424  21.064  0.00  0.00    +0.000 A 
ATOM     12  C   UNL     1      -1.086  11.364  22.466  0.00  0.00    +0.000 A 
ATOM     13  C   UNL     1      -0.482  10.311  23.172  0.00  0.00    +0.000 A 
ATOM     14  C   UNL     1       0.212   9.295  22.504  0.00  0.00    +0.000 A 
ATOM     15  C   UNL     1       0.321   9.344  21.119  0.00  0.00    +0.000 A 
ATOM     16  C   UNL     1      -0.356  10.382  20.436  0.00  0.00    +0.000 A 
BRANCH  11  17
ATOM     17  C   UNL     1      -1.764  12.586  20.188  0.00  0.00    +0.000 C 
ATOM     18  C   UNL     1      -0.862  13.236  19.102  0.00  0.00    +0.000 C 
ATOM     19  O   UNL     1      -0.941  14.537  19.713  0.00  0.00    +0.000 OA
ATOM     20  C   UNL     1      -1.788  14.034  20.767  0.00  0.00    +0.000 C 
BRANCH  17  21
ATOM     21  C   UNL     1      -3.133  12.120  19.638  0.00  0.00    +0.000 C 
BRANCH  21  27
ATOM     22  C   UNL     1      -5.454  12.210  17.473  0.00  0.00    +0.000 C 
ATOM     23  N   UNL     1      -4.140  11.652  17.322  0.00  0.00    +0.000 N 
ATOM     24  C   UNL     1      -3.688  11.009  16.207  0.00  0.00    +0.000 A 
ATOM     25  N   UNL     1      -2.449  10.619  16.395  0.00  0.00    +0.000 NA
ATOM     26  N   UNL     1      -2.082  11.008  17.655  0.00  0.00    +0.000 NA
ATOM     27  C   UNL     1      -3.102  11.628  18.224  0.00  0.00    +0.000 A 
ENDBRANCH  21  27
ENDBRANCH  17  21
ENDBRANCH  11  17
ENDBRANCH   1  15
BRANCH   8  28
ATOM     28  C   UNL     1       1.901   4.113  20.826  0.00  0.00    +0.000 C 
ATOM     29  F   UNL     1       2.366   4.465  22.048  0.00  0.00    +0.000 F 
ATOM     30  F   UNL     1       0.548   4.016  20.951  0.00  0.00    +0.000 F 
ATOM     31  F   UNL     1       2.357   2.849  20.602  0.00  0.00    +0.000 F 
ENDBRANCH   8  28
BRANCH   6  32
ATOM     32  C   UNL     1       4.523   4.930  16.667  0.00  0.00    +0.000 C 
BRANCH  32  33
ATOM     33  N   UNL     1       5.397   5.844  15.933  0.00  0.00    +0.000 NA
ATOM     34  C   UNL     1       6.233   5.175  14.927  0.00  0.00    +0.000 C 
ATOM     35  C   UNL     1       7.399   4.315  15.453  0.00  0.00    +0.000 C 
ATOM     36  O   UNL     1       8.000   4.642  16.700  0.00  0.00    +0.000 OA
ATOM     37  C   UNL     1       7.433   5.665  17.523  0.00  0.00    +0.000 C 
ATOM     38  C   UNL     1       6.340   6.529  16.850  0.00  0.00    +0.000 C 
BRANCH  37  39
ATOM     39  C   UNL     1       6.995   5.080  18.873  0.00  0.00    +0.000 C 
ATOM     40  F   UNL     1       7.633   5.737  19.884  0.00  0.00    +0.000 F 
ENDBRANCH  37  39
ENDBRANCH  32  33
ENDBRANCH   6  32
TORSDOF 8
ENDMDL
