MODEL 1
REMARK VINA RESULT:      -8.9      0.000      0.000
REMARK  Name = 
REMARK  7 active torsions:
REMARK  status: ('A' for Active; 'I' for Inactive)
REMARK    1  A    between atoms: C_1  and  C_2
REMARK    2  A    between atoms: C_2  and  S_3
REMARK    3  A    between atoms: C_2  and  C_10
REMARK    4  A    between atoms: S_3  and  C_4
REMARK    5  A    between atoms: N_8  and  C_9
REMARK    6  A    between atoms: C_14  and  N_15
REMARK    7  A    between atoms: C_22  and  C_23
REMARK                            x       y       z     vdW  Elec       q    Type
REMARK                         _______ _______ _______ _____ _____    ______ ____
ROOT
ATOM      1  C   UNL     1       4.619   5.469  17.192  0.00  0.00    +0.000 A 
ATOM      2  C   UNL     1       4.007   4.206  17.178  0.00  0.00    +0.000 A 
ATOM      3  C   UNL     1       2.767   4.008  17.774  0.00  0.00    +0.000 A 
ATOM      4  C   UNL     1       2.119   5.067  18.404  0.00  0.00    +0.000 A 
ATOM      5  C   UNL     1       2.706   6.332  18.469  0.00  0.00    +0.000 A 
ATOM      6  C   UNL     1       3.948   6.529  17.842  0.00  0.00    +0.000 A 
ENDROOT
BRANCH   5   7
ATOM      7  N   UNL     1       2.106   7.434  19.131  0.00  0.00    +0.000 N 
ATOM      8  C   UNL     1       1.680   8.601  18.536  0.00  0.00    +0.000 C 
ATOM      9  O   UNL     1       1.730   8.807  17.325  0.00  0.00    +0.000 OA
ATOM     10  N   UNL     1       1.150   9.567  19.374  0.00  0.00    +0.000 N 
ATOM     11  C   UNL     1       1.092   9.572  20.841  0.00  0.00    +0.000 C 
ATOM     12  C   UNL     1      -0.174  10.274  21.361  0.00  0.00    +0.000 C 
ATOM     13  O   UNL     1      -0.428  11.528  20.722  0.00  0.00    +0.000 OA
ATOM     14  C   UNL     1      -0.472  11.434  19.278  0.00  0.00    +0.000 C 
ATOM     15  C   UNL     1       0.866  10.878  18.780  0.00  0.00    +0.000 C 
ATOM     16  H   UNL     1       1.845   7.273  20.087  0.00  0.00    +0.000 HD
BRANCH  14  17
ATOM     17  C   UNL     1      -1.698  10.645  18.750  0.00  0.00    +0.000 C 
ATOM     18  C   UNL     1      -1.531  10.109  17.331  0.00  0.00    +0.000 C 
ATOM     19  C   UNL     1      -2.916  10.227  16.748  0.00  0.00    +0.000 C 
ATOM     20  C   UNL     1      -3.446  11.468  17.425  0.00  0.00    +0.000 C 
ATOM     21  O   UNL     1      -2.858  11.509  18.728  0.00  0.00    +0.000 OA
ENDBRANCH  14  17
ENDBRANCH   5   7
BRANCH   1  23
ATOM     22  C   UNL     1       7.060   6.215  17.376  0.00  0.00    +0.000 C 
ATOM     23  C   UNL     1       5.933   5.731  16.454  0.00  0.00    +0.000 C 
BRANCH  23  24
ATOM     24  S   UNL     1       6.417   4.173  15.610  0.00  0.00    +0.000 S 
BRANCH  24  25
ATOM     25  C   UNL     1       7.128   4.726  14.143  0.00  0.00    +0.000 A 
ATOM     26  N   UNL     1       8.104   5.592  13.996  0.00  0.00    +0.000 NA
ATOM     27  N   UNL     1       8.330   5.737  12.642  0.00  0.00    +0.000 NA
ATOM     28  C   UNL     1       7.482   4.960  12.009  0.00  0.00    +0.000 A 
ATOM     29  N   UNL     1       6.707   4.299  12.916  0.00  0.00    +0.000 N 
ATOM     30  C   UNL     1       5.682   3.334  12.616  0.00  0.00    +0.000 C 
ENDBRANCH  24  25
ENDBRANCH  23  24
ENDBRANCH   1  23
TORSDOF 5
ENDMDL
MODEL 2
REMARK VINA RESULT:      -8.2      0.929      1.019
REMARK  Name = 
REMARK  7 active torsions:
REMARK  status: ('A' for Active; 'I' for Inactive)
REMARK    1  A    between atoms: C_1  and  C_2
REMARK    2  A    between atoms: C_2  and  S_3
REMARK    3  A    between atoms: C_2  and  C_10
REMARK    4  A    between atoms: S_3  and  C_4
REMARK    5  A    between atoms: N_8  and  C_9
REMARK    6  A    between atoms: C_14  and  N_15
REMARK    7  A    between atoms: C_22  and  C_23
REMARK                            x       y       z     vdW  Elec       q    Type
REMARK                         _______ _______ _______ _____ _____    ______ ____
ROOT
ATOM      1  C   UNL     1       4.086   5.042  17.588  0.00  0.00    +0.000 A 
ATOM      2  C   UNL     1       4.253   3.867  18.339  0.00  0.00    +0.000 A 
ATOM      3  C   UNL     1       3.724   3.760  19.620  0.00  0.00    +0.000 A 
ATOM      4  C   UNL     1       3.026   4.827  20.179  0.00  0.00    +0.000 A 
ATOM      5  C   UNL     1       2.865   6.025  19.480  0.00  0.00    +0.000 A 
ATOM      6  C   UNL     1       3.381   6.115  18.176  0.00  0.00    +0.000 A 
ENDROOT
BRANCH   5   7
ATOM      7  N   UNL     1       2.197   7.154  20.018  0.00  0.00    +0.000 N 
ATOM      8  C   UNL     1       1.885   8.311  19.338  0.00  0.00    +0.000 C 
ATOM      9  O   UNL     1       2.115   8.481  18.141  0.00  0.00    +0.000 OA
ATOM     10  N   UNL     1       1.258   9.308  20.064  0.00  0.00    +0.000 N 
ATOM     11  C   UNL     1       0.988   9.356  21.506  0.00  0.00    +0.000 C 
ATOM     12  C   UNL     1      -0.327  10.092  21.818  0.00  0.00    +0.000 C 
ATOM     13  O   UNL     1      -0.460  11.331  21.116  0.00  0.00    +0.000 OA
ATOM     14  C   UNL     1      -0.296  11.196  19.684  0.00  0.00    +0.000 C 
ATOM     15  C   UNL     1       1.088  10.606  19.401  0.00  0.00    +0.000 C 
ATOM     16  H   UNL     1       1.797   7.025  20.930  0.00  0.00    +0.000 HD
BRANCH  14  17
ATOM     17  C   UNL     1      -1.447  10.412  19.004  0.00  0.00    +0.000 C 
ATOM     18  C   UNL     1      -1.108   9.890  17.610  0.00  0.00    +0.000 C 
ATOM     19  C   UNL     1      -2.413  10.013  16.864  0.00  0.00    +0.000 C 
ATOM     20  C   UNL     1      -3.023  11.247  17.484  0.00  0.00    +0.000 C 
ATOM     21  O   UNL     1      -2.597  11.275  18.849  0.00  0.00    +0.000 OA
ENDBRANCH  14  17
ENDBRANCH   5   7
BRANCH   1  23
ATOM     22  C   UNL     1       5.041   6.552  15.756  0.00  0.00    +0.000 C 
ATOM     23  C   UNL     1       4.570   5.143  16.141  0.00  0.00    +0.000 C 
BRANCH  23  24
ATOM     24  S   UNL     1       5.931   3.928  15.924  0.00  0.00    +0.000 S 
BRANCH  24  25
ATOM     25  C   UNL     1       6.865   4.611  14.648  0.00  0.00    +0.000 A 
ATOM     26  N   UNL     1       7.850   5.473  14.743  0.00  0.00    +0.000 NA
ATOM     27  N   UNL     1       8.289   5.746  13.463  0.00  0.00    +0.000 NA
ATOM     28  C   UNL     1       7.553   5.045  12.631  0.00  0.00    +0.000 A 
ATOM     29  N   UNL     1       6.645   4.310  13.335  0.00  0.00    +0.000 N 
ATOM     30  C   UNL     1       5.683   3.393  12.784  0.00  0.00    +0.000 C 
ENDBRANCH  24  25
ENDBRANCH  23  24
ENDBRANCH   1  23
TORSDOF 5
ENDMDL
MODEL 3
REMARK VINA RESULT:      -8.1      1.869      2.617
REMARK  Name = 
REMARK  7 active torsions:
REMARK  status: ('A' for Active; 'I' for Inactive)
REMARK    1  A    between atoms: C_1  and  C_2
REMARK    2  A    between atoms: C_2  and  S_3
REMARK    3  A    between atoms: C_2  and  C_10
REMARK    4  A    between atoms: S_3  and  C_4
REMARK    5  A    between atoms: N_8  and  C_9
REMARK    6  A    between atoms: C_14  and  N_15
REMARK    7  A    between atoms: C_22  and  C_23
REMARK                            x       y       z     vdW  Elec       q    Type
REMARK                         _______ _______ _______ _____ _____    ______ ____
ROOT
ATOM      1  C   UNL     1       3.555   3.734  19.592  0.00  0.00    +0.000 A 
ATOM      2  C   UNL     1       2.692   2.685  19.949  0.00  0.00    +0.000 A 
ATOM      3  C   UNL     1       1.473   2.944  20.564  0.00  0.00    +0.000 A 
ATOM      4  C   UNL     1       1.096   4.255  20.843  0.00  0.00    +0.000 A 
ATOM      5  C   UNL     1       1.938   5.325  20.535  0.00  0.00    +0.000 A 
ATOM      6  C   UNL     1       3.157   5.056  19.890  0.00  0.00    +0.000 A 
ENDROOT
BRANCH   5   7
ATOM      7  N   UNL     1       1.618   6.674  20.832  0.00  0.00    +0.000 N 
ATOM      8  C   UNL     1       1.610   7.721  19.936  0.00  0.00    +0.000 C 
ATOM      9  O   UNL     1       1.839   7.591  18.734  0.00  0.00    +0.000 OA
ATOM     10  N   UNL     1       1.300   8.970  20.444  0.00  0.00    +0.000 N 
ATOM     11  C   UNL     1       1.099   9.364  21.844  0.00  0.00    +0.000 C 
ATOM     12  C   UNL     1       0.044  10.475  21.980  0.00  0.00    +0.000 C 
ATOM     13  O   UNL     1       0.229  11.547  21.051  0.00  0.00    +0.000 OA
ATOM     14  C   UNL     1       0.305  11.103  19.676  0.00  0.00    +0.000 C 
ATOM     15  C   UNL     1       1.468  10.115  19.541  0.00  0.00    +0.000 C 
ATOM     16  H   UNL     1       1.227   6.835  21.743  0.00  0.00    +0.000 HD
BRANCH  14  17
ATOM     17  C   UNL     1      -1.037  10.547  19.134  0.00  0.00    +0.000 C 
ATOM     18  C   UNL     1      -0.924   9.853  17.779  0.00  0.00    +0.000 C 
ATOM     19  C   UNL     1      -2.220  10.208  17.096  0.00  0.00    +0.000 C 
ATOM     20  C   UNL     1      -2.498  11.593  17.629  0.00  0.00    +0.000 C 
ATOM     21  O   UNL     1      -1.978  11.632  18.962  0.00  0.00    +0.000 OA
ENDBRANCH  14  17
ENDBRANCH   5   7
BRANCH   1  23
ATOM     22  C   UNL     1       4.621   3.115  17.350  0.00  0.00    +0.000 C 
ATOM     23  C   UNL     1       4.852   3.478  18.823  0.00  0.00    +0.000 C 
BRANCH  23  24
ATOM     24  S   UNL     1       5.886   4.991  18.958  0.00  0.00    +0.000 S 
BRANCH  24  25
ATOM     25  C   UNL     1       6.457   5.219  17.349  0.00  0.00    +0.000 A 
ATOM     26  N   UNL     1       7.533   4.711  16.796  0.00  0.00    +0.000 NA
ATOM     27  N   UNL     1       7.595   5.180  15.499  0.00  0.00    +0.000 NA
ATOM     28  C   UNL     1       6.557   5.962  15.307  0.00  0.00    +0.000 A 
ATOM     29  N   UNL     1       5.809   6.012  16.446  0.00  0.00    +0.000 N 
ATOM     30  C   UNL     1       4.579   6.738  16.624  0.00  0.00    +0.000 C 
ENDBRANCH  24  25
ENDBRANCH  23  24
ENDBRANCH   1  23
TORSDOF 5
ENDMDL
MODEL 4
REMARK VINA RESULT:      -8.1      4.133      9.456
REMARK  Name = 
REMARK  7 active torsions:
REMARK  status: ('A' for Active; 'I' for Inactive)
REMARK    1  A    between atoms: C_1  and  C_2
REMARK    2  A    between atoms: C_2  and  S_3
REMARK    3  A    between atoms: C_2  and  C_10
REMARK    4  A    between atoms: S_3  and  C_4
REMARK    5  A    between atoms: N_8  and  C_9
REMARK    6  A    between atoms: C_14  and  N_15
REMARK    7  A    between atoms: C_22  and  C_23
REMARK                            x       y       z     vdW  Elec       q    Type
REMARK                         _______ _______ _______ _____ _____    ______ ____
ROOT
ATOM      1  C   UNL     1      -0.278  10.564  20.657  0.00  0.00    +0.000 A 
ATOM      2  C   UNL     1      -0.249  10.904  22.019  0.00  0.00    +0.000 A 
ATOM      3  C   UNL     1       0.360  10.069  22.949  0.00  0.00    +0.000 A 
ATOM      4  C   UNL     1       0.943   8.873  22.537  0.00  0.00    +0.000 A 
ATOM      5  C   UNL     1       0.908   8.481  21.197  0.00  0.00    +0.000 A 
ATOM      6  C   UNL     1       0.313   9.344  20.261  0.00  0.00    +0.000 A 
ENDROOT
BRANCH   5   7
ATOM      7  N   UNL     1       1.452   7.257  20.732  0.00  0.00    +0.000 N 
ATOM      8  C   UNL     1       2.105   7.065  19.534  0.00  0.00    +0.000 C 
ATOM      9  O   UNL     1       2.338   7.968  18.732  0.00  0.00    +0.000 OA
ATOM     10  N   UNL     1       2.531   5.777  19.259  0.00  0.00    +0.000 N 
ATOM     11  C   UNL     1       2.271   4.548  20.017  0.00  0.00    +0.000 C 
ATOM     12  C   UNL     1       3.455   3.569  19.944  0.00  0.00    +0.000 C 
ATOM     13  O   UNL     1       3.959   3.390  18.616  0.00  0.00    +0.000 OA
ATOM     14  C   UNL     1       4.305   4.635  17.965  0.00  0.00    +0.000 C 
ATOM     15  C   UNL     1       3.060   5.526  17.914  0.00  0.00    +0.000 C 
ATOM     16  H   UNL     1       1.484   6.515  21.407  0.00  0.00    +0.000 HD
BRANCH  14  17
ATOM     17  C   UNL     1       5.535   5.338  18.594  0.00  0.00    +0.000 C 
ATOM     18  C   UNL     1       6.107   6.472  17.747  0.00  0.00    +0.000 C 
ATOM     19  C   UNL     1       7.592   6.375  17.990  0.00  0.00    +0.000 C 
ATOM     20  C   UNL     1       7.794   4.889  18.162  0.00  0.00    +0.000 C 
ATOM     21  O   UNL     1       6.604   4.379  18.770  0.00  0.00    +0.000 OA
ENDBRANCH  14  17
ENDBRANCH   5   7
BRANCH   1  23
ATOM     22  C   UNL     1       0.143  12.599  19.164  0.00  0.00    +0.000 C 
ATOM     23  C   UNL     1      -0.850  11.516  19.606  0.00  0.00    +0.000 C 
BRANCH  23  24
ATOM     24  S   UNL     1      -1.380  10.504  18.168  0.00  0.00    +0.000 S 
BRANCH  24  25
ATOM     25  C   UNL     1      -2.962  11.095  17.834  0.00  0.00    +0.000 A 
ATOM     26  N   UNL     1      -3.829  11.601  18.680  0.00  0.00    +0.000 NA
ATOM     27  N   UNL     1      -4.966  11.925  17.967  0.00  0.00    +0.000 NA
ATOM     28  C   UNL     1      -4.755  11.601  16.711  0.00  0.00    +0.000 A 
ATOM     29  N   UNL     1      -3.503  11.078  16.580  0.00  0.00    +0.000 N 
ATOM     30  C   UNL     1      -2.891  10.634  15.356  0.00  0.00    +0.000 C 
ENDBRANCH  24  25
ENDBRANCH  23  24
ENDBRANCH   1  23
TORSDOF 5
ENDMDL
MODEL 5
REMARK VINA RESULT:      -8.0      2.692      3.437
REMARK  Name = 
REMARK  7 active torsions:
REMARK  status: ('A' for Active; 'I' for Inactive)
REMARK    1  A    between atoms: C_1  and  C_2
REMARK    2  A    between atoms: C_2  and  S_3
REMARK    3  A    between atoms: C_2  and  C_10
REMARK    4  A    between atoms: S_3  and  C_4
REMARK    5  A    between atoms: N_8  and  C_9
REMARK    6  A    between atoms: C_14  and  N_15
REMARK    7  A    between atoms: C_22  and  C_23
REMARK                            x       y       z     vdW  Elec       q    Type
REMARK                         _______ _______ _______ _____ _____    ______ ____
ROOT
ATOM      1  C   UNL     1       3.406   4.008  19.189  0.00  0.00    +0.000 A 
ATOM      2  C   UNL     1       3.200   2.932  20.068  0.00  0.00    +0.000 A 
ATOM      3  C   UNL     1       2.467   3.098  21.237  0.00  0.00    +0.000 A 
ATOM      4  C   UNL     1       1.933   4.344  21.556  0.00  0.00    +0.000 A 
ATOM      5  C   UNL     1       2.142   5.448  20.727  0.00  0.00    +0.000 A 
ATOM      6  C   UNL     1       2.862   5.265  19.534  0.00  0.00    +0.000 A 
ENDROOT
BRANCH   5   7
ATOM      7  N   UNL     1       1.653   6.745  21.025  0.00  0.00    +0.000 N 
ATOM      8  C   UNL     1       1.647   7.825  20.169  0.00  0.00    +0.000 C 
ATOM      9  O   UNL     1       2.032   7.771  19.002  0.00  0.00    +0.000 OA
ATOM     10  N   UNL     1       1.153   9.014  20.674  0.00  0.00    +0.000 N 
ATOM     11  C   UNL     1       0.745   9.324  22.049  0.00  0.00    +0.000 C 
ATOM     12  C   UNL     1      -0.426  10.321  22.088  0.00  0.00    +0.000 C 
ATOM     13  O   UNL     1      -0.240  11.446  21.224  0.00  0.00    +0.000 OA
ATOM     14  C   UNL     1       0.047  11.072  19.855  0.00  0.00    +0.000 C 
ATOM     15  C   UNL     1       1.312  10.209  19.836  0.00  0.00    +0.000 C 
ATOM     16  H   UNL     1       1.140   6.827  21.884  0.00  0.00    +0.000 HD
BRANCH  14  17
ATOM     17  C   UNL     1      -1.156  10.414  19.132  0.00  0.00    +0.000 C 
ATOM     18  C   UNL     1      -0.835   9.894  17.733  0.00  0.00    +0.000 C 
ATOM     19  C   UNL     1      -2.105  10.154  16.964  0.00  0.00    +0.000 C 
ATOM     20  C   UNL     1      -2.614  11.425  17.602  0.00  0.00    +0.000 C 
ATOM     21  O   UNL     1      -2.218  11.382  18.976  0.00  0.00    +0.000 OA
ENDBRANCH  14  17
ENDBRANCH   5   7
BRANCH   1  23
ATOM     22  C   UNL     1       3.200   3.292  16.741  0.00  0.00    +0.000 C 
ATOM     23  C   UNL     1       4.120   3.823  17.849  0.00  0.00    +0.000 C 
BRANCH  23  24
ATOM     24  S   UNL     1       4.833   5.447  17.370  0.00  0.00    +0.000 S 
BRANCH  24  25
ATOM     25  C   UNL     1       6.271   5.537  18.313  0.00  0.00    +0.000 A 
ATOM     26  N   UNL     1       6.671   4.713  19.253  0.00  0.00    +0.000 NA
ATOM     27  N   UNL     1       7.871   5.191  19.741  0.00  0.00    +0.000 NA
ATOM     28  C   UNL     1       8.159   6.292  19.085  0.00  0.00    +0.000 A 
ATOM     29  N   UNL     1       7.180   6.546  18.171  0.00  0.00    +0.000 N 
ATOM     30  C   UNL     1       7.149   7.644  17.240  0.00  0.00    +0.000 C 
ENDBRANCH  24  25
ENDBRANCH  23  24
ENDBRANCH   1  23
TORSDOF 5
ENDMDL
MODEL 6
REMARK VINA RESULT:      -8.0      1.865      2.734
REMARK  Name = 
REMARK  7 active torsions:
REMARK  status: ('A' for Active; 'I' for Inactive)
REMARK    1  A    between atoms: C_1  and  C_2
REMARK    2  A    between atoms: C_2  and  S_3
REMARK    3  A    between atoms: C_2  and  C_10
REMARK    4  A    between atoms: S_3  and  C_4
REMARK    5  A    between atoms: N_8  and  C_9
REMARK    6  A    between atoms: C_14  and  N_15
REMARK    7  A    between atoms: C_22  and  C_23
REMARK                            x       y       z     vdW  Elec       q    Type
REMARK                         _______ _______ _______ _____ _____    ______ ____
ROOT
ATOM      1  C   UNL     1       4.133   4.681  17.135  0.00  0.00    +0.000 A 
ATOM      2  C   UNL     1       3.593   3.420  17.436  0.00  0.00    +0.000 A 
ATOM      3  C   UNL     1       2.550   3.291  18.345  0.00  0.00    +0.000 A 
ATOM      4  C   UNL     1       2.032   4.417  18.979  0.00  0.00    +0.000 A 
ATOM      5  C   UNL     1       2.561   5.686  18.734  0.00  0.00    +0.000 A 
ATOM      6  C   UNL     1       3.599   5.810  17.794  0.00  0.00    +0.000 A 
ENDROOT
BRANCH   5   7
ATOM      7  N   UNL     1       2.097   6.859  19.380  0.00  0.00    +0.000 N 
ATOM      8  C   UNL     1       1.801   8.058  18.769  0.00  0.00    +0.000 C 
ATOM      9  O   UNL     1       1.863   8.237  17.553  0.00  0.00    +0.000 OA
ATOM     10  N   UNL     1       1.392   9.091  19.594  0.00  0.00    +0.000 N 
ATOM     11  C   UNL     1       1.348   9.127  21.060  0.00  0.00    +0.000 C 
ATOM     12  C   UNL     1       0.175   9.977  21.577  0.00  0.00    +0.000 C 
ATOM     13  O   UNL     1       0.060  11.242  20.918  0.00  0.00    +0.000 OA
ATOM     14  C   UNL     1      -0.008  11.129  19.476  0.00  0.00    +0.000 C 
ATOM     15  C   UNL     1       1.253  10.417  18.979  0.00  0.00    +0.000 C 
ATOM     16  H   UNL     1       1.828   6.745  20.341  0.00  0.00    +0.000 HD
BRANCH  14  17
ATOM     17  C   UNL     1      -1.320  10.477  18.971  0.00  0.00    +0.000 C 
ATOM     18  C   UNL     1      -1.267  10.012  17.518  0.00  0.00    +0.000 C 
ATOM     19  C   UNL     1      -2.663  10.278  17.015  0.00  0.00    +0.000 C 
ATOM     20  C   UNL     1      -3.052  11.518  17.784  0.00  0.00    +0.000 C 
ATOM     21  O   UNL     1      -2.402  11.433  19.056  0.00  0.00    +0.000 OA
ENDBRANCH  14  17
ENDBRANCH   5   7
BRANCH   1  23
ATOM     22  C   UNL     1       5.206   6.250  15.423  0.00  0.00    +0.000 C 
ATOM     23  C   UNL     1       5.210   4.856  16.063  0.00  0.00    +0.000 C 
BRANCH  23  24
ATOM     24  S   UNL     1       6.836   4.512  16.847  0.00  0.00    +0.000 S 
BRANCH  24  25
ATOM     25  C   UNL     1       7.385   6.077  17.310  0.00  0.00    +0.000 A 
ATOM     26  N   UNL     1       7.527   7.139  16.552  0.00  0.00    +0.000 NA
ATOM     27  N   UNL     1       8.008   8.158  17.350  0.00  0.00    +0.000 NA
ATOM     28  C   UNL     1       8.148   7.681  18.566  0.00  0.00    +0.000 A 
ATOM     29  N   UNL     1       7.763   6.373  18.589  0.00  0.00    +0.000 N 
ATOM     30  C   UNL     1       7.742   5.513  19.742  0.00  0.00    +0.000 C 
ENDBRANCH  24  25
ENDBRANCH  23  24
ENDBRANCH   1  23
TORSDOF 5
ENDMDL
MODEL 7
REMARK VINA RESULT:      -7.9      2.276      3.210
REMARK  Name = 
REMARK  7 active torsions:
REMARK  status: ('A' for Active; 'I' for Inactive)
REMARK    1  A    between atoms: C_1  and  C_2
REMARK    2  A    between atoms: C_2  and  S_3
REMARK    3  A    between atoms: C_2  and  C_10
REMARK    4  A    between atoms: S_3  and  C_4
REMARK    5  A    between atoms: N_8  and  C_9
REMARK    6  A    between atoms: C_14  and  N_15
REMARK    7  A    between atoms: C_22  and  C_23
REMARK                            x       y       z     vdW  Elec       q    Type
REMARK                         _______ _______ _______ _____ _____    ______ ____
ROOT
ATOM      1  C   UNL     1       3.065   3.498  19.235  0.00  0.00    +0.000 A 
ATOM      2  C   UNL     1       2.969   2.496  20.214  0.00  0.00    +0.000 A 
ATOM      3  C   UNL     1       2.433   2.772  21.466  0.00  0.00    +0.000 A 
ATOM      4  C   UNL     1       1.990   4.057  21.768  0.00  0.00    +0.000 A 
ATOM      5  C   UNL     1       2.097   5.091  20.836  0.00  0.00    +0.000 A 
ATOM      6  C   UNL     1       2.617   4.796  19.563  0.00  0.00    +0.000 A 
ENDROOT
BRANCH   5   7
ATOM      7  N   UNL     1       1.697   6.424  21.106  0.00  0.00    +0.000 N 
ATOM      8  C   UNL     1       1.737   7.477  20.218  0.00  0.00    +0.000 C 
ATOM      9  O   UNL     1       2.091   7.367  19.045  0.00  0.00    +0.000 OA
ATOM     10  N   UNL     1       1.330   8.709  20.699  0.00  0.00    +0.000 N 
ATOM     11  C   UNL     1       0.974   9.082  22.073  0.00  0.00    +0.000 C 
ATOM     12  C   UNL     1      -0.132  10.151  22.109  0.00  0.00    +0.000 C 
ATOM     13  O   UNL     1       0.103  11.238  21.208  0.00  0.00    +0.000 OA
ATOM     14  C   UNL     1       0.334  10.808  19.845  0.00  0.00    +0.000 C 
ATOM     15  C   UNL     1       1.542   9.868  19.823  0.00  0.00    +0.000 C 
ATOM     16  H   UNL     1       1.210   6.561  21.973  0.00  0.00    +0.000 HD
BRANCH  14  17
ATOM     17  C   UNL     1      -0.924  10.206  19.168  0.00  0.00    +0.000 C 
ATOM     18  C   UNL     1      -0.708   9.775  17.720  0.00  0.00    +0.000 C 
ATOM     19  C   UNL     1      -2.025  10.094  17.060  0.00  0.00    +0.000 C 
ATOM     20  C   UNL     1      -2.473  11.325  17.811  0.00  0.00    +0.000 C 
ATOM     21  O   UNL     1      -1.983  11.191  19.148  0.00  0.00    +0.000 OA
ENDBRANCH  14  17
ENDBRANCH   5   7
BRANCH   1  23
ATOM     22  C   UNL     1       2.493   2.514  16.943  0.00  0.00    +0.000 C 
ATOM     23  C   UNL     1       3.556   3.191  17.819  0.00  0.00    +0.000 C 
BRANCH  23  24
ATOM     24  S   UNL     1       4.098   4.775  17.063  0.00  0.00    +0.000 S 
BRANCH  24  25
ATOM     25  C   UNL     1       5.814   4.631  17.040  0.00  0.00    +0.000 A 
ATOM     26  N   UNL     1       6.577   4.247  16.044  0.00  0.00    +0.000 NA
ATOM     27  N   UNL     1       7.884   4.271  16.488  0.00  0.00    +0.000 NA
ATOM     28  C   UNL     1       7.872   4.663  17.742  0.00  0.00    +0.000 A 
ATOM     29  N   UNL     1       6.588   4.906  18.131  0.00  0.00    +0.000 N 
ATOM     30  C   UNL     1       6.166   5.381  19.422  0.00  0.00    +0.000 C 
ENDBRANCH  24  25
ENDBRANCH  23  24
ENDBRANCH   1  23
TORSDOF 5
ENDMDL
MODEL 8
REMARK VINA RESULT:      -7.8      1.871      2.645
REMARK  Name = 
REMARK  7 active torsions:
REMARK  status: ('A' for Active; 'I' for Inactive)
REMARK    1  A    between atoms: C_1  and  C_2
REMARK    2  A    between atoms: C_2  and  S_3
REMARK    3  A    between atoms: C_2  and  C_10
REMARK    4  A    between atoms: S_3  and  C_4
REMARK    5  A    between atoms: N_8  and  C_9
REMARK    6  A    between atoms: C_14  and  N_15
REMARK    7  A    between atoms: C_22  and  C_23
REMARK                            x       y       z     vdW  Elec       q    Type
REMARK                         _______ _______ _______ _____ _____    ______ ____
ROOT
ATOM      1  C   UNL     1       3.319   4.028  19.248  0.00  0.00    +0.000 A 
ATOM      2  C   UNL     1       2.716   2.858  19.736  0.00  0.00    +0.000 A 
ATOM      3  C   UNL     1       1.689   2.922  20.671  0.00  0.00    +0.000 A 
ATOM      4  C   UNL     1       1.251   4.157  21.143  0.00  0.00    +0.000 A 
ATOM      5  C   UNL     1       1.845   5.344  20.709  0.00  0.00    +0.000 A 
ATOM      6  C   UNL     1       2.864   5.270  19.744  0.00  0.00    +0.000 A 
ENDROOT
BRANCH   5   7
ATOM      7  N   UNL     1       1.462   6.623  21.186  0.00  0.00    +0.000 N 
ATOM      8  C   UNL     1       1.555   7.808  20.489  0.00  0.00    +0.000 C 
ATOM      9  O   UNL     1       1.946   7.886  19.325  0.00  0.00    +0.000 OA
ATOM     10  N   UNL     1       1.155   8.953  21.156  0.00  0.00    +0.000 N 
ATOM     11  C   UNL     1       0.760   9.100  22.562  0.00  0.00    +0.000 C 
ATOM     12  C   UNL     1      -0.325  10.176  22.741  0.00  0.00    +0.000 C 
ATOM     13  O   UNL     1      -0.037  11.391  22.043  0.00  0.00    +0.000 OA
ATOM     14  C   UNL     1       0.232  11.190  20.635  0.00  0.00    +0.000 C 
ATOM     15  C   UNL     1       1.421  10.235  20.493  0.00  0.00    +0.000 C 
ATOM     16  H   UNL     1       0.949   6.626  22.048  0.00  0.00    +0.000 HD
BRANCH  14  17
ATOM     17  C   UNL     1      -1.014  10.741  19.829  0.00  0.00    +0.000 C 
ATOM     18  C   UNL     1      -0.696  10.207  18.435  0.00  0.00    +0.000 C 
ATOM     19  C   UNL     1      -1.864  10.677  17.605  0.00  0.00    +0.000 C 
ATOM     20  C   UNL     1      -2.206  11.998  18.251  0.00  0.00    +0.000 C 
ATOM     21  O   UNL     1      -1.903  11.866  19.643  0.00  0.00    +0.000 OA
ENDBRANCH  14  17
ENDBRANCH   5   7
BRANCH   1  23
ATOM     22  C   UNL     1       3.946   3.160  16.924  0.00  0.00    +0.000 C 
ATOM     23  C   UNL     1       4.377   3.984  18.145  0.00  0.00    +0.000 C 
BRANCH  23  24
ATOM     24  S   UNL     1       4.743   5.716  17.655  0.00  0.00    +0.000 S 
BRANCH  24  25
ATOM     25  C   UNL     1       5.794   5.528  16.304  0.00  0.00    +0.000 A 
ATOM     26  N   UNL     1       5.557   5.834  15.050  0.00  0.00    +0.000 NA
ATOM     27  N   UNL     1       6.680   5.496  14.321  0.00  0.00    +0.000 NA
ATOM     28  C   UNL     1       7.560   4.990  15.154  0.00  0.00    +0.000 A 
ATOM     29  N   UNL     1       7.046   4.995  16.417  0.00  0.00    +0.000 N 
ATOM     30  C   UNL     1       7.717   4.549  17.609  0.00  0.00    +0.000 C 
ENDBRANCH  24  25
ENDBRANCH  23  24
ENDBRANCH   1  23
TORSDOF 5
ENDMDL
MODEL 9
REMARK VINA RESULT:      -7.8      2.897      4.357
REMARK  Name = 
REMARK  7 active torsions:
REMARK  status: ('A' for Active; 'I' for Inactive)
REMARK    1  A    between atoms: C_1  and  C_2
REMARK    2  A    between atoms: C_2  and  S_3
REMARK    3  A    between atoms: C_2  and  C_10
REMARK    4  A    between atoms: S_3  and  C_4
REMARK    5  A    between atoms: N_8  and  C_9
REMARK    6  A    between atoms: C_14  and  N_15
REMARK    7  A    between atoms: C_22  and  C_23
REMARK                            x       y       z     vdW  Elec       q    Type
REMARK                         _______ _______ _______ _____ _____    ______ ____
ROOT
ATOM      1  C   UNL     1       2.424   7.073  19.366  0.00  0.00    +0.000 A 
ATOM      2  C   UNL     1       2.690   7.475  18.048  0.00  0.00    +0.000 A 
ATOM      3  C   UNL     1       2.242   8.702  17.573  0.00  0.00    +0.000 A 
ATOM      4  C   UNL     1       1.511   9.548  18.404  0.00  0.00    +0.000 A 
ATOM      5  C   UNL     1       1.196   9.173  19.711  0.00  0.00    +0.000 A 
ATOM      6  C   UNL     1       1.675   7.942  20.191  0.00  0.00    +0.000 A 
ENDROOT
BRANCH   5   7
ATOM      7  N   UNL     1       0.423   9.979  20.585  0.00  0.00    +0.000 N 
ATOM      8  C   UNL     1      -0.318  11.084  20.225  0.00  0.00    +0.000 C 
ATOM      9  O   UNL     1      -0.433  11.479  19.065  0.00  0.00    +0.000 OA
ATOM     10  N   UNL     1      -0.974  11.750  21.245  0.00  0.00    +0.000 N 
ATOM     11  C   UNL     1      -0.891  11.516  22.691  0.00  0.00    +0.000 C 
ATOM     12  C   UNL     1      -2.230  11.798  23.395  0.00  0.00    +0.000 C 
ATOM     13  O   UNL     1      -2.828  13.035  22.996  0.00  0.00    +0.000 OA
ATOM     14  C   UNL     1      -2.988  13.155  21.562  0.00  0.00    +0.000 C 
ATOM     15  C   UNL     1      -1.612  13.027  20.902  0.00  0.00    +0.000 C 
ATOM     16  H   UNL     1       0.299   9.614  21.512  0.00  0.00    +0.000 HD
BRANCH  14  17
ATOM     17  C   UNL     1      -4.042  12.181  20.977  0.00  0.00    +0.000 C 
ATOM     18  C   UNL     1      -4.426  12.474  19.529  0.00  0.00    +0.000 C 
ATOM     19  C   UNL     1      -5.893  12.127  19.480  0.00  0.00    +0.000 C 
ATOM     20  C   UNL     1      -6.360  12.504  20.865  0.00  0.00    +0.000 C 
ATOM     21  O   UNL     1      -5.261  12.263  21.749  0.00  0.00    +0.000 OA
ENDBRANCH  14  17
ENDBRANCH   5   7
BRANCH   1  23
ATOM     22  C   UNL     1       1.993   5.003  20.808  0.00  0.00    +0.000 C 
ATOM     23  C   UNL     1       2.995   5.775  19.939  0.00  0.00    +0.000 C 
BRANCH  23  24
ATOM     24  S   UNL     1       3.549   4.741  18.525  0.00  0.00    +0.000 S 
BRANCH  24  25
ATOM     25  C   UNL     1       5.266   4.849  18.609  0.00  0.00    +0.000 A 
ATOM     26  N   UNL     1       6.004   5.158  19.650  0.00  0.00    +0.000 NA
ATOM     27  N   UNL     1       7.323   5.134  19.245  0.00  0.00    +0.000 NA
ATOM     28  C   UNL     1       7.345   4.818  17.970  0.00  0.00    +0.000 A 
ATOM     29  N   UNL     1       6.069   4.625  17.528  0.00  0.00    +0.000 N 
ATOM     30  C   UNL     1       5.680   4.237  16.198  0.00  0.00    +0.000 C 
ENDBRANCH  24  25
ENDBRANCH  23  24
ENDBRANCH   1  23
TORSDOF 5
ENDMDL
