MODEL 1
REMARK VINA RESULT:      -9.2      0.000      0.000
REMARK  Name = 
REMARK  9 active torsions:
REMARK  status: ('A' for Active; 'I' for Inactive)
REMARK    1  A    between atoms: C_1  and  N_2
REMARK    2  A    between atoms: C_6  and  C_7
REMARK    3  A    between atoms: C_7  and  C_8
REMARK    4  A    between atoms: C_8  and  C_9
REMARK    5  A    between atoms: C_13  and  N_14
REMARK    6  A    between atoms: C_19  and  C_20
REMARK    7  A    between atoms: C_20  and  N_21
REMARK    8  A    between atoms: C_24  and  C_25
REMARK    9  A    between atoms: C_30  and  C_31
REMARK                            x       y       z     vdW  Elec       q    Type
REMARK                         _______ _______ _______ _____ _____    ______ ____
ROOT
ATOM      1  N   UNL     1       2.349   7.398  19.288  0.00  0.00    +0.000 N 
ATOM      2  C   UNL     1       1.599   7.769  20.460  0.00  0.00    +0.000 C 
ATOM      3  C   UNL     1       1.019   9.083  20.139  0.00  0.00    +0.000 A 
ATOM      4  C   UNL     1       1.298   9.425  18.821  0.00  0.00    +0.000 A 
ATOM      5  C   UNL     1       0.786  10.607  18.297  0.00  0.00    +0.000 A 
ATOM      6  C   UNL     1      -0.006  11.434  19.141  0.00  0.00    +0.000 A 
ATOM      7  C   UNL     1      -0.244  11.045  20.482  0.00  0.00    +0.000 A 
ATOM      8  C   UNL     1       0.286   9.873  21.010  0.00  0.00    +0.000 A 
ATOM      9  C   UNL     1       2.195   8.348  18.266  0.00  0.00    +0.000 C 
ATOM     10  O   UNL     1       2.680   8.375  17.149  0.00  0.00    +0.000 OA
ENDROOT
BRANCH   1  15
ATOM     11  C   UNL     1       5.431   5.296  18.868  0.00  0.00    +0.000 A 
ATOM     12  C   UNL     1       4.955   4.068  19.341  0.00  0.00    +0.000 A 
ATOM     13  C   UNL     1       3.641   3.925  19.829  0.00  0.00    +0.000 A 
ATOM     14  C   UNL     1       2.744   5.005  19.848  0.00  0.00    +0.000 A 
ATOM     15  C   UNL     1       3.170   6.242  19.392  0.00  0.00    +0.000 A 
ATOM     16  C   UNL     1       4.508   6.345  18.945  0.00  0.00    +0.000 A 
BRANCH  11  17
ATOM     17  C   UNL     1       6.914   5.571  18.271  0.00  0.00    +0.000 C 
ATOM     18  C   UNL     1       7.974   5.983  19.329  0.00  0.00    +0.000 C 
ATOM     19  O   UNL     1       8.186   7.272  18.723  0.00  0.00    +0.000 OA
ATOM     20  C   UNL     1       7.228   6.985  17.684  0.00  0.00    +0.000 C 
BRANCH  17  21
ATOM     21  C   UNL     1       7.371   4.429  17.322  0.00  0.00    +0.000 C 
BRANCH  21  27
ATOM     22  C   UNL     1       4.654   3.537  15.922  0.00  0.00    +0.000 C 
ATOM     23  N   UNL     1       5.774   4.207  15.317  0.00  0.00    +0.000 N 
ATOM     24  C   UNL     1       5.846   4.550  14.000  0.00  0.00    +0.000 A 
ATOM     25  N   UNL     1       7.004   5.107  13.755  0.00  0.00    +0.000 NA
ATOM     26  N   UNL     1       7.714   5.120  14.928  0.00  0.00    +0.000 NA
ATOM     27  C   UNL     1       6.964   4.604  15.885  0.00  0.00    +0.000 A 
ENDBRANCH  21  27
ENDBRANCH  17  21
ENDBRANCH  11  17
ENDBRANCH   1  15
BRANCH   8  28
ATOM     28  C   UNL     1       0.105   9.527  22.468  0.00  0.00    +0.000 C 
ATOM     29  F   UNL     1      -0.689   8.447  22.690  0.00  0.00    +0.000 F 
ATOM     30  F   UNL     1       1.291   9.254  23.075  0.00  0.00    +0.000 F 
ATOM     31  F   UNL     1      -0.460  10.546  23.168  0.00  0.00    +0.000 F 
ENDBRANCH   8  28
BRANCH   6  32
ATOM     32  C   UNL     1      -0.676  12.715  18.666  0.00  0.00    +0.000 C 
BRANCH  32  33
ATOM     33  N   UNL     1       0.116  13.942  18.572  0.00  0.00    +0.000 NA
ATOM     34  C   UNL     1       1.560  13.806  18.576  0.00  0.00    +0.000 C 
ATOM     35  C   UNL     1       2.144  13.765  19.983  0.00  0.00    +0.000 C 
ATOM     36  C   UNL     1       1.656  14.915  20.873  0.00  0.00    +0.000 C 
ATOM     37  C   UNL     1       0.171  15.260  20.706  0.00  0.00    +0.000 C 
ATOM     38  C   UNL     1      -0.339  15.135  19.270  0.00  0.00    +0.000 C 
BRANCH  36  39
ATOM     39  C   UNL     1       2.484  16.111  20.654  0.00  0.00    +0.000 C 
ATOM     40  N   UNL     1       3.143  17.044  20.455  0.00  0.00    +0.000 NA
ENDBRANCH  36  39
ENDBRANCH  32  33
ENDBRANCH   6  32
TORSDOF 8
ENDMDL
MODEL 2
REMARK VINA RESULT:      -9.0      1.636      2.622
REMARK  Name = 
REMARK  9 active torsions:
REMARK  status: ('A' for Active; 'I' for Inactive)
REMARK    1  A    between atoms: C_1  and  N_2
REMARK    2  A    between atoms: C_6  and  C_7
REMARK    3  A    between atoms: C_7  and  C_8
REMARK    4  A    between atoms: C_8  and  C_9
REMARK    5  A    between atoms: C_13  and  N_14
REMARK    6  A    between atoms: C_19  and  C_20
REMARK    7  A    between atoms: C_20  and  N_21
REMARK    8  A    between atoms: C_24  and  C_25
REMARK    9  A    between atoms: C_30  and  C_31
REMARK                            x       y       z     vdW  Elec       q    Type
REMARK                         _______ _______ _______ _____ _____    ______ ____
ROOT
ATOM      1  N   UNL     1       2.192   7.475  19.182  0.00  0.00    +0.000 N 
ATOM      2  C   UNL     1       1.466   7.805  20.381  0.00  0.00    +0.000 C 
ATOM      3  C   UNL     1       1.019   9.193  20.183  0.00  0.00    +0.000 A 
ATOM      4  C   UNL     1       1.346   9.628  18.904  0.00  0.00    +0.000 A 
ATOM      5  C   UNL     1       0.956  10.898  18.492  0.00  0.00    +0.000 A 
ATOM      6  C   UNL     1       0.236  11.715  19.407  0.00  0.00    +0.000 A 
ATOM      7  C   UNL     1      -0.055  11.227  20.705  0.00  0.00    +0.000 A 
ATOM      8  C   UNL     1       0.354   9.965  21.122  0.00  0.00    +0.000 A 
ATOM      9  C   UNL     1       2.144   8.527  18.254  0.00  0.00    +0.000 C 
ATOM     10  O   UNL     1       2.643   8.611  17.146  0.00  0.00    +0.000 OA
ENDROOT
BRANCH   1  15
ATOM     11  C   UNL     1       4.552   4.842  17.919  0.00  0.00    +0.000 A 
ATOM     12  C   UNL     1       4.312   3.830  18.854  0.00  0.00    +0.000 A 
ATOM     13  C   UNL     1       3.407   4.010  19.919  0.00  0.00    +0.000 A 
ATOM     14  C   UNL     1       2.693   5.208  20.080  0.00  0.00    +0.000 A 
ATOM     15  C   UNL     1       2.898   6.241  19.179  0.00  0.00    +0.000 A 
ATOM     16  C   UNL     1       3.843   6.027  18.149  0.00  0.00    +0.000 A 
BRANCH  11  17
ATOM     17  C   UNL     1       5.557   4.740  16.649  0.00  0.00    +0.000 C 
ATOM     18  C   UNL     1       5.192   5.666  15.456  0.00  0.00    +0.000 C 
ATOM     19  O   UNL     1       4.979   4.557  14.564  0.00  0.00    +0.000 OA
ATOM     20  C   UNL     1       5.314   3.608  15.598  0.00  0.00    +0.000 C 
BRANCH  17  21
ATOM     21  C   UNL     1       7.045   4.821  17.087  0.00  0.00    +0.000 C 
BRANCH  21  27
ATOM     22  C   UNL     1       8.099   5.761  19.941  0.00  0.00    +0.000 C 
ATOM     23  N   UNL     1       7.961   6.557  18.750  0.00  0.00    +0.000 N 
ATOM     24  C   UNL     1       8.252   7.887  18.675  0.00  0.00    +0.000 A 
ATOM     25  N   UNL     1       7.983   8.326  17.472  0.00  0.00    +0.000 NA
ATOM     26  N   UNL     1       7.494   7.271  16.745  0.00  0.00    +0.000 NA
ATOM     27  C   UNL     1       7.507   6.190  17.503  0.00  0.00    +0.000 A 
ENDBRANCH  21  27
ENDBRANCH  17  21
ENDBRANCH  11  17
ENDBRANCH   1  15
BRANCH   8  28
ATOM     28  C   UNL     1       0.122   9.504  22.540  0.00  0.00    +0.000 C 
ATOM     29  F   UNL     1      -0.680   8.412  22.647  0.00  0.00    +0.000 F 
ATOM     30  F   UNL     1       1.286   9.179  23.164  0.00  0.00    +0.000 F 
ATOM     31  F   UNL     1      -0.467  10.465  23.300  0.00  0.00    +0.000 F 
ENDBRANCH   8  28
BRANCH   6  32
ATOM     32  C   UNL     1      -0.302  13.093  19.053  0.00  0.00    +0.000 C 
BRANCH  32  33
ATOM     33  N   UNL     1       0.172  14.258  19.800  0.00  0.00    +0.000 NA
ATOM     34  C   UNL     1      -0.583  15.490  19.668  0.00  0.00    +0.000 C 
ATOM     35  C   UNL     1      -0.147  16.321  18.467  0.00  0.00    +0.000 C 
ATOM     36  C   UNL     1       1.369  16.549  18.409  0.00  0.00    +0.000 C 
ATOM     37  C   UNL     1       2.209  15.326  18.796  0.00  0.00    +0.000 C 
ATOM     38  C   UNL     1       1.605  14.488  19.922  0.00  0.00    +0.000 C 
BRANCH  36  39
ATOM     39  C   UNL     1       1.739  17.705  19.240  0.00  0.00    +0.000 C 
ATOM     40  N   UNL     1       2.006  18.614  19.909  0.00  0.00    +0.000 NA
ENDBRANCH  36  39
ENDBRANCH  32  33
ENDBRANCH   6  32
TORSDOF 8
ENDMDL
MODEL 3
REMARK VINA RESULT:      -8.8      0.768      1.298
REMARK  Name = 
REMARK  9 active torsions:
REMARK  status: ('A' for Active; 'I' for Inactive)
REMARK    1  A    between atoms: C_1  and  N_2
REMARK    2  A    between atoms: C_6  and  C_7
REMARK    3  A    between atoms: C_7  and  C_8
REMARK    4  A    between atoms: C_8  and  C_9
REMARK    5  A    between atoms: C_13  and  N_14
REMARK    6  A    between atoms: C_19  and  C_20
REMARK    7  A    between atoms: C_20  and  N_21
REMARK    8  A    between atoms: C_24  and  C_25
REMARK    9  A    between atoms: C_30  and  C_31
REMARK                            x       y       z     vdW  Elec       q    Type
REMARK                         _______ _______ _______ _____ _____    ______ ____
ROOT
ATOM      1  N   UNL     1       2.382   7.395  19.278  0.00  0.00    +0.000 N 
ATOM      2  C   UNL     1       1.597   7.700  20.446  0.00  0.00    +0.000 C 
ATOM      3  C   UNL     1       1.085   9.060  20.214  0.00  0.00    +0.000 A 
ATOM      4  C   UNL     1       1.434   9.497  18.941  0.00  0.00    +0.000 A 
ATOM      5  C   UNL     1       0.993  10.739  18.498  0.00  0.00    +0.000 A 
ATOM      6  C   UNL     1       0.198  11.527  19.377  0.00  0.00    +0.000 A 
ATOM      7  C   UNL     1      -0.113  11.040  20.670  0.00  0.00    +0.000 A 
ATOM      8  C   UNL     1       0.347   9.806  21.118  0.00  0.00    +0.000 A 
ATOM      9  C   UNL     1       2.311   8.432  18.334  0.00  0.00    +0.000 C 
ATOM     10  O   UNL     1       2.845   8.530  17.244  0.00  0.00    +0.000 OA
ENDROOT
BRANCH   1  15
ATOM     11  C   UNL     1       5.400   5.207  18.824  0.00  0.00    +0.000 A 
ATOM     12  C   UNL     1       4.851   3.963  19.157  0.00  0.00    +0.000 A 
ATOM     13  C   UNL     1       3.508   3.835  19.563  0.00  0.00    +0.000 A 
ATOM     14  C   UNL     1       2.654   4.947  19.635  0.00  0.00    +0.000 A 
ATOM     15  C   UNL     1       3.151   6.200  19.316  0.00  0.00    +0.000 A 
ATOM     16  C   UNL     1       4.515   6.285  18.950  0.00  0.00    +0.000 A 
BRANCH  11  17
ATOM     17  C   UNL     1       6.923   5.470  18.331  0.00  0.00    +0.000 C 
ATOM     18  C   UNL     1       7.928   5.793  19.471  0.00  0.00    +0.000 C 
ATOM     19  O   UNL     1       8.210   7.105  18.951  0.00  0.00    +0.000 OA
ATOM     20  C   UNL     1       7.308   6.904  17.843  0.00  0.00    +0.000 C 
BRANCH  17  21
ATOM     21  C   UNL     1       7.405   4.369  17.347  0.00  0.00    +0.000 C 
BRANCH  21  27
ATOM     22  C   UNL     1       4.803   3.315  15.844  0.00  0.00    +0.000 C 
ATOM     23  N   UNL     1       5.867   4.116  15.300  0.00  0.00    +0.000 N 
ATOM     24  C   UNL     1       5.929   4.537  14.005  0.00  0.00    +0.000 A 
ATOM     25  N   UNL     1       7.036   5.208  13.815  0.00  0.00    +0.000 NA
ATOM     26  N   UNL     1       7.723   5.219  15.002  0.00  0.00    +0.000 NA
ATOM     27  C   UNL     1       7.008   4.587  15.914  0.00  0.00    +0.000 A 
ENDBRANCH  21  27
ENDBRANCH  17  21
ENDBRANCH  11  17
ENDBRANCH   1  15
BRANCH   8  28
ATOM     28  C   UNL     1       0.089   9.350  22.533  0.00  0.00    +0.000 C 
ATOM     29  F   UNL     1       1.209   8.999  23.218  0.00  0.00    +0.000 F 
ATOM     30  F   UNL     1      -0.519  10.315  23.275  0.00  0.00    +0.000 F 
ATOM     31  F   UNL     1      -0.723   8.261  22.579  0.00  0.00    +0.000 F 
ENDBRANCH   8  28
BRANCH   6  32
ATOM     32  C   UNL     1      -0.398  12.871  18.985  0.00  0.00    +0.000 C 
BRANCH  32  33
ATOM     33  N   UNL     1      -0.260  14.006  19.898  0.00  0.00    +0.000 NA
ATOM     34  C   UNL     1      -1.082  15.174  19.639  0.00  0.00    +0.000 C 
ATOM     35  C   UNL     1      -0.439  16.138  18.649  0.00  0.00    +0.000 C 
ATOM     36  C   UNL     1       1.007  16.500  19.011  0.00  0.00    +0.000 C 
ATOM     37  C   UNL     1       1.842  15.327  19.538  0.00  0.00    +0.000 C 
ATOM     38  C   UNL     1       1.058  14.348  20.411  0.00  0.00    +0.000 C 
BRANCH  36  39
ATOM     39  C   UNL     1       1.024  17.611  19.976  0.00  0.00    +0.000 C 
ATOM     40  N   UNL     1       1.011  18.492  20.729  0.00  0.00    +0.000 NA
ENDBRANCH  36  39
ENDBRANCH  32  33
ENDBRANCH   6  32
TORSDOF 8
ENDMDL
MODEL 4
REMARK VINA RESULT:      -8.8      1.524      2.478
REMARK  Name = 
REMARK  9 active torsions:
REMARK  status: ('A' for Active; 'I' for Inactive)
REMARK    1  A    between atoms: C_1  and  N_2
REMARK    2  A    between atoms: C_6  and  C_7
REMARK    3  A    between atoms: C_7  and  C_8
REMARK    4  A    between atoms: C_8  and  C_9
REMARK    5  A    between atoms: C_13  and  N_14
REMARK    6  A    between atoms: C_19  and  C_20
REMARK    7  A    between atoms: C_20  and  N_21
REMARK    8  A    between atoms: C_24  and  C_25
REMARK    9  A    between atoms: C_30  and  C_31
REMARK                            x       y       z     vdW  Elec       q    Type
REMARK                         _______ _______ _______ _____ _____    ______ ____
ROOT
ATOM      1  N   UNL     1       2.182   7.459  19.141  0.00  0.00    +0.000 N 
ATOM      2  C   UNL     1       1.459   7.808  20.337  0.00  0.00    +0.000 C 
ATOM      3  C   UNL     1       0.996   9.186  20.112  0.00  0.00    +0.000 A 
ATOM      4  C   UNL     1       1.312   9.597  18.822  0.00  0.00    +0.000 A 
ATOM      5  C   UNL     1       0.906  10.854  18.385  0.00  0.00    +0.000 A 
ATOM      6  C   UNL     1       0.182  11.683  19.286  0.00  0.00    +0.000 A 
ATOM      7  C   UNL     1      -0.096  11.220  20.596  0.00  0.00    +0.000 A 
ATOM      8  C   UNL     1       0.329   9.972  21.038  0.00  0.00    +0.000 A 
ATOM      9  C   UNL     1       2.117   8.490  18.191  0.00  0.00    +0.000 C 
ATOM     10  O   UNL     1       2.609   8.556  17.079  0.00  0.00    +0.000 OA
ENDROOT
BRANCH   1  15
ATOM     11  C   UNL     1       4.585   4.839  17.936  0.00  0.00    +0.000 A 
ATOM     12  C   UNL     1       4.344   3.834  18.880  0.00  0.00    +0.000 A 
ATOM     13  C   UNL     1       3.424   4.016  19.931  0.00  0.00    +0.000 A 
ATOM     14  C   UNL     1       2.696   5.208  20.070  0.00  0.00    +0.000 A 
ATOM     15  C   UNL     1       2.901   6.233  19.161  0.00  0.00    +0.000 A 
ATOM     16  C   UNL     1       3.860   6.018  18.144  0.00  0.00    +0.000 A 
BRANCH  11  17
ATOM     17  C   UNL     1       5.606   4.733  16.679  0.00  0.00    +0.000 C 
ATOM     18  C   UNL     1       5.246   5.641  15.472  0.00  0.00    +0.000 C 
ATOM     19  O   UNL     1       5.055   4.519  14.590  0.00  0.00    +0.000 OA
ATOM     20  C   UNL     1       5.388   3.587  15.639  0.00  0.00    +0.000 C 
BRANCH  17  21
ATOM     21  C   UNL     1       7.088   4.835  17.134  0.00  0.00    +0.000 C 
BRANCH  21  27
ATOM     22  C   UNL     1       8.247   5.817  19.933  0.00  0.00    +0.000 C 
ATOM     23  N   UNL     1       8.036   6.602  18.746  0.00  0.00    +0.000 N 
ATOM     24  C   UNL     1       8.291   7.938  18.652  0.00  0.00    +0.000 A 
ATOM     25  N   UNL     1       7.957   8.364  17.461  0.00  0.00    +0.000 NA
ATOM     26  N   UNL     1       7.462   7.294  16.761  0.00  0.00    +0.000 NA
ATOM     27  C   UNL     1       7.535   6.217  17.522  0.00  0.00    +0.000 A 
ENDBRANCH  21  27
ENDBRANCH  17  21
ENDBRANCH  11  17
ENDBRANCH   1  15
BRANCH   8  28
ATOM     28  C   UNL     1       0.110   9.539  22.467  0.00  0.00    +0.000 C 
ATOM     29  F   UNL     1       1.249   9.204  23.128  0.00  0.00    +0.000 F 
ATOM     30  F   UNL     1      -0.483  10.514  23.207  0.00  0.00    +0.000 F 
ATOM     31  F   UNL     1      -0.696   8.447  22.552  0.00  0.00    +0.000 F 
ENDBRANCH   8  28
BRANCH   6  32
ATOM     32  C   UNL     1      -0.372  13.048  18.906  0.00  0.00    +0.000 C 
BRANCH  32  33
ATOM     33  N   UNL     1       0.417  14.245  19.197  0.00  0.00    +0.000 NA
ATOM     34  C   UNL     1       1.810  14.242  18.790  0.00  0.00    +0.000 C 
ATOM     35  C   UNL     1       2.726  13.617  19.835  0.00  0.00    +0.000 C 
ATOM     36  C   UNL     1       2.522  14.196  21.241  0.00  0.00    +0.000 C 
ATOM     37  C   UNL     1       1.057  14.455  21.614  0.00  0.00    +0.000 C 
ATOM     38  C   UNL     1       0.198  14.951  20.450  0.00  0.00    +0.000 C 
BRANCH  36  39
ATOM     39  C   UNL     1       3.314  15.425  21.402  0.00  0.00    +0.000 C 
ATOM     40  N   UNL     1       3.961  16.379  21.534  0.00  0.00    +0.000 NA
ENDBRANCH  36  39
ENDBRANCH  32  33
ENDBRANCH   6  32
TORSDOF 8
ENDMDL
MODEL 5
REMARK VINA RESULT:      -8.8      0.879      1.306
REMARK  Name = 
REMARK  9 active torsions:
REMARK  status: ('A' for Active; 'I' for Inactive)
REMARK    1  A    between atoms: C_1  and  N_2
REMARK    2  A    between atoms: C_6  and  C_7
REMARK    3  A    between atoms: C_7  and  C_8
REMARK    4  A    between atoms: C_8  and  C_9
REMARK    5  A    between atoms: C_13  and  N_14
REMARK    6  A    between atoms: C_19  and  C_20
REMARK    7  A    between atoms: C_20  and  N_21
REMARK    8  A    between atoms: C_24  and  C_25
REMARK    9  A    between atoms: C_30  and  C_31
REMARK                            x       y       z     vdW  Elec       q    Type
REMARK                         _______ _______ _______ _____ _____    ______ ____
ROOT
ATOM      1  N   UNL     1       1.949   7.720  19.483  0.00  0.00    +0.000 N 
ATOM      2  C   UNL     1       1.176   8.013  20.662  0.00  0.00    +0.000 C 
ATOM      3  C   UNL     1       0.697   9.390  20.469  0.00  0.00    +0.000 A 
ATOM      4  C   UNL     1       1.051   9.853  19.207  0.00  0.00    +0.000 A 
ATOM      5  C   UNL     1       0.639  11.117  18.800  0.00  0.00    +0.000 A 
ATOM      6  C   UNL     1      -0.132  11.901  19.703  0.00  0.00    +0.000 A 
ATOM      7  C   UNL     1      -0.450  11.386  20.984  0.00  0.00    +0.000 A 
ATOM      8  C   UNL     1      -0.019  10.130  21.397  0.00  0.00    +0.000 A 
ATOM      9  C   UNL     1       1.899   8.784  18.568  0.00  0.00    +0.000 C 
ATOM     10  O   UNL     1       2.431   8.898  17.478  0.00  0.00    +0.000 OA
ENDROOT
BRANCH   1  15
ATOM     11  C   UNL     1       4.833   5.425  18.766  0.00  0.00    +0.000 A 
ATOM     12  C   UNL     1       4.302   4.215  19.229  0.00  0.00    +0.000 A 
ATOM     13  C   UNL     1       3.019   4.146  19.806  0.00  0.00    +0.000 A 
ATOM     14  C   UNL     1       2.207   5.285  19.927  0.00  0.00    +0.000 A 
ATOM     15  C   UNL     1       2.688   6.506  19.485  0.00  0.00    +0.000 A 
ATOM     16  C   UNL     1       3.996   6.533  18.947  0.00  0.00    +0.000 A 
BRANCH  11  17
ATOM     17  C   UNL     1       6.287   5.619  18.074  0.00  0.00    +0.000 C 
ATOM     18  C   UNL     1       7.160   4.336  18.026  0.00  0.00    +0.000 C 
ATOM     19  O   UNL     1       8.186   4.914  18.854  0.00  0.00    +0.000 OA
ATOM     20  C   UNL     1       7.462   6.158  18.952  0.00  0.00    +0.000 C 
BRANCH  17  21
ATOM     21  C   UNL     1       6.180   6.369  16.717  0.00  0.00    +0.000 C 
BRANCH  21  27
ATOM     22  C   UNL     1       4.314   4.035  15.619  0.00  0.00    +0.000 C 
ATOM     23  N   UNL     1       5.551   4.507  15.057  0.00  0.00    +0.000 N 
ATOM     24  C   UNL     1       6.139   3.988  13.941  0.00  0.00    +0.000 A 
ATOM     25  N   UNL     1       7.269   4.606  13.714  0.00  0.00    +0.000 NA
ATOM     26  N   UNL     1       7.437   5.540  14.703  0.00  0.00    +0.000 NA
ATOM     27  C   UNL     1       6.387   5.507  15.503  0.00  0.00    +0.000 A 
ENDBRANCH  21  27
ENDBRANCH  17  21
ENDBRANCH  11  17
ENDBRANCH   1  15
BRANCH   8  28
ATOM     28  C   UNL     1      -0.281   9.642  22.801  0.00  0.00    +0.000 C 
ATOM     29  F   UNL     1       0.842   9.393  23.523  0.00  0.00    +0.000 F 
ATOM     30  F   UNL     1      -1.003  10.541  23.523  0.00  0.00    +0.000 F 
ATOM     31  F   UNL     1      -0.989   8.482  22.814  0.00  0.00    +0.000 F 
ENDBRANCH   8  28
BRANCH   6  32
ATOM     32  C   UNL     1      -0.697  13.269  19.351  0.00  0.00    +0.000 C 
BRANCH  32  33
ATOM     33  N   UNL     1       0.048  14.468  19.731  0.00  0.00    +0.000 NA
ATOM     34  C   UNL     1       0.783  15.156  18.686  0.00  0.00    +0.000 C 
ATOM     35  C   UNL     1       2.181  14.586  18.478  0.00  0.00    +0.000 C 
ATOM     36  C   UNL     1       2.983  14.460  19.779  0.00  0.00    +0.000 C 
ATOM     37  C   UNL     1       2.166  13.973  20.982  0.00  0.00    +0.000 C 
ATOM     38  C   UNL     1       0.732  14.502  21.015  0.00  0.00    +0.000 C 
BRANCH  36  39
ATOM     39  C   UNL     1       3.641  15.737  20.094  0.00  0.00    +0.000 C 
ATOM     40  N   UNL     1       4.141  16.757  20.327  0.00  0.00    +0.000 NA
ENDBRANCH  36  39
ENDBRANCH  32  33
ENDBRANCH   6  32
TORSDOF 8
ENDMDL
MODEL 6
REMARK VINA RESULT:      -8.7      1.127      1.701
REMARK  Name = 
REMARK  9 active torsions:
REMARK  status: ('A' for Active; 'I' for Inactive)
REMARK    1  A    between atoms: C_1  and  N_2
REMARK    2  A    between atoms: C_6  and  C_7
REMARK    3  A    between atoms: C_7  and  C_8
REMARK    4  A    between atoms: C_8  and  C_9
REMARK    5  A    between atoms: C_13  and  N_14
REMARK    6  A    between atoms: C_19  and  C_20
REMARK    7  A    between atoms: C_20  and  N_21
REMARK    8  A    between atoms: C_24  and  C_25
REMARK    9  A    between atoms: C_30  and  C_31
REMARK                            x       y       z     vdW  Elec       q    Type
REMARK                         _______ _______ _______ _____ _____    ______ ____
ROOT
ATOM      1  N   UNL     1       1.921   7.694  19.398  0.00  0.00    +0.000 N 
ATOM      2  C   UNL     1       1.167   7.991  20.589  0.00  0.00    +0.000 C 
ATOM      3  C   UNL     1       0.694   9.372  20.404  0.00  0.00    +0.000 A 
ATOM      4  C   UNL     1       1.034   9.834  19.137  0.00  0.00    +0.000 A 
ATOM      5  C   UNL     1       0.624  11.101  18.737  0.00  0.00    +0.000 A 
ATOM      6  C   UNL     1      -0.129  11.888  19.651  0.00  0.00    +0.000 A 
ATOM      7  C   UNL     1      -0.432  11.375  20.936  0.00  0.00    +0.000 A 
ATOM      8  C   UNL     1      -0.004  10.116  21.342  0.00  0.00    +0.000 A 
ATOM      9  C   UNL     1       1.866   8.759  18.485  0.00  0.00    +0.000 C 
ATOM     10  O   UNL     1       2.383   8.871  17.388  0.00  0.00    +0.000 OA
ENDROOT
BRANCH   1  15
ATOM     11  C   UNL     1       4.551   5.246  18.309  0.00  0.00    +0.000 A 
ATOM     12  C   UNL     1       4.175   4.132  19.067  0.00  0.00    +0.000 A 
ATOM     13  C   UNL     1       3.087   4.181  19.960  0.00  0.00    +0.000 A 
ATOM     14  C   UNL     1       2.319   5.345  20.118  0.00  0.00    +0.000 A 
ATOM     15  C   UNL     1       2.653   6.476  19.390  0.00  0.00    +0.000 A 
ATOM     16  C   UNL     1       3.775   6.390  18.533  0.00  0.00    +0.000 A 
BRANCH  11  17
ATOM     17  C   UNL     1       5.772   5.299  17.242  0.00  0.00    +0.000 C 
ATOM     18  C   UNL     1       7.085   4.624  17.724  0.00  0.00    +0.000 C 
ATOM     19  O   UNL     1       7.827   5.856  17.668  0.00  0.00    +0.000 OA
ATOM     20  C   UNL     1       6.669   6.579  17.203  0.00  0.00    +0.000 C 
BRANCH  17  21
ATOM     21  C   UNL     1       5.313   4.863  15.823  0.00  0.00    +0.000 C 
BRANCH  21  27
ATOM     22  C   UNL     1       5.397   3.430  12.981  0.00  0.00    +0.000 C 
ATOM     23  N   UNL     1       6.367   4.336  13.536  0.00  0.00    +0.000 N 
ATOM     24  C   UNL     1       7.520   4.708  12.910  0.00  0.00    +0.000 A 
ATOM     25  N   UNL     1       8.204   5.505  13.690  0.00  0.00    +0.000 NA
ATOM     26  N   UNL     1       7.497   5.651  14.857  0.00  0.00    +0.000 NA
ATOM     27  C   UNL     1       6.370   4.971  14.759  0.00  0.00    +0.000 A 
ENDBRANCH  21  27
ENDBRANCH  17  21
ENDBRANCH  11  17
ENDBRANCH   1  15
BRANCH   8  28
ATOM     28  C   UNL     1      -0.250   9.628  22.749  0.00  0.00    +0.000 C 
ATOM     29  F   UNL     1      -0.931  10.506  23.532  0.00  0.00    +0.000 F 
ATOM     30  F   UNL     1      -0.968   8.472  22.766  0.00  0.00    +0.000 F 
ATOM     31  F   UNL     1       0.909   9.371  23.411  0.00  0.00    +0.000 F 
ENDBRANCH   8  28
BRANCH   6  32
ATOM     32  C   UNL     1      -0.690  13.261  19.308  0.00  0.00    +0.000 C 
BRANCH  32  33
ATOM     33  N   UNL     1      -0.157  14.440  19.990  0.00  0.00    +0.000 NA
ATOM     34  C   UNL     1      -0.794  15.714  19.715  0.00  0.00    +0.000 C 
ATOM     35  C   UNL     1      -0.223  16.405  18.483  0.00  0.00    +0.000 C 
ATOM     36  C   UNL     1       1.308  16.501  18.499  0.00  0.00    +0.000 C 
ATOM     37  C   UNL     1       2.016  15.249  19.032  0.00  0.00    +0.000 C 
ATOM     38  C   UNL     1       1.281  14.560  20.181  0.00  0.00    +0.000 C 
BRANCH  36  39
ATOM     39  C   UNL     1       1.732  17.688  19.258  0.00  0.00    +0.000 C 
ATOM     40  N   UNL     1       2.082  18.631  19.835  0.00  0.00    +0.000 NA
ENDBRANCH  36  39
ENDBRANCH  32  33
ENDBRANCH   6  32
TORSDOF 8
ENDMDL
MODEL 7
REMARK VINA RESULT:      -8.6      0.984      1.252
REMARK  Name = 
REMARK  9 active torsions:
REMARK  status: ('A' for Active; 'I' for Inactive)
REMARK    1  A    between atoms: C_1  and  N_2
REMARK    2  A    between atoms: C_6  and  C_7
REMARK    3  A    between atoms: C_7  and  C_8
REMARK    4  A    between atoms: C_8  and  C_9
REMARK    5  A    between atoms: C_13  and  N_14
REMARK    6  A    between atoms: C_19  and  C_20
REMARK    7  A    between atoms: C_20  and  N_21
REMARK    8  A    between atoms: C_24  and  C_25
REMARK    9  A    between atoms: C_30  and  C_31
REMARK                            x       y       z     vdW  Elec       q    Type
REMARK                         _______ _______ _______ _____ _____    ______ ____
ROOT
ATOM      1  N   UNL     1       2.107   7.495  19.070  0.00  0.00    +0.000 N 
ATOM      2  C   UNL     1       1.403   7.803  20.288  0.00  0.00    +0.000 C 
ATOM      3  C   UNL     1       1.064   9.230  20.179  0.00  0.00    +0.000 A 
ATOM      4  C   UNL     1       1.430   9.720  18.931  0.00  0.00    +0.000 A 
ATOM      5  C   UNL     1       1.140  11.040  18.600  0.00  0.00    +0.000 A 
ATOM      6  C   UNL     1       0.481  11.850  19.566  0.00  0.00    +0.000 A 
ATOM      7  C   UNL     1       0.147  11.304  20.830  0.00  0.00    +0.000 A 
ATOM      8  C   UNL     1       0.456   9.990  21.166  0.00  0.00    +0.000 A 
ATOM      9  C   UNL     1       2.143   8.605  18.211  0.00  0.00    +0.000 C 
ATOM     10  O   UNL     1       2.653   8.721  17.111  0.00  0.00    +0.000 OA
ENDROOT
BRANCH   1  15
ATOM     11  C   UNL     1       4.632   4.926  18.011  0.00  0.00    +0.000 A 
ATOM     12  C   UNL     1       4.046   3.773  18.546  0.00  0.00    +0.000 A 
ATOM     13  C   UNL     1       2.846   3.830  19.281  0.00  0.00    +0.000 A 
ATOM     14  C   UNL     1       2.174   5.044  19.497  0.00  0.00    +0.000 A 
ATOM     15  C   UNL     1       2.716   6.213  18.988  0.00  0.00    +0.000 A 
ATOM     16  C   UNL     1       3.941   6.111  18.288  0.00  0.00    +0.000 A 
BRANCH  11  17
ATOM     17  C   UNL     1       5.999   4.977  17.138  0.00  0.00    +0.000 C 
ATOM     18  C   UNL     1       7.299   4.729  17.951  0.00  0.00    +0.000 C 
ATOM     19  O   UNL     1       7.819   6.040  17.661  0.00  0.00    +0.000 OA
ATOM     20  C   UNL     1       6.658   6.369  16.870  0.00  0.00    +0.000 C 
BRANCH  17  21
ATOM     21  C   UNL     1       5.884   4.127  15.843  0.00  0.00    +0.000 C 
BRANCH  21  27
ATOM     22  C   UNL     1       5.598   3.378  12.761  0.00  0.00    +0.000 C 
ATOM     23  N   UNL     1       6.543   4.283  13.361  0.00  0.00    +0.000 N 
ATOM     24  C   UNL     1       7.504   4.961  12.672  0.00  0.00    +0.000 A 
ATOM     25  N   UNL     1       8.224   5.667  13.505  0.00  0.00    +0.000 NA
ATOM     26  N   UNL     1       7.738   5.441  14.767  0.00  0.00    +0.000 NA
ATOM     27  C   UNL     1       6.701   4.629  14.685  0.00  0.00    +0.000 A 
ENDBRANCH  21  27
ENDBRANCH  17  21
ENDBRANCH  11  17
ENDBRANCH   1  15
BRANCH   8  28
ATOM     28  C   UNL     1       0.184   9.458  22.552  0.00  0.00    +0.000 C 
ATOM     29  F   UNL     1      -0.636   8.375  22.581  0.00  0.00    +0.000 F 
ATOM     30  F   UNL     1       1.327   9.083  23.185  0.00  0.00    +0.000 F 
ATOM     31  F   UNL     1      -0.410  10.387  23.347  0.00  0.00    +0.000 F 
ENDBRANCH   8  28
BRANCH   6  32
ATOM     32  C   UNL     1       0.052  13.285  19.301  0.00  0.00    +0.000 C 
BRANCH  32  33
ATOM     33  N   UNL     1       1.070  14.290  18.996  0.00  0.00    +0.000 NA
ATOM     34  C   UNL     1       2.312  14.230  19.743  0.00  0.00    +0.000 C 
ATOM     35  C   UNL     1       2.240  14.984  21.065  0.00  0.00    +0.000 C 
ATOM     36  C   UNL     1       1.707  16.415  20.918  0.00  0.00    +0.000 C 
ATOM     37  C   UNL     1       0.545  16.559  19.928  0.00  0.00    +0.000 C 
ATOM     38  C   UNL     1       0.656  15.654  18.702  0.00  0.00    +0.000 C 
BRANCH  36  39
ATOM     39  C   UNL     1       2.803  17.327  20.553  0.00  0.00    +0.000 C 
ATOM     40  N   UNL     1       3.656  18.064  20.284  0.00  0.00    +0.000 NA
ENDBRANCH  36  39
ENDBRANCH  32  33
ENDBRANCH   6  32
TORSDOF 8
ENDMDL
MODEL 8
REMARK VINA RESULT:      -8.6      2.051      3.414
REMARK  Name = 
REMARK  9 active torsions:
REMARK  status: ('A' for Active; 'I' for Inactive)
REMARK    1  A    between atoms: C_1  and  N_2
REMARK    2  A    between atoms: C_6  and  C_7
REMARK    3  A    between atoms: C_7  and  C_8
REMARK    4  A    between atoms: C_8  and  C_9
REMARK    5  A    between atoms: C_13  and  N_14
REMARK    6  A    between atoms: C_19  and  C_20
REMARK    7  A    between atoms: C_20  and  N_21
REMARK    8  A    between atoms: C_24  and  C_25
REMARK    9  A    between atoms: C_30  and  C_31
REMARK                            x       y       z     vdW  Elec       q    Type
REMARK                         _______ _______ _______ _____ _____    ______ ____
ROOT
ATOM      1  N   UNL     1       2.236   7.329  18.806  0.00  0.00    +0.000 N 
ATOM      2  C   UNL     1       1.592   7.644  20.055  0.00  0.00    +0.000 C 
ATOM      3  C   UNL     1       1.381   9.100  20.015  0.00  0.00    +0.000 A 
ATOM      4  C   UNL     1       1.759   9.610  18.778  0.00  0.00    +0.000 A 
ATOM      5  C   UNL     1       1.581  10.963  18.512  0.00  0.00    +0.000 A 
ATOM      6  C   UNL     1       1.021  11.785  19.529  0.00  0.00    +0.000 A 
ATOM      7  C   UNL     1       0.670  11.216  20.778  0.00  0.00    +0.000 A 
ATOM      8  C   UNL     1       0.868   9.866  21.050  0.00  0.00    +0.000 A 
ATOM      9  C   UNL     1       2.351   8.468  17.993  0.00  0.00    +0.000 C 
ATOM     10  O   UNL     1       2.842   8.586  16.885  0.00  0.00    +0.000 OA
ENDROOT
BRANCH   1  15
ATOM     11  C   UNL     1       4.371   4.567  17.424  0.00  0.00    +0.000 A 
ATOM     12  C   UNL     1       3.782   3.465  18.055  0.00  0.00    +0.000 A 
ATOM     13  C   UNL     1       2.711   3.618  18.957  0.00  0.00    +0.000 A 
ATOM     14  C   UNL     1       2.175   4.881  19.252  0.00  0.00    +0.000 A 
ATOM     15  C   UNL     1       2.725   6.003  18.653  0.00  0.00    +0.000 A 
ATOM     16  C   UNL     1       3.822   5.803  17.783  0.00  0.00    +0.000 A 
BRANCH  11  17
ATOM     17  C   UNL     1       5.594   4.508  16.360  0.00  0.00    +0.000 C 
ATOM     18  C   UNL     1       5.454   5.478  15.155  0.00  0.00    +0.000 C 
ATOM     19  O   UNL     1       5.413   4.402  14.199  0.00  0.00    +0.000 OA
ATOM     20  C   UNL     1       5.554   3.416  15.242  0.00  0.00    +0.000 C 
BRANCH  17  21
ATOM     21  C   UNL     1       6.975   4.567  17.069  0.00  0.00    +0.000 C 
BRANCH  21  27
ATOM     22  C   UNL     1       7.927   5.641  19.912  0.00  0.00    +0.000 C 
ATOM     23  N   UNL     1       7.847   6.376  18.678  0.00  0.00    +0.000 N 
ATOM     24  C   UNL     1       8.158   7.697  18.547  0.00  0.00    +0.000 A 
ATOM     25  N   UNL     1       7.943   8.077  17.314  0.00  0.00    +0.000 NA
ATOM     26  N   UNL     1       7.469   6.992  16.622  0.00  0.00    +0.000 NA
ATOM     27  C   UNL     1       7.438   5.951  17.433  0.00  0.00    +0.000 A 
ENDBRANCH  21  27
ENDBRANCH  17  21
ENDBRANCH  11  17
ENDBRANCH   1  15
BRANCH   8  28
ATOM     28  C   UNL     1       0.582   9.300  22.419  0.00  0.00    +0.000 C 
ATOM     29  F   UNL     1       1.684   8.860  23.081  0.00  0.00    +0.000 F 
ATOM     30  F   UNL     1      -0.005  10.217  23.234  0.00  0.00    +0.000 F 
ATOM     31  F   UNL     1      -0.262   8.236  22.366  0.00  0.00    +0.000 F 
ENDBRANCH   8  28
BRANCH   6  32
ATOM     32  C   UNL     1       0.717  13.263  19.336  0.00  0.00    +0.000 C 
BRANCH  32  33
ATOM     33  N   UNL     1      -0.658  13.679  19.057  0.00  0.00    +0.000 NA
ATOM     34  C   UNL     1      -1.325  14.493  20.055  0.00  0.00    +0.000 C 
ATOM     35  C   UNL     1      -2.001  13.659  21.138  0.00  0.00    +0.000 C 
ATOM     36  C   UNL     1      -2.904  12.555  20.575  0.00  0.00    +0.000 C 
ATOM     37  C   UNL     1      -2.336  11.836  19.345  0.00  0.00    +0.000 C 
ATOM     38  C   UNL     1      -1.560  12.748  18.395  0.00  0.00    +0.000 C 
BRANCH  36  39
ATOM     39  C   UNL     1      -4.239  13.097  20.276  0.00  0.00    +0.000 C 
ATOM     40  N   UNL     1      -5.282  13.549  20.051  0.00  0.00    +0.000 NA
ENDBRANCH  36  39
ENDBRANCH  32  33
ENDBRANCH   6  32
TORSDOF 8
ENDMDL
MODEL 9
REMARK VINA RESULT:      -8.5      1.650      2.557
REMARK  Name = 
REMARK  9 active torsions:
REMARK  status: ('A' for Active; 'I' for Inactive)
REMARK    1  A    between atoms: C_1  and  N_2
REMARK    2  A    between atoms: C_6  and  C_7
REMARK    3  A    between atoms: C_7  and  C_8
REMARK    4  A    between atoms: C_8  and  C_9
REMARK    5  A    between atoms: C_13  and  N_14
REMARK    6  A    between atoms: C_19  and  C_20
REMARK    7  A    between atoms: C_20  and  N_21
REMARK    8  A    between atoms: C_24  and  C_25
REMARK    9  A    between atoms: C_30  and  C_31
REMARK                            x       y       z     vdW  Elec       q    Type
REMARK                         _______ _______ _______ _____ _____    ______ ____
ROOT
ATOM      1  N   UNL     1       2.210   7.322  18.833  0.00  0.00    +0.000 N 
ATOM      2  C   UNL     1       1.505   7.634  20.050  0.00  0.00    +0.000 C 
ATOM      3  C   UNL     1       1.242   9.079  19.976  0.00  0.00    +0.000 A 
ATOM      4  C   UNL     1       1.649   9.582  18.746  0.00  0.00    +0.000 A 
ATOM      5  C   UNL     1       1.433  10.923  18.447  0.00  0.00    +0.000 A 
ATOM      6  C   UNL     1       0.802  11.740  19.426  0.00  0.00    +0.000 A 
ATOM      7  C   UNL     1       0.423  11.180  20.671  0.00  0.00    +0.000 A 
ATOM      8  C   UNL     1       0.660   9.843  20.975  0.00  0.00    +0.000 A 
ATOM      9  C   UNL     1       2.315   8.450  18.005  0.00  0.00    +0.000 C 
ATOM     10  O   UNL     1       2.845   8.569  16.915  0.00  0.00    +0.000 OA
ENDROOT
BRANCH   1  15
ATOM     11  C   UNL     1       4.430   4.597  17.514  0.00  0.00    +0.000 A 
ATOM     12  C   UNL     1       3.906   3.499  18.207  0.00  0.00    +0.000 A 
ATOM     13  C   UNL     1       2.853   3.645  19.131  0.00  0.00    +0.000 A 
ATOM     14  C   UNL     1       2.269   4.895  19.386  0.00  0.00    +0.000 A 
ATOM     15  C   UNL     1       2.753   6.013  18.725  0.00  0.00    +0.000 A 
ATOM     16  C   UNL     1       3.836   5.823  17.834  0.00  0.00    +0.000 A 
BRANCH  11  17
ATOM     17  C   UNL     1       5.627   4.544  16.420  0.00  0.00    +0.000 C 
ATOM     18  C   UNL     1       5.442   5.499  15.209  0.00  0.00    +0.000 C 
ATOM     19  O   UNL     1       5.393   4.413  14.265  0.00  0.00    +0.000 OA
ATOM     20  C   UNL     1       5.575   3.440  15.315  0.00  0.00    +0.000 C 
BRANCH  17  21
ATOM     21  C   UNL     1       7.024   4.630  17.094  0.00  0.00    +0.000 C 
BRANCH  21  27
ATOM     22  C   UNL     1       8.208   5.644  19.871  0.00  0.00    +0.000 C 
ATOM     23  N   UNL     1       7.972   6.419  18.682  0.00  0.00    +0.000 N 
ATOM     24  C   UNL     1       8.209   7.758  18.575  0.00  0.00    +0.000 A 
ATOM     25  N   UNL     1       7.854   8.172  17.386  0.00  0.00    +0.000 NA
ATOM     26  N   UNL     1       7.362   7.091  16.700  0.00  0.00    +0.000 NA
ATOM     27  C   UNL     1       7.458   6.021  17.467  0.00  0.00    +0.000 A 
ENDBRANCH  21  27
ENDBRANCH  17  21
ENDBRANCH  11  17
ENDBRANCH   1  15
BRANCH   8  28
ATOM     28  C   UNL     1       0.341   9.290  22.342  0.00  0.00    +0.000 C 
ATOM     29  F   UNL     1      -0.268  10.176  23.173  0.00  0.00    +0.000 F 
ATOM     30  F   UNL     1      -0.484   8.211  22.273  0.00  0.00    +0.000 F 
ATOM     31  F   UNL     1       1.457   8.879  23.000  0.00  0.00    +0.000 F 
ENDBRANCH   8  28
BRANCH   6  32
ATOM     32  C   UNL     1       0.452  13.203  19.195  0.00  0.00    +0.000 C 
BRANCH  32  33
ATOM     33  N   UNL     1       1.518  14.150  18.873  0.00  0.00    +0.000 NA
ATOM     34  C   UNL     1       2.763  14.030  19.608  0.00  0.00    +0.000 C 
ATOM     35  C   UNL     1       2.743  14.795  20.926  0.00  0.00    +0.000 C 
ATOM     36  C   UNL     1       2.285  16.251  20.774  0.00  0.00    +0.000 C 
ATOM     37  C   UNL     1       1.122  16.450  19.794  0.00  0.00    +0.000 C 
ATOM     38  C   UNL     1       1.173  15.532  18.573  0.00  0.00    +0.000 C 
BRANCH  36  39
ATOM     39  C   UNL     1       3.423  17.102  20.392  0.00  0.00    +0.000 C 
ATOM     40  N   UNL     1       4.328  17.752  20.074  0.00  0.00    +0.000 NA
ENDBRANCH  36  39
ENDBRANCH  32  33
ENDBRANCH   6  32
TORSDOF 8
ENDMDL
