MODEL 1
REMARK VINA RESULT:      -8.3      0.000      0.000
REMARK  Name = 
REMARK  9 active torsions:
REMARK  status: ('A' for Active; 'I' for Inactive)
REMARK    1  A    between atoms: C_1  and  O_2
REMARK    2  A    between atoms: O_2  and  C_3
REMARK    3  A    between atoms: C_7  and  C_8
REMARK    4  A    between atoms: N_11  and  C_12
REMARK    5  A    between atoms: C_16  and  C_17
REMARK    6  A    between atoms: C_17  and  C_18
REMARK    7  A    between atoms: C_17  and  S_19
REMARK    8  A    between atoms: S_19  and  C_20
REMARK    9  A    between atoms: N_24  and  C_25
REMARK                            x       y       z     vdW  Elec       q    Type
REMARK                         _______ _______ _______ _____ _____    ______ ____
ROOT
ATOM      1  C   UNL     1       0.678   9.321  20.908  0.00  0.00    +0.000 A 
ATOM      2  C   UNL     1       0.799   8.874  22.228  0.00  0.00    +0.000 A 
ATOM      3  C   UNL     1       0.107   9.533  23.244  0.00  0.00    +0.000 A 
ATOM      4  C   UNL     1      -0.719  10.619  22.942  0.00  0.00    +0.000 A 
ATOM      5  C   UNL     1      -0.881  11.057  21.618  0.00  0.00    +0.000 A 
ATOM      6  C   UNL     1      -0.164  10.401  20.606  0.00  0.00    +0.000 A 
ENDROOT
BRANCH   1  10
ATOM      7  C   UNL     1       2.496   7.232  18.801  0.00  0.00    +0.000 A 
ATOM      8  C   UNL     1       2.305   8.386  18.009  0.00  0.00    +0.000 A 
ATOM      9  N   UNL     1       1.620   9.312  18.678  0.00  0.00    +0.000 NA
ATOM     10  N   UNL     1       1.401   8.692  19.867  0.00  0.00    +0.000 N 
ATOM     11  N   UNL     1       1.937   7.453  20.000  0.00  0.00    +0.000 NA
BRANCH   7  16
ATOM     12  C   UNL     1       5.168   4.607  18.362  0.00  0.00    +0.000 A 
ATOM     13  C   UNL     1       4.447   3.602  17.714  0.00  0.00    +0.000 A 
ATOM     14  C   UNL     1       3.088   3.768  17.446  0.00  0.00    +0.000 A 
ATOM     15  C   UNL     1       2.444   4.947  17.817  0.00  0.00    +0.000 A 
ATOM     16  C   UNL     1       3.154   5.974  18.454  0.00  0.00    +0.000 A 
ATOM     17  C   UNL     1       4.519   5.785  18.730  0.00  0.00    +0.000 A 
BRANCH  12  19
ATOM     18  C   UNL     1       7.391   4.661  17.519  0.00  0.00    +0.000 C 
ATOM     19  O   UNL     1       6.492   4.330  18.571  0.00  0.00    +0.000 OA
ENDBRANCH  12  19
ENDBRANCH   7  16
ENDBRANCH   1  10
BRANCH   5  20
ATOM     20  C   UNL     1      -1.834  12.198  21.300  0.00  0.00    +0.000 C 
ATOM     21  C   UNL     1      -1.355  12.960  20.059  0.00  0.00    +0.000 C 
BRANCH  20  22
ATOM     22  S   UNL     1      -1.998  13.396  22.675  0.00  0.00    +0.000 S 
BRANCH  22  23
ATOM     23  C   UNL     1      -3.576  13.000  23.249  0.00  0.00    +0.000 A 
ATOM     24  N   UNL     1      -3.877  12.133  24.188  0.00  0.00    +0.000 NA
ATOM     25  N   UNL     1      -5.249  12.144  24.333  0.00  0.00    +0.000 NA
ATOM     26  C   UNL     1      -5.732  13.020  23.481  0.00  0.00    +0.000 A 
ATOM     27  N   UNL     1      -4.712  13.581  22.774  0.00  0.00    +0.000 N 
ATOM     28  C   UNL     1      -4.835  14.594  21.761  0.00  0.00    +0.000 C 
ENDBRANCH  22  23
ENDBRANCH  20  22
ENDBRANCH   5  20
TORSDOF 6
ENDMDL
MODEL 2
REMARK VINA RESULT:      -8.2      1.199      1.672
REMARK  Name = 
REMARK  9 active torsions:
REMARK  status: ('A' for Active; 'I' for Inactive)
REMARK    1  A    between atoms: C_1  and  O_2
REMARK    2  A    between atoms: O_2  and  C_3
REMARK    3  A    between atoms: C_7  and  C_8
REMARK    4  A    between atoms: N_11  and  C_12
REMARK    5  A    between atoms: C_16  and  C_17
REMARK    6  A    between atoms: C_17  and  C_18
REMARK    7  A    between atoms: C_17  and  S_19
REMARK    8  A    between atoms: S_19  and  C_20
REMARK    9  A    between atoms: N_24  and  C_25
REMARK                            x       y       z     vdW  Elec       q    Type
REMARK                         _______ _______ _______ _____ _____    ______ ____
ROOT
ATOM      1  C   UNL     1       0.475   9.721  20.889  0.00  0.00    +0.000 A 
ATOM      2  C   UNL     1       0.562   9.049  22.112  0.00  0.00    +0.000 A 
ATOM      3  C   UNL     1      -0.116   9.549  23.222  0.00  0.00    +0.000 A 
ATOM      4  C   UNL     1      -0.896  10.704  23.109  0.00  0.00    +0.000 A 
ATOM      5  C   UNL     1      -1.024  11.370  21.880  0.00  0.00    +0.000 A 
ATOM      6  C   UNL     1      -0.320  10.870  20.774  0.00  0.00    +0.000 A 
ENDROOT
BRANCH   1  10
ATOM      7  C   UNL     1       2.295   7.977  18.490  0.00  0.00    +0.000 A 
ATOM      8  C   UNL     1       2.044   9.212  17.854  0.00  0.00    +0.000 A 
ATOM      9  N   UNL     1       1.351  10.023  18.651  0.00  0.00    +0.000 NA
ATOM     10  N   UNL     1       1.187   9.253  19.759  0.00  0.00    +0.000 N 
ATOM     11  N   UNL     1       1.765   8.027  19.721  0.00  0.00    +0.000 NA
BRANCH   7  16
ATOM     12  C   UNL     1       3.066   4.382  17.647  0.00  0.00    +0.000 A 
ATOM     13  C   UNL     1       4.327   4.513  17.062  0.00  0.00    +0.000 A 
ATOM     14  C   UNL     1       4.911   5.771  16.917  0.00  0.00    +0.000 A 
ATOM     15  C   UNL     1       4.241   6.907  17.367  0.00  0.00    +0.000 A 
ATOM     16  C   UNL     1       2.981   6.795  17.971  0.00  0.00    +0.000 A 
ATOM     17  C   UNL     1       2.399   5.523  18.096  0.00  0.00    +0.000 A 
BRANCH  12  19
ATOM     18  C   UNL     1       2.953   2.362  18.896  0.00  0.00    +0.000 C 
ATOM     19  O   UNL     1       2.595   3.100  17.733  0.00  0.00    +0.000 OA
ENDBRANCH  12  19
ENDBRANCH   7  16
ENDBRANCH   1  10
BRANCH   5  20
ATOM     20  C   UNL     1      -1.928  12.586  21.758  0.00  0.00    +0.000 C 
ATOM     21  C   UNL     1      -1.352  13.577  20.740  0.00  0.00    +0.000 C 
BRANCH  20  22
ATOM     22  S   UNL     1      -2.154  13.469  23.346  0.00  0.00    +0.000 S 
BRANCH  22  23
ATOM     23  C   UNL     1      -3.784  13.041  23.714  0.00  0.00    +0.000 A 
ATOM     24  N   UNL     1      -4.184  12.044  24.469  0.00  0.00    +0.000 NA
ATOM     25  N   UNL     1      -5.563  12.079  24.499  0.00  0.00    +0.000 NA
ATOM     26  C   UNL     1      -5.952  13.098  23.765  0.00  0.00    +0.000 A 
ATOM     27  N   UNL     1      -4.862  13.731  23.248  0.00  0.00    +0.000 N 
ATOM     28  C   UNL     1      -4.874  14.898  22.409  0.00  0.00    +0.000 C 
ENDBRANCH  22  23
ENDBRANCH  20  22
ENDBRANCH   5  20
TORSDOF 6
ENDMDL
MODEL 3
REMARK VINA RESULT:      -8.0      4.223      9.989
REMARK  Name = 
REMARK  9 active torsions:
REMARK  status: ('A' for Active; 'I' for Inactive)
REMARK    1  A    between atoms: C_1  and  O_2
REMARK    2  A    between atoms: O_2  and  C_3
REMARK    3  A    between atoms: C_7  and  C_8
REMARK    4  A    between atoms: N_11  and  C_12
REMARK    5  A    between atoms: C_16  and  C_17
REMARK    6  A    between atoms: C_17  and  C_18
REMARK    7  A    between atoms: C_17  and  S_19
REMARK    8  A    between atoms: S_19  and  C_20
REMARK    9  A    between atoms: N_24  and  C_25
REMARK                            x       y       z     vdW  Elec       q    Type
REMARK                         _______ _______ _______ _____ _____    ______ ____
ROOT
ATOM      1  C   UNL     1       1.009   9.293  20.018  0.00  0.00    +0.000 A 
ATOM      2  C   UNL     1       0.947  10.037  18.836  0.00  0.00    +0.000 A 
ATOM      3  C   UNL     1       1.633   9.593  17.706  0.00  0.00    +0.000 A 
ATOM      4  C   UNL     1       2.361   8.400  17.748  0.00  0.00    +0.000 A 
ATOM      5  C   UNL     1       2.403   7.622  18.915  0.00  0.00    +0.000 A 
ATOM      6  C   UNL     1       1.726   8.089  20.053  0.00  0.00    +0.000 A 
ENDROOT
BRANCH   1  10
ATOM      7  C   UNL     1      -0.742  10.980  22.507  0.00  0.00    +0.000 A 
ATOM      8  C   UNL     1      -0.412   9.757  23.131  0.00  0.00    +0.000 A 
ATOM      9  N   UNL     1       0.283   8.976  22.306  0.00  0.00    +0.000 NA
ATOM     10  N   UNL     1       0.352   9.744  21.187  0.00  0.00    +0.000 N 
ATOM     11  N   UNL     1      -0.221  10.970  21.271  0.00  0.00    +0.000 NA
BRANCH   7  16
ATOM     12  C   UNL     1      -1.660  14.441  23.693  0.00  0.00    +0.000 A 
ATOM     13  C   UNL     1      -2.976  14.237  24.110  0.00  0.00    +0.000 A 
ATOM     14  C   UNL     1      -3.572  12.982  23.979  0.00  0.00    +0.000 A 
ATOM     15  C   UNL     1      -2.849  11.920  23.439  0.00  0.00    +0.000 A 
ATOM     16  C   UNL     1      -1.521  12.101  23.028  0.00  0.00    +0.000 A 
ATOM     17  C   UNL     1      -0.940  13.374  23.153  0.00  0.00    +0.000 A 
BRANCH  12  19
ATOM     18  C   UNL     1      -0.948  16.129  25.209  0.00  0.00    +0.000 C 
ATOM     19  O   UNL     1      -1.184  15.712  23.868  0.00  0.00    +0.000 OA
ENDBRANCH  12  19
ENDBRANCH   7  16
ENDBRANCH   1  10
BRANCH   5  20
ATOM     20  C   UNL     1       3.144   6.295  18.925  0.00  0.00    +0.000 C 
ATOM     21  C   UNL     1       4.272   6.309  17.885  0.00  0.00    +0.000 C 
BRANCH  20  22
ATOM     22  S   UNL     1       2.056   4.867  18.565  0.00  0.00    +0.000 S 
BRANCH  22  23
ATOM     23  C   UNL     1       2.250   3.952  20.014  0.00  0.00    +0.000 A 
ATOM     24  N   UNL     1       1.709   4.207  21.183  0.00  0.00    +0.000 NA
ATOM     25  N   UNL     1       2.121   3.216  22.050  0.00  0.00    +0.000 NA
ATOM     26  C   UNL     1       2.893   2.393  21.377  0.00  0.00    +0.000 A 
ATOM     27  N   UNL     1       3.006   2.821  20.089  0.00  0.00    +0.000 N 
ATOM     28  C   UNL     1       3.750   2.179  19.041  0.00  0.00    +0.000 C 
ENDBRANCH  22  23
ENDBRANCH  20  22
ENDBRANCH   5  20
TORSDOF 6
ENDMDL
MODEL 4
REMARK VINA RESULT:      -8.0      2.822      4.146
REMARK  Name = 
REMARK  9 active torsions:
REMARK  status: ('A' for Active; 'I' for Inactive)
REMARK    1  A    between atoms: C_1  and  O_2
REMARK    2  A    between atoms: O_2  and  C_3
REMARK    3  A    between atoms: C_7  and  C_8
REMARK    4  A    between atoms: N_11  and  C_12
REMARK    5  A    between atoms: C_16  and  C_17
REMARK    6  A    between atoms: C_17  and  C_18
REMARK    7  A    between atoms: C_17  and  S_19
REMARK    8  A    between atoms: S_19  and  C_20
REMARK    9  A    between atoms: N_24  and  C_25
REMARK                            x       y       z     vdW  Elec       q    Type
REMARK                         _______ _______ _______ _____ _____    ______ ____
ROOT
ATOM      1  C   UNL     1       0.631   9.581  20.765  0.00  0.00    +0.000 A 
ATOM      2  C   UNL     1       0.296   8.776  21.858  0.00  0.00    +0.000 A 
ATOM      3  C   UNL     1      -0.350   9.341  22.957  0.00  0.00    +0.000 A 
ATOM      4  C   UNL     1      -0.682  10.699  22.956  0.00  0.00    +0.000 A 
ATOM      5  C   UNL     1      -0.387  11.513  21.852  0.00  0.00    +0.000 A 
ATOM      6  C   UNL     1       0.283  10.939  20.760  0.00  0.00    +0.000 A 
ENDROOT
BRANCH   1  10
ATOM      7  C   UNL     1       2.365   7.661  18.438  0.00  0.00    +0.000 A 
ATOM      8  C   UNL     1       2.187   8.887  17.761  0.00  0.00    +0.000 A 
ATOM      9  N   UNL     1       1.535   9.761  18.525  0.00  0.00    +0.000 NA
ATOM     10  N   UNL     1       1.322   9.037  19.656  0.00  0.00    +0.000 N 
ATOM     11  N   UNL     1       1.831   7.781  19.663  0.00  0.00    +0.000 NA
BRANCH   7  16
ATOM     12  C   UNL     1       2.969   3.999  17.767  0.00  0.00    +0.000 A 
ATOM     13  C   UNL     1       4.215   4.048  17.139  0.00  0.00    +0.000 A 
ATOM     14  C   UNL     1       4.843   5.272  16.909  0.00  0.00    +0.000 A 
ATOM     15  C   UNL     1       4.232   6.456  17.317  0.00  0.00    +0.000 A 
ATOM     16  C   UNL     1       2.989   6.427  17.963  0.00  0.00    +0.000 A 
ATOM     17  C   UNL     1       2.362   5.187  18.174  0.00  0.00    +0.000 A 
BRANCH  12  19
ATOM     18  C   UNL     1       1.179   2.654  18.567  0.00  0.00    +0.000 C 
ATOM     19  O   UNL     1       2.452   2.743  17.936  0.00  0.00    +0.000 OA
ENDBRANCH  12  19
ENDBRANCH   7  16
ENDBRANCH   1  10
BRANCH   5  20
ATOM     20  C   UNL     1      -0.814  12.972  21.840  0.00  0.00    +0.000 C 
ATOM     21  C   UNL     1      -2.340  13.078  21.743  0.00  0.00    +0.000 C 
BRANCH  20  22
ATOM     22  S   UNL     1      -0.087  13.917  20.450  0.00  0.00    +0.000 S 
BRANCH  22  23
ATOM     23  C   UNL     1       1.495  14.218  21.069  0.00  0.00    +0.000 A 
ATOM     24  N   UNL     1       1.799  14.652  22.270  0.00  0.00    +0.000 NA
ATOM     25  N   UNL     1       3.175  14.738  22.339  0.00  0.00    +0.000 NA
ATOM     26  C   UNL     1       3.657  14.348  21.180  0.00  0.00    +0.000 A 
ATOM     27  N   UNL     1       2.632  14.015  20.347  0.00  0.00    +0.000 N 
ATOM     28  C   UNL     1       2.753  13.527  19.001  0.00  0.00    +0.000 C 
ENDBRANCH  22  23
ENDBRANCH  20  22
ENDBRANCH   5  20
TORSDOF 6
ENDMDL
MODEL 5
REMARK VINA RESULT:      -7.9      5.070     10.796
REMARK  Name = 
REMARK  9 active torsions:
REMARK  status: ('A' for Active; 'I' for Inactive)
REMARK    1  A    between atoms: C_1  and  O_2
REMARK    2  A    between atoms: O_2  and  C_3
REMARK    3  A    between atoms: C_7  and  C_8
REMARK    4  A    between atoms: N_11  and  C_12
REMARK    5  A    between atoms: C_16  and  C_17
REMARK    6  A    between atoms: C_17  and  C_18
REMARK    7  A    between atoms: C_17  and  S_19
REMARK    8  A    between atoms: S_19  and  C_20
REMARK    9  A    between atoms: N_24  and  C_25
REMARK                            x       y       z     vdW  Elec       q    Type
REMARK                         _______ _______ _______ _____ _____    ______ ____
ROOT
ATOM      1  C   UNL     1       2.853   6.344  19.331  0.00  0.00    +0.000 A 
ATOM      2  C   UNL     1       2.760   5.115  19.991  0.00  0.00    +0.000 A 
ATOM      3  C   UNL     1       3.524   4.036  19.549  0.00  0.00    +0.000 A 
ATOM      4  C   UNL     1       4.394   4.187  18.465  0.00  0.00    +0.000 A 
ATOM      5  C   UNL     1       4.528   5.424  17.815  0.00  0.00    +0.000 A 
ATOM      6  C   UNL     1       3.738   6.497  18.255  0.00  0.00    +0.000 A 
ENDROOT
BRANCH   1  10
ATOM      7  C   UNL     1       1.010   9.276  19.675  0.00  0.00    +0.000 A 
ATOM      8  C   UNL     1       0.860   8.662  20.937  0.00  0.00    +0.000 A 
ATOM      9  N   UNL     1       1.523   7.508  20.986  0.00  0.00    +0.000 NA
ATOM     10  N   UNL     1       2.058   7.442  19.738  0.00  0.00    +0.000 N 
ATOM     11  N   UNL     1       1.805   8.496  18.925  0.00  0.00    +0.000 NA
BRANCH   7  16
ATOM     12  C   UNL     1       0.555  12.938  18.895  0.00  0.00    +0.000 A 
ATOM     13  C   UNL     1      -0.714  12.928  18.316  0.00  0.00    +0.000 A 
ATOM     14  C   UNL     1      -1.409  11.729  18.154  0.00  0.00    +0.000 A 
ATOM     15  C   UNL     1      -0.839  10.531  18.581  0.00  0.00    +0.000 A 
ATOM     16  C   UNL     1       0.428  10.522  19.179  0.00  0.00    +0.000 A 
ATOM     17  C   UNL     1       1.121  11.736  19.322  0.00  0.00    +0.000 A 
BRANCH  12  19
ATOM     18  C   UNL     1       2.501  14.273  18.598  0.00  0.00    +0.000 C 
ATOM     19  O   UNL     1       1.138  14.172  18.999  0.00  0.00    +0.000 OA
ENDBRANCH  12  19
ENDBRANCH   7  16
ENDBRANCH   1  10
BRANCH   5  20
ATOM     20  C   UNL     1       5.527   5.588  16.681  0.00  0.00    +0.000 C 
ATOM     21  C   UNL     1       5.072   6.702  15.730  0.00  0.00    +0.000 C 
BRANCH  20  22
ATOM     22  S   UNL     1       5.753   4.059  15.701  0.00  0.00    +0.000 S 
BRANCH  22  23
ATOM     23  C   UNL     1       6.798   4.636  14.456  0.00  0.00    +0.000 A 
ATOM     24  N   UNL     1       7.804   5.467  14.597  0.00  0.00    +0.000 NA
ATOM     25  N   UNL     1       8.368   5.644  13.350  0.00  0.00    +0.000 NA
ATOM     26  C   UNL     1       7.687   4.912  12.497  0.00  0.00    +0.000 A 
ATOM     27  N   UNL     1       6.684   4.262  13.151  0.00  0.00    +0.000 N 
ATOM     28  C   UNL     1       5.736   3.354  12.567  0.00  0.00    +0.000 C 
ENDBRANCH  22  23
ENDBRANCH  20  22
ENDBRANCH   5  20
TORSDOF 6
ENDMDL
MODEL 6
REMARK VINA RESULT:      -7.9      2.605      3.753
REMARK  Name = 
REMARK  9 active torsions:
REMARK  status: ('A' for Active; 'I' for Inactive)
REMARK    1  A    between atoms: C_1  and  O_2
REMARK    2  A    between atoms: O_2  and  C_3
REMARK    3  A    between atoms: C_7  and  C_8
REMARK    4  A    between atoms: N_11  and  C_12
REMARK    5  A    between atoms: C_16  and  C_17
REMARK    6  A    between atoms: C_17  and  C_18
REMARK    7  A    between atoms: C_17  and  S_19
REMARK    8  A    between atoms: S_19  and  C_20
REMARK    9  A    between atoms: N_24  and  C_25
REMARK                            x       y       z     vdW  Elec       q    Type
REMARK                         _______ _______ _______ _____ _____    ______ ____
ROOT
ATOM      1  C   UNL     1       0.639   9.450  20.804  0.00  0.00    +0.000 A 
ATOM      2  C   UNL     1       0.250   8.789  21.973  0.00  0.00    +0.000 A 
ATOM      3  C   UNL     1      -0.453   9.485  22.956  0.00  0.00    +0.000 A 
ATOM      4  C   UNL     1      -0.786  10.829  22.763  0.00  0.00    +0.000 A 
ATOM      5  C   UNL     1      -0.436  11.497  21.579  0.00  0.00    +0.000 A 
ATOM      6  C   UNL     1       0.290  10.793  20.607  0.00  0.00    +0.000 A 
ENDROOT
BRANCH   1  10
ATOM      7  C   UNL     1       2.459   7.246  18.818  0.00  0.00    +0.000 A 
ATOM      8  C   UNL     1       2.384   8.403  18.013  0.00  0.00    +0.000 A 
ATOM      9  N   UNL     1       1.714   9.371  18.635  0.00  0.00    +0.000 NA
ATOM     10  N   UNL     1       1.387   8.773  19.811  0.00  0.00    +0.000 N 
ATOM     11  N   UNL     1       1.841   7.507  19.980  0.00  0.00    +0.000 NA
BRANCH   7  16
ATOM     12  C   UNL     1       5.025   4.507  18.438  0.00  0.00    +0.000 A 
ATOM     13  C   UNL     1       4.252   3.500  17.859  0.00  0.00    +0.000 A 
ATOM     14  C   UNL     1       2.893   3.702  17.619  0.00  0.00    +0.000 A 
ATOM     15  C   UNL     1       2.300   4.920  17.948  0.00  0.00    +0.000 A 
ATOM     16  C   UNL     1       3.063   5.949  18.516  0.00  0.00    +0.000 A 
ATOM     17  C   UNL     1       4.427   5.725  18.766  0.00  0.00    +0.000 A 
BRANCH  12  19
ATOM     18  C   UNL     1       7.265   4.690  17.663  0.00  0.00    +0.000 C 
ATOM     19  O   UNL     1       6.343   4.193  18.627  0.00  0.00    +0.000 OA
ENDBRANCH  12  19
ENDBRANCH   7  16
ENDBRANCH   1  10
BRANCH   5  20
ATOM     20  C   UNL     1      -0.863  12.939  21.359  0.00  0.00    +0.000 C 
ATOM     21  C   UNL     1      -2.360  13.005  21.035  0.00  0.00    +0.000 C 
BRANCH  20  22
ATOM     22  S   UNL     1       0.050  13.753  19.997  0.00  0.00    +0.000 S 
BRANCH  22  23
ATOM     23  C   UNL     1       1.488  14.229  20.824  0.00  0.00    +0.000 A 
ATOM     24  N   UNL     1       1.621  14.435  22.113  0.00  0.00    +0.000 NA
ATOM     25  N   UNL     1       2.936  14.786  22.339  0.00  0.00    +0.000 NA
ATOM     26  C   UNL     1       3.555  14.777  21.180  0.00  0.00    +0.000 A 
ATOM     27  N   UNL     1       2.679  14.434  20.196  0.00  0.00    +0.000 N 
ATOM     28  C   UNL     1       2.980  14.299  18.797  0.00  0.00    +0.000 C 
ENDBRANCH  22  23
ENDBRANCH  20  22
ENDBRANCH   5  20
TORSDOF 6
ENDMDL
MODEL 7
REMARK VINA RESULT:      -7.9      1.133      1.178
REMARK  Name = 
REMARK  9 active torsions:
REMARK  status: ('A' for Active; 'I' for Inactive)
REMARK    1  A    between atoms: C_1  and  O_2
REMARK    2  A    between atoms: O_2  and  C_3
REMARK    3  A    between atoms: C_7  and  C_8
REMARK    4  A    between atoms: N_11  and  C_12
REMARK    5  A    between atoms: C_16  and  C_17
REMARK    6  A    between atoms: C_17  and  C_18
REMARK    7  A    between atoms: C_17  and  S_19
REMARK    8  A    between atoms: S_19  and  C_20
REMARK    9  A    between atoms: N_24  and  C_25
REMARK                            x       y       z     vdW  Elec       q    Type
REMARK                         _______ _______ _______ _____ _____    ______ ____
ROOT
ATOM      1  C   UNL     1       0.655   9.503  20.745  0.00  0.00    +0.000 A 
ATOM      2  C   UNL     1       0.700   8.868  21.990  0.00  0.00    +0.000 A 
ATOM      3  C   UNL     1       0.037   9.435  23.077  0.00  0.00    +0.000 A 
ATOM      4  C   UNL     1      -0.687  10.621  22.918  0.00  0.00    +0.000 A 
ATOM      5  C   UNL     1      -0.773  11.251  21.667  0.00  0.00    +0.000 A 
ATOM      6  C   UNL     1      -0.084  10.683  20.585  0.00  0.00    +0.000 A 
ENDROOT
BRANCH   1  10
ATOM      7  C   UNL     1       2.443   7.610  18.436  0.00  0.00    +0.000 A 
ATOM      8  C   UNL     1       2.193   8.808  17.732  0.00  0.00    +0.000 A 
ATOM      9  N   UNL     1       1.511   9.668  18.486  0.00  0.00    +0.000 NA
ATOM     10  N   UNL     1       1.353   8.965  19.638  0.00  0.00    +0.000 N 
ATOM     11  N   UNL     1       1.924   7.735  19.667  0.00  0.00    +0.000 NA
BRANCH   7  16
ATOM     12  C   UNL     1       5.009   5.325  16.881  0.00  0.00    +0.000 A 
ATOM     13  C   UNL     1       4.381   4.087  17.024  0.00  0.00    +0.000 A 
ATOM     14  C   UNL     1       3.138   3.993  17.650  0.00  0.00    +0.000 A 
ATOM     15  C   UNL     1       2.511   5.142  18.129  0.00  0.00    +0.000 A 
ATOM     16  C   UNL     1       3.118   6.396  17.981  0.00  0.00    +0.000 A 
ATOM     17  C   UNL     1       4.376   6.472  17.361  0.00  0.00    +0.000 A 
BRANCH  12  19
ATOM     18  C   UNL     1       6.316   4.496  15.075  0.00  0.00    +0.000 C 
ATOM     19  O   UNL     1       6.224   5.292  16.252  0.00  0.00    +0.000 OA
ENDBRANCH  12  19
ENDBRANCH   7  16
ENDBRANCH   1  10
BRANCH   5  20
ATOM     20  C   UNL     1      -1.618  12.503  21.498  0.00  0.00    +0.000 C 
ATOM     21  C   UNL     1      -0.958  13.458  20.496  0.00  0.00    +0.000 C 
BRANCH  20  22
ATOM     22  S   UNL     1      -1.872  13.412  23.067  0.00  0.00    +0.000 S 
BRANCH  22  23
ATOM     23  C   UNL     1      -3.587  13.302  23.219  0.00  0.00    +0.000 A 
ATOM     24  N   UNL     1      -4.361  12.362  22.729  0.00  0.00    +0.000 NA
ATOM     25  N   UNL     1      -5.655  12.661  23.099  0.00  0.00    +0.000 NA
ATOM     26  C   UNL     1      -5.622  13.769  23.805  0.00  0.00    +0.000 A 
ATOM     27  N   UNL     1      -4.337  14.210  23.902  0.00  0.00    +0.000 N 
ATOM     28  C   UNL     1      -3.890  15.379  24.609  0.00  0.00    +0.000 C 
ENDBRANCH  22  23
ENDBRANCH  20  22
ENDBRANCH   5  20
TORSDOF 6
ENDMDL
MODEL 8
REMARK VINA RESULT:      -7.8      4.252     10.426
REMARK  Name = 
REMARK  9 active torsions:
REMARK  status: ('A' for Active; 'I' for Inactive)
REMARK    1  A    between atoms: C_1  and  O_2
REMARK    2  A    between atoms: O_2  and  C_3
REMARK    3  A    between atoms: C_7  and  C_8
REMARK    4  A    between atoms: N_11  and  C_12
REMARK    5  A    between atoms: C_16  and  C_17
REMARK    6  A    between atoms: C_17  and  C_18
REMARK    7  A    between atoms: C_17  and  S_19
REMARK    8  A    between atoms: S_19  and  C_20
REMARK    9  A    between atoms: N_24  and  C_25
REMARK                            x       y       z     vdW  Elec       q    Type
REMARK                         _______ _______ _______ _____ _____    ______ ____
ROOT
ATOM      1  C   UNL     1       0.967   9.254  20.179  0.00  0.00    +0.000 A 
ATOM      2  C   UNL     1       0.943   9.946  18.964  0.00  0.00    +0.000 A 
ATOM      3  C   UNL     1       1.647   9.441  17.871  0.00  0.00    +0.000 A 
ATOM      4  C   UNL     1       2.353   8.240  17.983  0.00  0.00    +0.000 A 
ATOM      5  C   UNL     1       2.356   7.514  19.184  0.00  0.00    +0.000 A 
ATOM      6  C   UNL     1       1.662   8.042  20.284  0.00  0.00    +0.000 A 
ENDROOT
BRANCH   1  10
ATOM      7  C   UNL     1      -0.809  11.079  22.551  0.00  0.00    +0.000 A 
ATOM      8  C   UNL     1      -0.515   9.880  23.236  0.00  0.00    +0.000 A 
ATOM      9  N   UNL     1       0.184   9.052  22.462  0.00  0.00    +0.000 NA
ATOM     10  N   UNL     1       0.292   9.768  21.313  0.00  0.00    +0.000 N 
ATOM     11  N   UNL     1      -0.260  11.006  21.329  0.00  0.00    +0.000 NA
BRANCH   7  16
ATOM     12  C   UNL     1      -3.677  13.189  23.797  0.00  0.00    +0.000 A 
ATOM     13  C   UNL     1      -3.094  14.457  23.791  0.00  0.00    +0.000 A 
ATOM     14  C   UNL     1      -1.762  14.620  23.409  0.00  0.00    +0.000 A 
ATOM     15  C   UNL     1      -1.008  13.515  23.021  0.00  0.00    +0.000 A 
ATOM     16  C   UNL     1      -1.580  12.236  23.005  0.00  0.00    +0.000 A 
ATOM     17  C   UNL     1      -2.918  12.085  23.407  0.00  0.00    +0.000 A 
BRANCH  12  19
ATOM     18  C   UNL     1      -5.969  13.224  23.163  0.00  0.00    +0.000 C 
ATOM     19  O   UNL     1      -4.987  13.153  24.191  0.00  0.00    +0.000 OA
ENDBRANCH  12  19
ENDBRANCH   7  16
ENDBRANCH   1  10
BRANCH   5  20
ATOM     20  C   UNL     1       3.074   6.177  19.269  0.00  0.00    +0.000 C 
ATOM     21  C   UNL     1       3.467   5.695  17.867  0.00  0.00    +0.000 C 
BRANCH  20  22
ATOM     22  S   UNL     1       2.061   4.871  20.057  0.00  0.00    +0.000 S 
BRANCH  22  23
ATOM     23  C   UNL     1       2.318   3.568  18.956  0.00  0.00    +0.000 A 
ATOM     24  N   UNL     1       1.610   3.292  17.886  0.00  0.00    +0.000 NA
ATOM     25  N   UNL     1       2.172   2.178  17.297  0.00  0.00    +0.000 NA
ATOM     26  C   UNL     1       3.205   1.820  18.028  0.00  0.00    +0.000 A 
ATOM     27  N   UNL     1       3.331   2.667  19.087  0.00  0.00    +0.000 N 
ATOM     28  C   UNL     1       4.348   2.616  20.101  0.00  0.00    +0.000 C 
ENDBRANCH  22  23
ENDBRANCH  20  22
ENDBRANCH   5  20
TORSDOF 6
ENDMDL
MODEL 9
REMARK VINA RESULT:      -7.8      2.972      3.645
REMARK  Name = 
REMARK  9 active torsions:
REMARK  status: ('A' for Active; 'I' for Inactive)
REMARK    1  A    between atoms: C_1  and  O_2
REMARK    2  A    between atoms: O_2  and  C_3
REMARK    3  A    between atoms: C_7  and  C_8
REMARK    4  A    between atoms: N_11  and  C_12
REMARK    5  A    between atoms: C_16  and  C_17
REMARK    6  A    between atoms: C_17  and  C_18
REMARK    7  A    between atoms: C_17  and  S_19
REMARK    8  A    between atoms: S_19  and  C_20
REMARK    9  A    between atoms: N_24  and  C_25
REMARK                            x       y       z     vdW  Elec       q    Type
REMARK                         _______ _______ _______ _____ _____    ______ ____
ROOT
ATOM      1  C   UNL     1       1.024   8.568  20.790  0.00  0.00    +0.000 A 
ATOM      2  C   UNL     1       0.731   8.690  22.151  0.00  0.00    +0.000 A 
ATOM      3  C   UNL     1       0.100   9.842  22.619  0.00  0.00    +0.000 A 
ATOM      4  C   UNL     1      -0.257  10.860  21.729  0.00  0.00    +0.000 A 
ATOM      5  C   UNL     1      -0.003  10.737  20.354  0.00  0.00    +0.000 A 
ATOM      6  C   UNL     1       0.651   9.582  19.897  0.00  0.00    +0.000 A 
ENDROOT
BRANCH   1  10
ATOM      7  C   UNL     1       2.965   6.210  19.121  0.00  0.00    +0.000 A 
ATOM      8  C   UNL     1       2.337   5.443  20.126  0.00  0.00    +0.000 A 
ATOM      9  N   UNL     1       1.533   6.202  20.869  0.00  0.00    +0.000 NA
ATOM     10  N   UNL     1       1.699   7.425  20.299  0.00  0.00    +0.000 N 
ATOM     11  N   UNL     1       2.524   7.473  19.225  0.00  0.00    +0.000 NA
BRANCH   7  16
ATOM     12  C   UNL     1       5.973   6.236  16.846  0.00  0.00    +0.000 A 
ATOM     13  C   UNL     1       5.778   5.050  16.137  0.00  0.00    +0.000 A 
ATOM     14  C   UNL     1       4.685   4.231  16.418  0.00  0.00    +0.000 A 
ATOM     15  C   UNL     1       3.774   4.599  17.406  0.00  0.00    +0.000 A 
ATOM     16  C   UNL     1       3.944   5.794  18.118  0.00  0.00    +0.000 A 
ATOM     17  C   UNL     1       5.057   6.601  17.833  0.00  0.00    +0.000 A 
BRANCH  12  19
ATOM     18  C   UNL     1       7.711   7.720  17.505  0.00  0.00    +0.000 C 
ATOM     19  O   UNL     1       7.080   6.956  16.483  0.00  0.00    +0.000 OA
ENDBRANCH  12  19
ENDBRANCH   7  16
ENDBRANCH   1  10
BRANCH   5  20
ATOM     20  C   UNL     1      -0.456  11.823  19.392  0.00  0.00    +0.000 C 
ATOM     21  C   UNL     1       0.308  13.124  19.662  0.00  0.00    +0.000 C 
BRANCH  20  22
ATOM     22  S   UNL     1      -2.248  12.180  19.512  0.00  0.00    +0.000 S 
BRANCH  22  23
ATOM     23  C   UNL     1      -2.781  11.631  17.965  0.00  0.00    +0.000 A 
ATOM     24  N   UNL     1      -2.030  11.167  16.994  0.00  0.00    +0.000 NA
ATOM     25  N   UNL     1      -2.868  10.834  15.950  0.00  0.00    +0.000 NA
ATOM     26  C   UNL     1      -4.098  11.104  16.325  0.00  0.00    +0.000 A 
ATOM     27  N   UNL     1      -4.090  11.612  17.589  0.00  0.00    +0.000 N 
ATOM     28  C   UNL     1      -5.240  12.011  18.353  0.00  0.00    +0.000 C 
ENDBRANCH  22  23
ENDBRANCH  20  22
ENDBRANCH   5  20
TORSDOF 6
ENDMDL
