MODEL 1
REMARK VINA RESULT:      -9.6      0.000      0.000
REMARK  Name = 
REMARK  11 active torsions:
REMARK  status: ('A' for Active; 'I' for Inactive)
REMARK    1  A    between atoms: C_1  and  C_2
REMARK    2  A    between atoms: C_2  and  C_3
REMARK    3  A    between atoms: C_2  and  C_10
REMARK    4  A    between atoms: C_3  and  C_4
REMARK    5  A    between atoms: N_8  and  C_9
REMARK    6  A    between atoms: C_14  and  N_15
REMARK    7  A    between atoms: C_20  and  C_21
REMARK    8  A    between atoms: C_21  and  N_22
REMARK    9  A    between atoms: C_25  and  C_26
REMARK   10  A    between atoms: C_25  and  O_27
REMARK   11  A    between atoms: C_30  and  C_31
REMARK                            x       y       z     vdW  Elec       q    Type
REMARK                         _______ _______ _______ _____ _____    ______ ____
ROOT
ATOM      1  N   UNL     1       1.458   7.908  20.113  0.00  0.00    +0.000 N 
ATOM      2  C   UNL     1       1.445   6.564  20.623  0.00  0.00    +0.000 C 
ATOM      3  C   UNL     1       2.161   5.766  19.607  0.00  0.00    +0.000 A 
ATOM      4  C   UNL     1       2.559   6.582  18.553  0.00  0.00    +0.000 A 
ATOM      5  C   UNL     1       3.222   6.046  17.456  0.00  0.00    +0.000 A 
ATOM      6  C   UNL     1       3.464   4.655  17.443  0.00  0.00    +0.000 A 
ATOM      7  C   UNL     1       3.076   3.856  18.549  0.00  0.00    +0.000 A 
ATOM      8  C   UNL     1       2.417   4.402  19.651  0.00  0.00    +0.000 A 
ATOM      9  C   UNL     1       2.129   7.980  18.881  0.00  0.00    +0.000 C 
ATOM     10  O   UNL     1       2.371   8.938  18.170  0.00  0.00    +0.000 OA
ENDROOT
BRANCH   1  15
ATOM     11  C   UNL     1      -0.380  11.078  20.969  0.00  0.00    +0.000 A 
ATOM     12  C   UNL     1      -0.440  10.964  22.358  0.00  0.00    +0.000 A 
ATOM     13  C   UNL     1       0.212   9.911  23.020  0.00  0.00    +0.000 A 
ATOM     14  C   UNL     1       0.896   8.915  22.308  0.00  0.00    +0.000 A 
ATOM     15  C   UNL     1       0.903   8.943  20.922  0.00  0.00    +0.000 A 
ATOM     16  C   UNL     1       0.288  10.052  20.282  0.00  0.00    +0.000 A 
BRANCH  11  18
ATOM     17  C   UNL     1      -0.496  13.647  20.705  0.00  0.00    +0.000 C 
ATOM     18  C   UNL     1      -0.924  12.271  20.175  0.00  0.00    +0.000 C 
BRANCH  18  19
ATOM     19  C   UNL     1      -2.451  12.240  19.889  0.00  0.00    +0.000 C 
BRANCH  19  20
ATOM     20  C   UNL     1      -2.774  11.693  18.543  0.00  0.00    +0.000 A 
ATOM     21  N   UNL     1      -1.908  11.315  17.625  0.00  0.00    +0.000 NA
ATOM     22  N   UNL     1      -2.593  11.082  16.459  0.00  0.00    +0.000 NA
ATOM     23  C   UNL     1      -3.867  11.269  16.706  0.00  0.00    +0.000 A 
ATOM     24  N   UNL     1      -4.034  11.543  18.027  0.00  0.00    +0.000 N 
ATOM     25  C   UNL     1      -5.287  11.612  18.728  0.00  0.00    +0.000 C 
ENDBRANCH  19  20
ENDBRANCH  18  19
ENDBRANCH  11  18
ENDBRANCH   1  15
BRANCH   8  26
ATOM     26  C   UNL     1       2.013   3.544  20.821  0.00  0.00    +0.000 C 
ATOM     27  F   UNL     1       2.450   4.021  22.024  0.00  0.00    +0.000 F 
ATOM     28  F   UNL     1       0.666   3.421  20.948  0.00  0.00    +0.000 F 
ATOM     29  F   UNL     1       2.513   2.282  20.738  0.00  0.00    +0.000 F 
ENDBRANCH   8  26
BRANCH   6  30
ATOM     30  C   UNL     1       4.172   3.953  16.283  0.00  0.00    +0.000 C 
BRANCH  30  31
ATOM     31  N   UNL     1       5.558   3.593  16.617  0.00  0.00    +0.000 NA
ATOM     32  C   UNL     1       6.523   3.863  15.549  0.00  0.00    +0.000 C 
ATOM     33  C   UNL     1       7.374   5.042  15.995  0.00  0.00    +0.000 C 
ATOM     34  C   UNL     1       7.373   4.952  17.512  0.00  0.00    +0.000 C 
ATOM     35  C   UNL     1       7.491   6.317  18.183  0.00  0.00    +0.000 C 
ATOM     36  C   UNL     1       6.047   4.248  17.847  0.00  0.00    +0.000 C 
BRANCH  34  37
ATOM     37  O   UNL     1       8.477   4.145  17.938  0.00  0.00    +0.000 OA
ATOM     38  H   UNL     1       9.298   4.624  17.731  0.00  0.00    +0.000 HD
ENDBRANCH  34  37
ENDBRANCH  30  31
ENDBRANCH   6  30
TORSDOF 8
ENDMDL
MODEL 2
REMARK VINA RESULT:      -9.6      3.159      9.558
REMARK  Name = 
REMARK  11 active torsions:
REMARK  status: ('A' for Active; 'I' for Inactive)
REMARK    1  A    between atoms: C_1  and  C_2
REMARK    2  A    between atoms: C_2  and  C_3
REMARK    3  A    between atoms: C_2  and  C_10
REMARK    4  A    between atoms: C_3  and  C_4
REMARK    5  A    between atoms: N_8  and  C_9
REMARK    6  A    between atoms: C_14  and  N_15
REMARK    7  A    between atoms: C_20  and  C_21
REMARK    8  A    between atoms: C_21  and  N_22
REMARK    9  A    between atoms: C_25  and  C_26
REMARK   10  A    between atoms: C_25  and  O_27
REMARK   11  A    between atoms: C_30  and  C_31
REMARK                            x       y       z     vdW  Elec       q    Type
REMARK                         _______ _______ _______ _____ _____    ______ ____
ROOT
ATOM      1  N   UNL     1       2.070   7.756  19.360  0.00  0.00    +0.000 N 
ATOM      2  C   UNL     1       1.433   8.082  20.606  0.00  0.00    +0.000 C 
ATOM      3  C   UNL     1       0.795   9.394  20.373  0.00  0.00    +0.000 A 
ATOM      4  C   UNL     1       1.052   9.825  19.076  0.00  0.00    +0.000 A 
ATOM      5  C   UNL     1       0.582  11.056  18.634  0.00  0.00    +0.000 A 
ATOM      6  C   UNL     1      -0.147  11.852  19.544  0.00  0.00    +0.000 A 
ATOM      7  C   UNL     1      -0.421  11.368  20.850  0.00  0.00    +0.000 A 
ATOM      8  C   UNL     1       0.047  10.128  21.285  0.00  0.00    +0.000 A 
ATOM      9  C   UNL     1       1.859   8.759  18.399  0.00  0.00    +0.000 C 
ATOM     10  O   UNL     1       2.208   8.821  17.235  0.00  0.00    +0.000 OA
ENDROOT
BRANCH   1  15
ATOM     11  C   UNL     1       4.358   5.104  17.982  0.00  0.00    +0.000 A 
ATOM     12  C   UNL     1       4.240   4.132  18.976  0.00  0.00    +0.000 A 
ATOM     13  C   UNL     1       3.334   4.296  20.036  0.00  0.00    +0.000 A 
ATOM     14  C   UNL     1       2.560   5.460  20.160  0.00  0.00    +0.000 A 
ATOM     15  C   UNL     1       2.714   6.488  19.243  0.00  0.00    +0.000 A 
ATOM     16  C   UNL     1       3.592   6.269  18.147  0.00  0.00    +0.000 A 
BRANCH  11  18
ATOM     17  C   UNL     1       4.811   3.749  15.827  0.00  0.00    +0.000 C 
ATOM     18  C   UNL     1       5.200   4.944  16.711  0.00  0.00    +0.000 C 
BRANCH  18  19
ATOM     19  C   UNL     1       6.739   4.999  16.920  0.00  0.00    +0.000 C 
BRANCH  19  20
ATOM     20  C   UNL     1       7.205   6.320  17.424  0.00  0.00    +0.000 A 
ATOM     21  N   UNL     1       7.108   7.474  16.794  0.00  0.00    +0.000 NA
ATOM     22  N   UNL     1       7.843   8.402  17.486  0.00  0.00    +0.000 NA
ATOM     23  C   UNL     1       8.327   7.809  18.551  0.00  0.00    +0.000 A 
ATOM     24  N   UNL     1       7.858   6.534  18.608  0.00  0.00    +0.000 N 
ATOM     25  C   UNL     1       7.993   5.629  19.716  0.00  0.00    +0.000 C 
ENDBRANCH  19  20
ENDBRANCH  18  19
ENDBRANCH  11  18
ENDBRANCH   1  15
BRANCH   8  26
ATOM     26  C   UNL     1      -0.253   9.623  22.671  0.00  0.00    +0.000 C 
ATOM     27  F   UNL     1      -0.967   8.459  22.686  0.00  0.00    +0.000 F 
ATOM     28  F   UNL     1       0.867   9.370  23.397  0.00  0.00    +0.000 F 
ATOM     29  F   UNL     1      -0.995  10.504  23.396  0.00  0.00    +0.000 F 
ENDBRANCH   8  26
BRANCH   6  30
ATOM     30  C   UNL     1      -0.702  13.229  19.175  0.00  0.00    +0.000 C 
BRANCH  30  31
ATOM     31  N   UNL     1       0.012  14.315  19.861  0.00  0.00    +0.000 NA
ATOM     32  C   UNL     1       1.403  14.486  19.434  0.00  0.00    +0.000 C 
ATOM     33  C   UNL     1       1.476  15.776  18.632  0.00  0.00    +0.000 C 
ATOM     34  C   UNL     1       0.364  16.637  19.207  0.00  0.00    +0.000 C 
ATOM     35  C   UNL     1      -0.237  17.588  18.176  0.00  0.00    +0.000 C 
ATOM     36  C   UNL     1      -0.663  15.622  19.736  0.00  0.00    +0.000 C 
BRANCH  34  37
ATOM     37  O   UNL     1       0.883  17.418  20.289  0.00  0.00    +0.000 OA
ATOM     38  H   UNL     1       1.640  17.930  19.955  0.00  0.00    +0.000 HD
ENDBRANCH  34  37
ENDBRANCH  30  31
ENDBRANCH   6  30
TORSDOF 8
ENDMDL
MODEL 3
REMARK VINA RESULT:      -9.5      3.139      9.581
REMARK  Name = 
REMARK  11 active torsions:
REMARK  status: ('A' for Active; 'I' for Inactive)
REMARK    1  A    between atoms: C_1  and  C_2
REMARK    2  A    between atoms: C_2  and  C_3
REMARK    3  A    between atoms: C_2  and  C_10
REMARK    4  A    between atoms: C_3  and  C_4
REMARK    5  A    between atoms: N_8  and  C_9
REMARK    6  A    between atoms: C_14  and  N_15
REMARK    7  A    between atoms: C_20  and  C_21
REMARK    8  A    between atoms: C_21  and  N_22
REMARK    9  A    between atoms: C_25  and  C_26
REMARK   10  A    between atoms: C_25  and  O_27
REMARK   11  A    between atoms: C_30  and  C_31
REMARK                            x       y       z     vdW  Elec       q    Type
REMARK                         _______ _______ _______ _____ _____    ______ ____
ROOT
ATOM      1  N   UNL     1       2.009   7.878  19.316  0.00  0.00    +0.000 N 
ATOM      2  C   UNL     1       1.397   8.181  20.580  0.00  0.00    +0.000 C 
ATOM      3  C   UNL     1       0.791   9.515  20.398  0.00  0.00    +0.000 A 
ATOM      4  C   UNL     1       1.043   9.982  19.112  0.00  0.00    +0.000 A 
ATOM      5  C   UNL     1       0.599  11.238  18.717  0.00  0.00    +0.000 A 
ATOM      6  C   UNL     1      -0.097  12.023  19.662  0.00  0.00    +0.000 A 
ATOM      7  C   UNL     1      -0.367  11.504  20.955  0.00  0.00    +0.000 A 
ATOM      8  C   UNL     1       0.074  10.239  21.343  0.00  0.00    +0.000 A 
ATOM      9  C   UNL     1       1.812   8.917  18.391  0.00  0.00    +0.000 C 
ATOM     10  O   UNL     1       2.148   9.008  17.225  0.00  0.00    +0.000 OA
ENDROOT
BRANCH   1  15
ATOM     11  C   UNL     1       4.123   5.182  17.759  0.00  0.00    +0.000 A 
ATOM     12  C   UNL     1       4.073   4.215  18.763  0.00  0.00    +0.000 A 
ATOM     13  C   UNL     1       3.263   4.398  19.896  0.00  0.00    +0.000 A 
ATOM     14  C   UNL     1       2.524   5.576  20.080  0.00  0.00    +0.000 A 
ATOM     15  C   UNL     1       2.618   6.599  19.149  0.00  0.00    +0.000 A 
ATOM     16  C   UNL     1       3.395   6.361  17.984  0.00  0.00    +0.000 A 
BRANCH  11  18
ATOM     17  C   UNL     1       5.091   3.543  16.009  0.00  0.00    +0.000 C 
ATOM     18  C   UNL     1       4.850   5.003  16.421  0.00  0.00    +0.000 C 
BRANCH  18  19
ATOM     19  C   UNL     1       6.143   5.847  16.248  0.00  0.00    +0.000 C 
BRANCH  19  20
ATOM     20  C   UNL     1       7.059   5.745  17.418  0.00  0.00    +0.000 A 
ATOM     21  N   UNL     1       7.438   4.635  18.018  0.00  0.00    +0.000 NA
ATOM     22  N   UNL     1       8.097   4.976  19.172  0.00  0.00    +0.000 NA
ATOM     23  C   UNL     1       8.153   6.285  19.222  0.00  0.00    +0.000 A 
ATOM     24  N   UNL     1       7.614   6.803  18.086  0.00  0.00    +0.000 N 
ATOM     25  C   UNL     1       7.668   8.178  17.672  0.00  0.00    +0.000 C 
ENDBRANCH  19  20
ENDBRANCH  18  19
ENDBRANCH  11  18
ENDBRANCH   1  15
BRANCH   8  26
ATOM     26  C   UNL     1      -0.221   9.698  22.717  0.00  0.00    +0.000 C 
ATOM     27  F   UNL     1      -0.937   8.535  22.703  0.00  0.00    +0.000 F 
ATOM     28  F   UNL     1       0.902   9.424  23.431  0.00  0.00    +0.000 F 
ATOM     29  F   UNL     1      -0.959  10.559  23.467  0.00  0.00    +0.000 F 
ENDBRANCH   8  26
BRANCH   6  30
ATOM     30  C   UNL     1      -0.619  13.425  19.344  0.00  0.00    +0.000 C 
BRANCH  30  31
ATOM     31  N   UNL     1       0.204  14.475  19.961  0.00  0.00    +0.000 NA
ATOM     32  C   UNL     1       1.619  14.429  19.584  0.00  0.00    +0.000 C 
ATOM     33  C   UNL     1       1.885  15.617  18.673  0.00  0.00    +0.000 C 
ATOM     34  C   UNL     1       0.873  16.662  19.114  0.00  0.00    +0.000 C 
ATOM     35  C   UNL     1       0.434  17.576  17.975  0.00  0.00    +0.000 C 
ATOM     36  C   UNL     1      -0.294  15.838  19.686  0.00  0.00    +0.000 C 
BRANCH  34  37
ATOM     37  O   UNL     1       1.450  17.472  20.144  0.00  0.00    +0.000 OA
ATOM     38  H   UNL     1       1.517  16.933  20.950  0.00  0.00    +0.000 HD
ENDBRANCH  34  37
ENDBRANCH  30  31
ENDBRANCH   6  30
TORSDOF 8
ENDMDL
MODEL 4
REMARK VINA RESULT:      -9.4      3.157      9.151
REMARK  Name = 
REMARK  11 active torsions:
REMARK  status: ('A' for Active; 'I' for Inactive)
REMARK    1  A    between atoms: C_1  and  C_2
REMARK    2  A    between atoms: C_2  and  C_3
REMARK    3  A    between atoms: C_2  and  C_10
REMARK    4  A    between atoms: C_3  and  C_4
REMARK    5  A    between atoms: N_8  and  C_9
REMARK    6  A    between atoms: C_14  and  N_15
REMARK    7  A    between atoms: C_20  and  C_21
REMARK    8  A    between atoms: C_21  and  N_22
REMARK    9  A    between atoms: C_25  and  C_26
REMARK   10  A    between atoms: C_25  and  O_27
REMARK   11  A    between atoms: C_30  and  C_31
REMARK                            x       y       z     vdW  Elec       q    Type
REMARK                         _______ _______ _______ _____ _____    ______ ____
ROOT
ATOM      1  N   UNL     1       2.060   7.909  19.253  0.00  0.00    +0.000 N 
ATOM      2  C   UNL     1       1.406   8.165  20.507  0.00  0.00    +0.000 C 
ATOM      3  C   UNL     1       0.821   9.513  20.362  0.00  0.00    +0.000 A 
ATOM      4  C   UNL     1       1.124  10.032  19.107  0.00  0.00    +0.000 A 
ATOM      5  C   UNL     1       0.709  11.310  18.751  0.00  0.00    +0.000 A 
ATOM      6  C   UNL     1      -0.012  12.061  19.704  0.00  0.00    +0.000 A 
ATOM      7  C   UNL     1      -0.334  11.491  20.963  0.00  0.00    +0.000 A 
ATOM      8  C   UNL     1       0.079  10.204  21.311  0.00  0.00    +0.000 A 
ATOM      9  C   UNL     1       1.908   8.989  18.368  0.00  0.00    +0.000 C 
ATOM     10  O   UNL     1       2.286   9.126  17.219  0.00  0.00    +0.000 OA
ENDROOT
BRANCH   1  15
ATOM     11  C   UNL     1       4.165   5.244  17.631  0.00  0.00    +0.000 A 
ATOM     12  C   UNL     1       4.100   4.248  18.605  0.00  0.00    +0.000 A 
ATOM     13  C   UNL     1       3.283   4.404  19.737  0.00  0.00    +0.000 A 
ATOM     14  C   UNL     1       2.552   5.581  19.951  0.00  0.00    +0.000 A 
ATOM     15  C   UNL     1       2.660   6.631  19.052  0.00  0.00    +0.000 A 
ATOM     16  C   UNL     1       3.445   6.422  17.886  0.00  0.00    +0.000 A 
BRANCH  11  18
ATOM     17  C   UNL     1       5.116   3.652  15.830  0.00  0.00    +0.000 C 
ATOM     18  C   UNL     1       4.901   5.100  16.294  0.00  0.00    +0.000 C 
BRANCH  18  19
ATOM     19  C   UNL     1       6.213   5.923  16.164  0.00  0.00    +0.000 C 
BRANCH  19  20
ATOM     20  C   UNL     1       7.093   5.796  17.358  0.00  0.00    +0.000 A 
ATOM     21  N   UNL     1       7.453   4.674  17.948  0.00  0.00    +0.000 NA
ATOM     22  N   UNL     1       8.078   4.991  19.127  0.00  0.00    +0.000 NA
ATOM     23  C   UNL     1       8.135   6.299  19.205  0.00  0.00    +0.000 A 
ATOM     24  N   UNL     1       7.631   6.839  18.064  0.00  0.00    +0.000 N 
ATOM     25  C   UNL     1       7.698   8.222  17.678  0.00  0.00    +0.000 C 
ENDBRANCH  19  20
ENDBRANCH  18  19
ENDBRANCH  11  18
ENDBRANCH   1  15
BRANCH   8  26
ATOM     26  C   UNL     1      -0.272   9.607  22.648  0.00  0.00    +0.000 C 
ATOM     27  F   UNL     1       0.818   9.309  23.416  0.00  0.00    +0.000 F 
ATOM     28  F   UNL     1      -1.038  10.429  23.411  0.00  0.00    +0.000 F 
ATOM     29  F   UNL     1      -0.954   8.436  22.532  0.00  0.00    +0.000 F 
ENDBRANCH   8  26
BRANCH   6  30
ATOM     30  C   UNL     1      -0.507  13.482  19.430  0.00  0.00    +0.000 C 
BRANCH  30  31
ATOM     31  N   UNL     1       0.453  14.499  19.882  0.00  0.00    +0.000 NA
ATOM     32  C   UNL     1       1.256  14.097  21.039  0.00  0.00    +0.000 C 
ATOM     33  C   UNL     1       2.676  13.865  20.546  0.00  0.00    +0.000 C 
ATOM     34  C   UNL     1       2.814  14.793  19.351  0.00  0.00    +0.000 C 
ATOM     35  C   UNL     1       3.775  14.255  18.295  0.00  0.00    +0.000 C 
ATOM     36  C   UNL     1       1.379  14.936  18.817  0.00  0.00    +0.000 C 
BRANCH  34  37
ATOM     37  O   UNL     1       3.301  16.065  19.794  0.00  0.00    +0.000 OA
ATOM     38  H   UNL     1       3.239  16.090  20.764  0.00  0.00    +0.000 HD
ENDBRANCH  34  37
ENDBRANCH  30  31
ENDBRANCH   6  30
TORSDOF 8
ENDMDL
MODEL 5
REMARK VINA RESULT:      -9.4      3.114      9.374
REMARK  Name = 
REMARK  11 active torsions:
REMARK  status: ('A' for Active; 'I' for Inactive)
REMARK    1  A    between atoms: C_1  and  C_2
REMARK    2  A    between atoms: C_2  and  C_3
REMARK    3  A    between atoms: C_2  and  C_10
REMARK    4  A    between atoms: C_3  and  C_4
REMARK    5  A    between atoms: N_8  and  C_9
REMARK    6  A    between atoms: C_14  and  N_15
REMARK    7  A    between atoms: C_20  and  C_21
REMARK    8  A    between atoms: C_21  and  N_22
REMARK    9  A    between atoms: C_25  and  C_26
REMARK   10  A    between atoms: C_25  and  O_27
REMARK   11  A    between atoms: C_30  and  C_31
REMARK                            x       y       z     vdW  Elec       q    Type
REMARK                         _______ _______ _______ _____ _____    ______ ____
ROOT
ATOM      1  N   UNL     1       2.057   7.838  19.346  0.00  0.00    +0.000 N 
ATOM      2  C   UNL     1       1.422   8.142  20.599  0.00  0.00    +0.000 C 
ATOM      3  C   UNL     1       0.795   9.464  20.396  0.00  0.00    +0.000 A 
ATOM      4  C   UNL     1       1.058   9.923  19.109  0.00  0.00    +0.000 A 
ATOM      5  C   UNL     1       0.599  11.168  18.695  0.00  0.00    +0.000 A 
ATOM      6  C   UNL     1      -0.124  11.949  19.623  0.00  0.00    +0.000 A 
ATOM      7  C   UNL     1      -0.403  11.438  20.917  0.00  0.00    +0.000 A 
ATOM      8  C   UNL     1       0.053  10.185  21.323  0.00  0.00    +0.000 A 
ATOM      9  C   UNL     1       1.856   8.865  18.409  0.00  0.00    +0.000 C 
ATOM     10  O   UNL     1       2.206   8.950  17.247  0.00  0.00    +0.000 OA
ENDROOT
BRANCH   1  15
ATOM     11  C   UNL     1       4.333   5.203  17.920  0.00  0.00    +0.000 A 
ATOM     12  C   UNL     1       4.195   4.205  18.884  0.00  0.00    +0.000 A 
ATOM     13  C   UNL     1       3.278   4.349  19.939  0.00  0.00    +0.000 A 
ATOM     14  C   UNL     1       2.515   5.516  20.087  0.00  0.00    +0.000 A 
ATOM     15  C   UNL     1       2.689   6.568  19.201  0.00  0.00    +0.000 A 
ATOM     16  C   UNL     1       3.578   6.371  18.109  0.00  0.00    +0.000 A 
BRANCH  11  18
ATOM     17  C   UNL     1       4.797   3.904  15.733  0.00  0.00    +0.000 C 
ATOM     18  C   UNL     1       5.187   5.069  16.654  0.00  0.00    +0.000 C 
BRANCH  18  19
ATOM     19  C   UNL     1       6.724   5.103  16.881  0.00  0.00    +0.000 C 
BRANCH  19  20
ATOM     20  C   UNL     1       7.199   6.409  17.416  0.00  0.00    +0.000 A 
ATOM     21  N   UNL     1       7.108   7.578  16.815  0.00  0.00    +0.000 NA
ATOM     22  N   UNL     1       7.850   8.485  17.530  0.00  0.00    +0.000 NA
ATOM     23  C   UNL     1       8.331   7.862  18.578  0.00  0.00    +0.000 A 
ATOM     24  N   UNL     1       7.854   6.590  18.605  0.00  0.00    +0.000 N 
ATOM     25  C   UNL     1       7.986   5.656  19.690  0.00  0.00    +0.000 C 
ENDBRANCH  19  20
ENDBRANCH  18  19
ENDBRANCH  11  18
ENDBRANCH   1  15
BRANCH   8  26
ATOM     26  C   UNL     1      -0.252   9.651  22.698  0.00  0.00    +0.000 C 
ATOM     27  F   UNL     1      -0.997  10.503  23.461  0.00  0.00    +0.000 F 
ATOM     28  F   UNL     1      -0.949   8.485  22.671  0.00  0.00    +0.000 F 
ATOM     29  F   UNL     1       0.873   9.415  23.426  0.00  0.00    +0.000 F 
ENDBRANCH   8  26
BRANCH   6  30
ATOM     30  C   UNL     1      -0.665  13.339  19.285  0.00  0.00    +0.000 C 
BRANCH  30  31
ATOM     31  N   UNL     1       0.413  14.312  19.053  0.00  0.00    +0.000 NA
ATOM     32  C   UNL     1      -0.047  15.696  18.907  0.00  0.00    +0.000 C 
ATOM     33  C   UNL     1       0.380  16.449  20.157  0.00  0.00    +0.000 C 
ATOM     34  C   UNL     1       1.633  15.725  20.622  0.00  0.00    +0.000 C 
ATOM     35  C   UNL     1       1.816  15.775  22.135  0.00  0.00    +0.000 C 
ATOM     36  C   UNL     1       1.451  14.288  20.103  0.00  0.00    +0.000 C 
BRANCH  34  37
ATOM     37  O   UNL     1       2.780  16.324  20.010  0.00  0.00    +0.000 OA
ATOM     38  H   UNL     1       2.470  17.026  19.411  0.00  0.00    +0.000 HD
ENDBRANCH  34  37
ENDBRANCH  30  31
ENDBRANCH   6  30
TORSDOF 8
ENDMDL
MODEL 6
REMARK VINA RESULT:      -9.4      3.239      9.115
REMARK  Name = 
REMARK  11 active torsions:
REMARK  status: ('A' for Active; 'I' for Inactive)
REMARK    1  A    between atoms: C_1  and  C_2
REMARK    2  A    between atoms: C_2  and  C_3
REMARK    3  A    between atoms: C_2  and  C_10
REMARK    4  A    between atoms: C_3  and  C_4
REMARK    5  A    between atoms: N_8  and  C_9
REMARK    6  A    between atoms: C_14  and  N_15
REMARK    7  A    between atoms: C_20  and  C_21
REMARK    8  A    between atoms: C_21  and  N_22
REMARK    9  A    between atoms: C_25  and  C_26
REMARK   10  A    between atoms: C_25  and  O_27
REMARK   11  A    between atoms: C_30  and  C_31
REMARK                            x       y       z     vdW  Elec       q    Type
REMARK                         _______ _______ _______ _____ _____    ______ ____
ROOT
ATOM      1  N   UNL     1       2.030   8.033  19.234  0.00  0.00    +0.000 N 
ATOM      2  C   UNL     1       1.411   8.251  20.513  0.00  0.00    +0.000 C 
ATOM      3  C   UNL     1       0.811   9.597  20.419  0.00  0.00    +0.000 A 
ATOM      4  C   UNL     1       1.072  10.149  19.169  0.00  0.00    +0.000 A 
ATOM      5  C   UNL     1       0.636  11.432  18.858  0.00  0.00    +0.000 A 
ATOM      6  C   UNL     1      -0.064  12.153  19.849  0.00  0.00    +0.000 A 
ATOM      7  C   UNL     1      -0.343  11.548  21.103  0.00  0.00    +0.000 A 
ATOM      8  C   UNL     1       0.091  10.258  21.406  0.00  0.00    +0.000 A 
ATOM      9  C   UNL     1       1.842   9.133  18.381  0.00  0.00    +0.000 C 
ATOM     10  O   UNL     1       2.185   9.301  17.226  0.00  0.00    +0.000 OA
ENDROOT
BRANCH   1  15
ATOM     11  C   UNL     1       4.320   5.495  17.661  0.00  0.00    +0.000 A 
ATOM     12  C   UNL     1       4.091   4.401  18.495  0.00  0.00    +0.000 A 
ATOM     13  C   UNL     1       3.113   4.458  19.501  0.00  0.00    +0.000 A 
ATOM     14  C   UNL     1       2.374   5.628  19.733  0.00  0.00    +0.000 A 
ATOM     15  C   UNL     1       2.635   6.765  18.985  0.00  0.00    +0.000 A 
ATOM     16  C   UNL     1       3.587   6.660  17.935  0.00  0.00    +0.000 A 
BRANCH  11  18
ATOM     17  C   UNL     1       4.872   4.453  15.360  0.00  0.00    +0.000 C 
ATOM     18  C   UNL     1       5.251   5.474  16.443  0.00  0.00    +0.000 C 
BRANCH  18  19
ATOM     19  C   UNL     1       6.769   5.398  16.767  0.00  0.00    +0.000 C 
BRANCH  19  20
ATOM     20  C   UNL     1       7.283   6.636  17.414  0.00  0.00    +0.000 A 
ATOM     21  N   UNL     1       7.256   7.852  16.906  0.00  0.00    +0.000 NA
ATOM     22  N   UNL     1       8.015   8.668  17.706  0.00  0.00    +0.000 NA
ATOM     23  C   UNL     1       8.444   7.945  18.713  0.00  0.00    +0.000 A 
ATOM     24  N   UNL     1       7.914   6.696  18.628  0.00  0.00    +0.000 N 
ATOM     25  C   UNL     1       7.980   5.676  19.638  0.00  0.00    +0.000 C 
ENDBRANCH  19  20
ENDBRANCH  18  19
ENDBRANCH  11  18
ENDBRANCH   1  15
BRANCH   8  26
ATOM     26  C   UNL     1      -0.214   9.625  22.738  0.00  0.00    +0.000 C 
ATOM     27  F   UNL     1       0.900   9.316  23.464  0.00  0.00    +0.000 F 
ATOM     28  F   UNL     1      -0.963  10.422  23.545  0.00  0.00    +0.000 F 
ATOM     29  F   UNL     1      -0.892   8.452  22.613  0.00  0.00    +0.000 F 
ENDBRANCH   8  26
BRANCH   6  30
ATOM     30  C   UNL     1      -0.579  13.575  19.625  0.00  0.00    +0.000 C 
BRANCH  30  31
ATOM     31  N   UNL     1       0.404  14.590  20.030  0.00  0.00    +0.000 NA
ATOM     32  C   UNL     1       1.233  14.203  21.174  0.00  0.00    +0.000 C 
ATOM     33  C   UNL     1       2.636  13.943  20.650  0.00  0.00    +0.000 C 
ATOM     34  C   UNL     1       2.754  14.844  19.432  0.00  0.00    +0.000 C 
ATOM     35  C   UNL     1       3.680  14.272  18.363  0.00  0.00    +0.000 C 
ATOM     36  C   UNL     1       1.307  14.993  18.933  0.00  0.00    +0.000 C 
BRANCH  34  37
ATOM     37  O   UNL     1       3.267  16.119  19.834  0.00  0.00    +0.000 OA
ATOM     38  H   UNL     1       4.192  16.178  19.539  0.00  0.00    +0.000 HD
ENDBRANCH  34  37
ENDBRANCH  30  31
ENDBRANCH   6  30
TORSDOF 8
ENDMDL
MODEL 7
REMARK VINA RESULT:      -9.4      1.793      2.530
REMARK  Name = 
REMARK  11 active torsions:
REMARK  status: ('A' for Active; 'I' for Inactive)
REMARK    1  A    between atoms: C_1  and  C_2
REMARK    2  A    between atoms: C_2  and  C_3
REMARK    3  A    between atoms: C_2  and  C_10
REMARK    4  A    between atoms: C_3  and  C_4
REMARK    5  A    between atoms: N_8  and  C_9
REMARK    6  A    between atoms: C_14  and  N_15
REMARK    7  A    between atoms: C_20  and  C_21
REMARK    8  A    between atoms: C_21  and  N_22
REMARK    9  A    between atoms: C_25  and  C_26
REMARK   10  A    between atoms: C_25  and  O_27
REMARK   11  A    between atoms: C_30  and  C_31
REMARK                            x       y       z     vdW  Elec       q    Type
REMARK                         _______ _______ _______ _____ _____    ______ ____
ROOT
ATOM      1  N   UNL     1       1.384   7.975  20.196  0.00  0.00    +0.000 N 
ATOM      2  C   UNL     1       1.409   6.631  20.704  0.00  0.00    +0.000 C 
ATOM      3  C   UNL     1       2.129   5.851  19.677  0.00  0.00    +0.000 A 
ATOM      4  C   UNL     1       2.492   6.677  18.618  0.00  0.00    +0.000 A 
ATOM      5  C   UNL     1       3.151   6.158  17.510  0.00  0.00    +0.000 A 
ATOM      6  C   UNL     1       3.424   4.773  17.491  0.00  0.00    +0.000 A 
ATOM      7  C   UNL     1       3.071   3.963  18.602  0.00  0.00    +0.000 A 
ATOM      8  C   UNL     1       2.416   4.492  19.714  0.00  0.00    +0.000 A 
ATOM      9  C   UNL     1       2.035   8.065  18.955  0.00  0.00    +0.000 C 
ATOM     10  O   UNL     1       2.244   9.029  18.243  0.00  0.00    +0.000 OA
ENDROOT
BRANCH   1  15
ATOM     11  C   UNL     1      -0.434  11.149  21.080  0.00  0.00    +0.000 A 
ATOM     12  C   UNL     1      -0.543  10.997  22.462  0.00  0.00    +0.000 A 
ATOM     13  C   UNL     1       0.069   9.916  23.116  0.00  0.00    +0.000 A 
ATOM     14  C   UNL     1       0.763   8.929  22.400  0.00  0.00    +0.000 A 
ATOM     15  C   UNL     1       0.817   8.996  21.016  0.00  0.00    +0.000 A 
ATOM     16  C   UNL     1       0.241  10.132  20.387  0.00  0.00    +0.000 A 
BRANCH  11  18
ATOM     17  C   UNL     1      -2.450  12.599  20.361  0.00  0.00    +0.000 C 
ATOM     18  C   UNL     1      -0.932  12.372  20.303  0.00  0.00    +0.000 C 
BRANCH  18  19
ATOM     19  C   UNL     1      -0.411  12.491  18.843  0.00  0.00    +0.000 C 
BRANCH  19  20
ATOM     20  C   UNL     1       0.843  13.286  18.742  0.00  0.00    +0.000 A 
ATOM     21  N   UNL     1       2.062  12.806  18.595  0.00  0.00    +0.000 NA
ATOM     22  N   UNL     1       2.951  13.838  18.764  0.00  0.00    +0.000 NA
ATOM     23  C   UNL     1       2.255  14.932  18.956  0.00  0.00    +0.000 A 
ATOM     24  N   UNL     1       0.930  14.649  18.837  0.00  0.00    +0.000 N 
ATOM     25  C   UNL     1      -0.140  15.607  18.780  0.00  0.00    +0.000 C 
ENDBRANCH  19  20
ENDBRANCH  18  19
ENDBRANCH  11  18
ENDBRANCH   1  15
BRANCH   8  26
ATOM     26  C   UNL     1       2.049   3.624  20.889  0.00  0.00    +0.000 C 
ATOM     27  F   UNL     1       0.703   3.442  21.034  0.00  0.00    +0.000 F 
ATOM     28  F   UNL     1       2.577   2.375  20.811  0.00  0.00    +0.000 F 
ATOM     29  F   UNL     1       2.465   4.149  22.073  0.00  0.00    +0.000 F 
ENDBRANCH   8  26
BRANCH   6  30
ATOM     30  C   UNL     1       4.131   4.089  16.320  0.00  0.00    +0.000 C 
BRANCH  30  31
ATOM     31  N   UNL     1       5.498   3.673  16.665  0.00  0.00    +0.000 NA
ATOM     32  C   UNL     1       6.474   3.859  15.588  0.00  0.00    +0.000 C 
ATOM     33  C   UNL     1       7.383   5.009  15.992  0.00  0.00    +0.000 C 
ATOM     34  C   UNL     1       7.381   4.971  17.511  0.00  0.00    +0.000 C 
ATOM     35  C   UNL     1       7.568   6.351  18.135  0.00  0.00    +0.000 C 
ATOM     36  C   UNL     1       6.022   4.346  17.871  0.00  0.00    +0.000 C 
BRANCH  34  37
ATOM     37  O   UNL     1       8.444   4.126  17.964  0.00  0.00    +0.000 OA
ATOM     38  H   UNL     1       8.069   3.251  18.165  0.00  0.00    +0.000 HD
ENDBRANCH  34  37
ENDBRANCH  30  31
ENDBRANCH   6  30
TORSDOF 8
ENDMDL
MODEL 8
REMARK VINA RESULT:      -9.3      1.574      2.150
REMARK  Name = 
REMARK  11 active torsions:
REMARK  status: ('A' for Active; 'I' for Inactive)
REMARK    1  A    between atoms: C_1  and  C_2
REMARK    2  A    between atoms: C_2  and  C_3
REMARK    3  A    between atoms: C_2  and  C_10
REMARK    4  A    between atoms: C_3  and  C_4
REMARK    5  A    between atoms: N_8  and  C_9
REMARK    6  A    between atoms: C_14  and  N_15
REMARK    7  A    between atoms: C_20  and  C_21
REMARK    8  A    between atoms: C_21  and  N_22
REMARK    9  A    between atoms: C_25  and  C_26
REMARK   10  A    between atoms: C_25  and  O_27
REMARK   11  A    between atoms: C_30  and  C_31
REMARK                            x       y       z     vdW  Elec       q    Type
REMARK                         _______ _______ _______ _____ _____    ______ ____
ROOT
ATOM      1  N   UNL     1       1.379   7.872  20.280  0.00  0.00    +0.000 N 
ATOM      2  C   UNL     1       1.388   6.512  20.745  0.00  0.00    +0.000 C 
ATOM      3  C   UNL     1       2.114   5.760  19.701  0.00  0.00    +0.000 A 
ATOM      4  C   UNL     1       2.495   6.618  18.674  0.00  0.00    +0.000 A 
ATOM      5  C   UNL     1       3.164   6.129  17.558  0.00  0.00    +0.000 A 
ATOM      6  C   UNL     1       3.428   4.744  17.496  0.00  0.00    +0.000 A 
ATOM      7  C   UNL     1       3.055   3.901  18.576  0.00  0.00    +0.000 A 
ATOM      8  C   UNL     1       2.391   4.399  19.697  0.00  0.00    +0.000 A 
ATOM      9  C   UNL     1       2.045   7.997  19.050  0.00  0.00    +0.000 C 
ATOM     10  O   UNL     1       2.270   8.982  18.372  0.00  0.00    +0.000 OA
ENDROOT
BRANCH   1  15
ATOM     11  C   UNL     1      -0.630  10.899  21.264  0.00  0.00    +0.000 A 
ATOM     12  C   UNL     1      -0.570  10.797  22.653  0.00  0.00    +0.000 A 
ATOM     13  C   UNL     1       0.213   9.806  23.267  0.00  0.00    +0.000 A 
ATOM     14  C   UNL     1       0.915   8.858  22.508  0.00  0.00    +0.000 A 
ATOM     15  C   UNL     1       0.809   8.870  21.126  0.00  0.00    +0.000 A 
ATOM     16  C   UNL     1       0.060   9.920  20.531  0.00  0.00    +0.000 A 
BRANCH  11  18
ATOM     17  C   UNL     1      -0.471  12.714  19.430  0.00  0.00    +0.000 C 
ATOM     18  C   UNL     1      -1.327  12.036  20.509  0.00  0.00    +0.000 C 
BRANCH  18  19
ATOM     19  C   UNL     1      -2.030  13.096  21.403  0.00  0.00    +0.000 C 
BRANCH  19  20
ATOM     20  C   UNL     1      -3.503  12.894  21.486  0.00  0.00    +0.000 A 
ATOM     21  N   UNL     1      -4.345  12.864  20.473  0.00  0.00    +0.000 NA
ATOM     22  N   UNL     1      -5.621  12.879  20.976  0.00  0.00    +0.000 NA
ATOM     23  C   UNL     1      -5.529  12.863  22.285  0.00  0.00    +0.000 A 
ATOM     24  N   UNL     1      -4.222  12.758  22.643  0.00  0.00    +0.000 N 
ATOM     25  C   UNL     1      -3.723  12.510  23.968  0.00  0.00    +0.000 C 
ENDBRANCH  19  20
ENDBRANCH  18  19
ENDBRANCH  11  18
ENDBRANCH   1  15
BRANCH   8  26
ATOM     26  C   UNL     1       2.003   3.496  20.838  0.00  0.00    +0.000 C 
ATOM     27  F   UNL     1       2.485   2.223  20.716  0.00  0.00    +0.000 F 
ATOM     28  F   UNL     1       2.453   3.939  22.041  0.00  0.00    +0.000 F 
ATOM     29  F   UNL     1       0.655   3.355  20.955  0.00  0.00    +0.000 F 
ENDBRANCH   8  26
BRANCH   6  30
ATOM     30  C   UNL     1       4.143   4.093  16.312  0.00  0.00    +0.000 C 
BRANCH  30  31
ATOM     31  N   UNL     1       5.509   3.672  16.654  0.00  0.00    +0.000 NA
ATOM     32  C   UNL     1       6.482   3.848  15.573  0.00  0.00    +0.000 C 
ATOM     33  C   UNL     1       7.398   4.995  15.970  0.00  0.00    +0.000 C 
ATOM     34  C   UNL     1       7.401   4.964  17.489  0.00  0.00    +0.000 C 
ATOM     35  C   UNL     1       7.596   6.345  18.107  0.00  0.00    +0.000 C 
ATOM     36  C   UNL     1       6.041   4.346  17.856  0.00  0.00    +0.000 C 
BRANCH  34  37
ATOM     37  O   UNL     1       8.462   4.115  17.942  0.00  0.00    +0.000 OA
ATOM     38  H   UNL     1       9.243   4.671  18.108  0.00  0.00    +0.000 HD
ENDBRANCH  34  37
ENDBRANCH  30  31
ENDBRANCH   6  30
TORSDOF 8
ENDMDL
MODEL 9
REMARK VINA RESULT:      -9.3      2.270      3.388
REMARK  Name = 
REMARK  11 active torsions:
REMARK  status: ('A' for Active; 'I' for Inactive)
REMARK    1  A    between atoms: C_1  and  C_2
REMARK    2  A    between atoms: C_2  and  C_3
REMARK    3  A    between atoms: C_2  and  C_10
REMARK    4  A    between atoms: C_3  and  C_4
REMARK    5  A    between atoms: N_8  and  C_9
REMARK    6  A    between atoms: C_14  and  N_15
REMARK    7  A    between atoms: C_20  and  C_21
REMARK    8  A    between atoms: C_21  and  N_22
REMARK    9  A    between atoms: C_25  and  C_26
REMARK   10  A    between atoms: C_25  and  O_27
REMARK   11  A    between atoms: C_30  and  C_31
REMARK                            x       y       z     vdW  Elec       q    Type
REMARK                         _______ _______ _______ _____ _____    ______ ____
ROOT
ATOM      1  N   UNL     1       1.457   7.947  20.212  0.00  0.00    +0.000 N 
ATOM      2  C   UNL     1       1.450   6.606  20.728  0.00  0.00    +0.000 C 
ATOM      3  C   UNL     1       2.144   5.802  19.702  0.00  0.00    +0.000 A 
ATOM      4  C   UNL     1       2.522   6.612  18.636  0.00  0.00    +0.000 A 
ATOM      5  C   UNL     1       3.162   6.069  17.529  0.00  0.00    +0.000 A 
ATOM      6  C   UNL     1       3.401   4.678  17.517  0.00  0.00    +0.000 A 
ATOM      7  C   UNL     1       3.033   3.884  18.634  0.00  0.00    +0.000 A 
ATOM      8  C   UNL     1       2.397   4.436  19.747  0.00  0.00    +0.000 A 
ATOM      9  C   UNL     1       2.103   8.012  18.967  0.00  0.00    +0.000 C 
ATOM     10  O   UNL     1       2.332   8.966  18.247  0.00  0.00    +0.000 OA
ENDROOT
BRANCH   1  15
ATOM     11  C   UNL     1       0.150  11.354  21.132  0.00  0.00    +0.000 A 
ATOM     12  C   UNL     1      -0.328  11.099  22.418  0.00  0.00    +0.000 A 
ATOM     13  C   UNL     1      -0.126   9.848  23.023  0.00  0.00    +0.000 A 
ATOM     14  C   UNL     1       0.511   8.802  22.339  0.00  0.00    +0.000 A 
ATOM     15  C   UNL     1       0.920   8.987  21.028  0.00  0.00    +0.000 A 
ATOM     16  C   UNL     1       0.758  10.281  20.463  0.00  0.00    +0.000 A 
BRANCH  11  18
ATOM     17  C   UNL     1      -1.220  13.084  19.785  0.00  0.00    +0.000 C 
ATOM     18  C   UNL     1       0.116  12.728  20.454  0.00  0.00    +0.000 C 
BRANCH  18  19
ATOM     19  C   UNL     1       1.308  13.031  19.504  0.00  0.00    +0.000 C 
BRANCH  19  20
ATOM     20  C   UNL     1       2.487  13.594  20.219  0.00  0.00    +0.000 A 
ATOM     21  N   UNL     1       2.775  13.433  21.495  0.00  0.00    +0.000 NA
ATOM     22  N   UNL     1       3.808  14.279  21.810  0.00  0.00    +0.000 NA
ATOM     23  C   UNL     1       4.162  14.897  20.708  0.00  0.00    +0.000 A 
ATOM     24  N   UNL     1       3.435  14.412  19.667  0.00  0.00    +0.000 N 
ATOM     25  C   UNL     1       3.662  14.684  18.274  0.00  0.00    +0.000 C 
ENDBRANCH  19  20
ENDBRANCH  18  19
ENDBRANCH  11  18
ENDBRANCH   1  15
BRANCH   8  26
ATOM     26  C   UNL     1       2.015   3.586  20.929  0.00  0.00    +0.000 C 
ATOM     27  F   UNL     1       2.471   4.070  22.122  0.00  0.00    +0.000 F 
ATOM     28  F   UNL     1       0.670   3.460  21.079  0.00  0.00    +0.000 F 
ATOM     29  F   UNL     1       2.516   2.323  20.845  0.00  0.00    +0.000 F 
ENDBRANCH   8  26
BRANCH   6  30
ATOM     30  C   UNL     1       4.084   3.968  16.347  0.00  0.00    +0.000 C 
BRANCH  30  31
ATOM     31  N   UNL     1       5.469   3.591  16.660  0.00  0.00    +0.000 NA
ATOM     32  C   UNL     1       6.416   3.813  15.564  0.00  0.00    +0.000 C 
ATOM     33  C   UNL     1       7.299   4.987  15.958  0.00  0.00    +0.000 C 
ATOM     34  C   UNL     1       7.330   4.939  17.477  0.00  0.00    +0.000 C 
ATOM     35  C   UNL     1       7.488   6.320  18.107  0.00  0.00    +0.000 C 
ATOM     36  C   UNL     1       5.998   4.271  17.860  0.00  0.00    +0.000 C 
BRANCH  34  37
ATOM     37  O   UNL     1       8.427   4.123  17.901  0.00  0.00    +0.000 OA
ATOM     38  H   UNL     1       8.230   3.203  17.656  0.00  0.00    +0.000 HD
ENDBRANCH  34  37
ENDBRANCH  30  31
ENDBRANCH   6  30
TORSDOF 8
ENDMDL
