MODEL 1
REMARK VINA RESULT:      -9.1      0.000      0.000
REMARK  Name = 
REMARK  11 active torsions:
REMARK  status: ('A' for Active; 'I' for Inactive)
REMARK    1  A    between atoms: C_1  and  C_2
REMARK    2  A    between atoms: C_2  and  C_3
REMARK    3  A    between atoms: C_2  and  N_32
REMARK    4  A    between atoms: C_7  and  C_8
REMARK    5  A    between atoms: N_14  and  C_15
REMARK    6  A    between atoms: C_19  and  C_20
REMARK    7  A    between atoms: C_20  and  C_21
REMARK    8  A    between atoms: C_20  and  C_22
REMARK    9  A    between atoms: C_22  and  C_23
REMARK   10  A    between atoms: N_27  and  C_28
REMARK   11  A    between atoms: C_35  and  O_36
REMARK                            x       y       z     vdW  Elec       q    Type
REMARK                         _______ _______ _______ _____ _____    ______ ____
ROOT
ATOM      1  C   UNL     1       4.119   4.892  18.134  0.00  0.00    +0.000 A 
ATOM      2  C   UNL     1       3.666   6.220  18.089  0.00  0.00    +0.000 A 
ATOM      3  C   UNL     1       2.745   6.626  19.041  0.00  0.00    +0.000 A 
ATOM      4  C   UNL     1       2.235   5.768  20.007  0.00  0.00    +0.000 A 
ATOM      5  C   UNL     1       2.621   4.431  20.050  0.00  0.00    +0.000 A 
ATOM      6  C   UNL     1       3.579   4.012  19.107  0.00  0.00    +0.000 A 
ATOM      7  C   UNL     1       1.314   6.529  20.906  0.00  0.00    +0.000 C 
ATOM      8  N   UNL     1       1.361   7.886  20.382  0.00  0.00    +0.000 N 
ATOM      9  C   UNL     1       2.192   7.967  19.259  0.00  0.00    +0.000 C 
ATOM     10  O   UNL     1       2.474   8.906  18.533  0.00  0.00    +0.000 OA
ENDROOT
BRANCH   8  11
ATOM     11  C   UNL     1       0.617   8.945  20.974  0.00  0.00    +0.000 A 
ATOM     12  C   UNL     1       0.297   8.942  22.335  0.00  0.00    +0.000 A 
ATOM     13  C   UNL     1      -0.396  10.009  22.912  0.00  0.00    +0.000 A 
ATOM     14  C   UNL     1      -0.794  11.097  22.138  0.00  0.00    +0.000 A 
ATOM     15  C   UNL     1      -0.529  11.122  20.765  0.00  0.00    +0.000 A 
ATOM     16  C   UNL     1       0.179  10.039  20.201  0.00  0.00    +0.000 A 
BRANCH  15  17
ATOM     17  C   UNL     1      -0.973  12.284  19.881  0.00  0.00    +0.000 C 
ATOM     18  C   UNL     1      -2.499  12.278  19.701  0.00  0.00    +0.000 C 
BRANCH  17  19
ATOM     19  C   UNL     1      -0.233  12.288  18.520  0.00  0.00    +0.000 C 
BRANCH  19  20
ATOM     20  C   UNL     1       0.986  13.150  18.558  0.00  0.00    +0.000 A 
ATOM     21  N   UNL     1       2.230  12.720  18.483  0.00  0.00    +0.000 NA
ATOM     22  N   UNL     1       3.072  13.791  18.653  0.00  0.00    +0.000 NA
ATOM     23  C   UNL     1       2.327  14.857  18.813  0.00  0.00    +0.000 A 
ATOM     24  N   UNL     1       1.013  14.513  18.722  0.00  0.00    +0.000 N 
ATOM     25  C   UNL     1      -0.091  15.432  18.784  0.00  0.00    +0.000 C 
ENDBRANCH  19  20
ENDBRANCH  17  19
ENDBRANCH  15  17
ENDBRANCH   8  11
BRANCH   5  26
ATOM     26  C   UNL     1       2.074   3.454  21.058  0.00  0.00    +0.000 C 
ATOM     27  F   UNL     1       2.578   2.194  20.925  0.00  0.00    +0.000 F 
ATOM     28  F   UNL     1       2.347   3.826  22.338  0.00  0.00    +0.000 F 
ATOM     29  F   UNL     1       0.723   3.321  20.981  0.00  0.00    +0.000 F 
ENDBRANCH   5  26
BRANCH   1  31
ATOM     30  C   UNL     1       6.598   4.646  18.002  0.00  0.00    +0.000 C 
ATOM     31  C   UNL     1       5.276   4.457  17.227  0.00  0.00    +0.000 C 
BRANCH  31  32
ATOM     32  N   UNL     1       5.246   5.204  15.942  0.00  0.00    +0.000 NA
ATOM     33  C   UNL     1       6.544   5.825  15.598  0.00  0.00    +0.000 C 
ATOM     34  C   UNL     1       7.195   5.006  14.484  0.00  0.00    +0.000 C 
ATOM     35  C   UNL     1       6.290   3.805  14.306  0.00  0.00    +0.000 C 
ATOM     36  C   UNL     1       4.946   4.340  14.776  0.00  0.00    +0.000 C 
BRANCH  35  37
ATOM     37  O   UNL     1       6.272   3.355  12.962  0.00  0.00    +0.000 OA
ATOM     38  H   UNL     1       7.039   2.771  12.825  0.00  0.00    +0.000 HD
ENDBRANCH  35  37
ENDBRANCH  31  32
ENDBRANCH   1  31
TORSDOF 8
ENDMDL
MODEL 2
REMARK VINA RESULT:      -9.1      2.200      3.144
REMARK  Name = 
REMARK  11 active torsions:
REMARK  status: ('A' for Active; 'I' for Inactive)
REMARK    1  A    between atoms: C_1  and  C_2
REMARK    2  A    between atoms: C_2  and  C_3
REMARK    3  A    between atoms: C_2  and  N_32
REMARK    4  A    between atoms: C_7  and  C_8
REMARK    5  A    between atoms: N_14  and  C_15
REMARK    6  A    between atoms: C_19  and  C_20
REMARK    7  A    between atoms: C_20  and  C_21
REMARK    8  A    between atoms: C_20  and  C_22
REMARK    9  A    between atoms: C_22  and  C_23
REMARK   10  A    between atoms: N_27  and  C_28
REMARK   11  A    between atoms: C_35  and  O_36
REMARK                            x       y       z     vdW  Elec       q    Type
REMARK                         _______ _______ _______ _____ _____    ______ ____
ROOT
ATOM      1  C   UNL     1       4.137   4.936  18.086  0.00  0.00    +0.000 A 
ATOM      2  C   UNL     1       3.669   6.254  17.974  0.00  0.00    +0.000 A 
ATOM      3  C   UNL     1       2.744   6.698  18.904  0.00  0.00    +0.000 A 
ATOM      4  C   UNL     1       2.243   5.884  19.913  0.00  0.00    +0.000 A 
ATOM      5  C   UNL     1       2.644   4.556  20.024  0.00  0.00    +0.000 A 
ATOM      6  C   UNL     1       3.607   4.100  19.103  0.00  0.00    +0.000 A 
ATOM      7  C   UNL     1       1.314   6.680  20.772  0.00  0.00    +0.000 C 
ATOM      8  N   UNL     1       1.345   8.009  20.180  0.00  0.00    +0.000 N 
ATOM      9  C   UNL     1       2.175   8.042  19.054  0.00  0.00    +0.000 C 
ATOM     10  O   UNL     1       2.447   8.945  18.281  0.00  0.00    +0.000 OA
ENDROOT
BRANCH   8  11
ATOM     11  C   UNL     1       0.589   9.088  20.717  0.00  0.00    +0.000 A 
ATOM     12  C   UNL     1       0.729   9.486  22.050  0.00  0.00    +0.000 A 
ATOM     13  C   UNL     1       0.014  10.576  22.554  0.00  0.00    +0.000 A 
ATOM     14  C   UNL     1      -0.866  11.283  21.737  0.00  0.00    +0.000 A 
ATOM     15  C   UNL     1      -1.065  10.894  20.408  0.00  0.00    +0.000 A 
ATOM     16  C   UNL     1      -0.328   9.797  19.916  0.00  0.00    +0.000 A 
BRANCH  15  17
ATOM     17  C   UNL     1      -2.041  11.629  19.494  0.00  0.00    +0.000 C 
ATOM     18  C   UNL     1      -1.390  11.935  18.136  0.00  0.00    +0.000 C 
BRANCH  17  19
ATOM     19  C   UNL     1      -2.604  12.908  20.163  0.00  0.00    +0.000 C 
BRANCH  19  20
ATOM     20  C   UNL     1      -3.978  12.686  20.707  0.00  0.00    +0.000 A 
ATOM     21  N   UNL     1      -4.280  12.530  21.981  0.00  0.00    +0.000 NA
ATOM     22  N   UNL     1      -5.620  12.250  22.079  0.00  0.00    +0.000 NA
ATOM     23  C   UNL     1      -6.115  12.254  20.865  0.00  0.00    +0.000 A 
ATOM     24  N   UNL     1      -5.133  12.561  19.974  0.00  0.00    +0.000 N 
ATOM     25  C   UNL     1      -5.319  12.720  18.557  0.00  0.00    +0.000 C 
ENDBRANCH  19  20
ENDBRANCH  17  19
ENDBRANCH  15  17
ENDBRANCH   8  11
BRANCH   5  26
ATOM     26  C   UNL     1       2.108   3.625  21.080  0.00  0.00    +0.000 C 
ATOM     27  F   UNL     1       2.308   4.072  22.352  0.00  0.00    +0.000 F 
ATOM     28  F   UNL     1       0.766   3.431  20.964  0.00  0.00    +0.000 F 
ATOM     29  F   UNL     1       2.676   2.391  21.029  0.00  0.00    +0.000 F 
ENDBRANCH   5  26
BRANCH   1  31
ATOM     30  C   UNL     1       6.610   4.616  18.004  0.00  0.00    +0.000 C 
ATOM     31  C   UNL     1       5.300   4.468  17.202  0.00  0.00    +0.000 C 
BRANCH  31  32
ATOM     32  N   UNL     1       5.318   5.219  15.918  0.00  0.00    +0.000 NA
ATOM     33  C   UNL     1       6.654   5.750  15.573  0.00  0.00    +0.000 C 
ATOM     34  C   UNL     1       7.247   4.891  14.457  0.00  0.00    +0.000 C 
ATOM     35  C   UNL     1       6.262   3.755  14.277  0.00  0.00    +0.000 C 
ATOM     36  C   UNL     1       4.958   4.380  14.751  0.00  0.00    +0.000 C 
BRANCH  35  37
ATOM     37  O   UNL     1       6.211   3.311  12.932  0.00  0.00    +0.000 OA
ATOM     38  H   UNL     1       6.874   2.608  12.817  0.00  0.00    +0.000 HD
ENDBRANCH  35  37
ENDBRANCH  31  32
ENDBRANCH   1  31
TORSDOF 8
ENDMDL
MODEL 3
REMARK VINA RESULT:      -8.7      2.682      8.594
REMARK  Name = 
REMARK  11 active torsions:
REMARK  status: ('A' for Active; 'I' for Inactive)
REMARK    1  A    between atoms: C_1  and  C_2
REMARK    2  A    between atoms: C_2  and  C_3
REMARK    3  A    between atoms: C_2  and  N_32
REMARK    4  A    between atoms: C_7  and  C_8
REMARK    5  A    between atoms: N_14  and  C_15
REMARK    6  A    between atoms: C_19  and  C_20
REMARK    7  A    between atoms: C_20  and  C_21
REMARK    8  A    between atoms: C_20  and  C_22
REMARK    9  A    between atoms: C_22  and  C_23
REMARK   10  A    between atoms: N_27  and  C_28
REMARK   11  A    between atoms: C_35  and  O_36
REMARK                            x       y       z     vdW  Elec       q    Type
REMARK                         _______ _______ _______ _____ _____    ______ ____
ROOT
ATOM      1  C   UNL     1       0.215  11.974  19.895  0.00  0.00    +0.000 A 
ATOM      2  C   UNL     1       0.935  11.237  18.941  0.00  0.00    +0.000 A 
ATOM      3  C   UNL     1       1.278   9.932  19.252  0.00  0.00    +0.000 A 
ATOM      4  C   UNL     1       0.969   9.343  20.472  0.00  0.00    +0.000 A 
ATOM      5  C   UNL     1       0.302  10.060  21.462  0.00  0.00    +0.000 A 
ATOM      6  C   UNL     1      -0.080  11.379  21.148  0.00  0.00    +0.000 A 
ATOM      7  C   UNL     1       1.429   7.921  20.463  0.00  0.00    +0.000 C 
ATOM      8  N   UNL     1       2.004   7.749  19.138  0.00  0.00    +0.000 N 
ATOM      9  C   UNL     1       1.944   8.938  18.402  0.00  0.00    +0.000 C 
ATOM     10  O   UNL     1       2.331   9.209  17.278  0.00  0.00    +0.000 OA
ENDROOT
BRANCH   8  11
ATOM     11  C   UNL     1       2.556   6.508  18.713  0.00  0.00    +0.000 A 
ATOM     12  C   UNL     1       2.081   5.290  19.208  0.00  0.00    +0.000 A 
ATOM     13  C   UNL     1       2.602   4.077  18.751  0.00  0.00    +0.000 A 
ATOM     14  C   UNL     1       3.618   4.057  17.797  0.00  0.00    +0.000 A 
ATOM     15  C   UNL     1       4.149   5.254  17.305  0.00  0.00    +0.000 A 
ATOM     16  C   UNL     1       3.604   6.468  17.773  0.00  0.00    +0.000 A 
BRANCH  15  17
ATOM     17  C   UNL     1       5.280   5.270  16.281  0.00  0.00    +0.000 C 
ATOM     18  C   UNL     1       5.024   4.241  15.170  0.00  0.00    +0.000 C 
BRANCH  17  19
ATOM     19  C   UNL     1       6.663   5.063  16.948  0.00  0.00    +0.000 C 
BRANCH  19  20
ATOM     20  C   UNL     1       7.235   6.352  17.443  0.00  0.00    +0.000 A 
ATOM     21  N   UNL     1       7.247   7.490  16.775  0.00  0.00    +0.000 NA
ATOM     22  N   UNL     1       7.942   8.418  17.509  0.00  0.00    +0.000 NA
ATOM     23  C   UNL     1       8.330   7.835  18.617  0.00  0.00    +0.000 A 
ATOM     24  N   UNL     1       7.877   6.551  18.640  0.00  0.00    +0.000 N 
ATOM     25  C   UNL     1       8.054   5.628  19.728  0.00  0.00    +0.000 C 
ENDBRANCH  19  20
ENDBRANCH  17  19
ENDBRANCH  15  17
ENDBRANCH   8  11
BRANCH   5  26
ATOM     26  C   UNL     1      -0.029   9.477  22.811  0.00  0.00    +0.000 C 
ATOM     27  F   UNL     1      -0.771  10.308  23.596  0.00  0.00    +0.000 F 
ATOM     28  F   UNL     1      -0.747   8.325  22.713  0.00  0.00    +0.000 F 
ATOM     29  F   UNL     1       1.079   9.173  23.538  0.00  0.00    +0.000 F 
ENDBRANCH   5  26
BRANCH   1  31
ATOM     30  C   UNL     1      -0.540  13.392  17.987  0.00  0.00    +0.000 C 
ATOM     31  C   UNL     1      -0.352  13.348  19.518  0.00  0.00    +0.000 C 
BRANCH  31  32
ATOM     32  N   UNL     1       0.526  14.436  20.025  0.00  0.00    +0.000 NA
ATOM     33  C   UNL     1       1.740  13.936  20.704  0.00  0.00    +0.000 C 
ATOM     34  C   UNL     1       2.937  14.139  19.775  0.00  0.00    +0.000 C 
ATOM     35  C   UNL     1       2.338  14.639  18.476  0.00  0.00    +0.000 C 
ATOM     36  C   UNL     1       1.054  15.305  18.948  0.00  0.00    +0.000 C 
BRANCH  35  37
ATOM     37  O   UNL     1       3.213  15.528  17.803  0.00  0.00    +0.000 OA
ATOM     38  H   UNL     1       3.444  16.250  18.412  0.00  0.00    +0.000 HD
ENDBRANCH  35  37
ENDBRANCH  31  32
ENDBRANCH   1  31
TORSDOF 8
ENDMDL
MODEL 4
REMARK VINA RESULT:      -8.7      2.023      2.880
REMARK  Name = 
REMARK  11 active torsions:
REMARK  status: ('A' for Active; 'I' for Inactive)
REMARK    1  A    between atoms: C_1  and  C_2
REMARK    2  A    between atoms: C_2  and  C_3
REMARK    3  A    between atoms: C_2  and  N_32
REMARK    4  A    between atoms: C_7  and  C_8
REMARK    5  A    between atoms: N_14  and  C_15
REMARK    6  A    between atoms: C_19  and  C_20
REMARK    7  A    between atoms: C_20  and  C_21
REMARK    8  A    between atoms: C_20  and  C_22
REMARK    9  A    between atoms: C_22  and  C_23
REMARK   10  A    between atoms: N_27  and  C_28
REMARK   11  A    between atoms: C_35  and  O_36
REMARK                            x       y       z     vdW  Elec       q    Type
REMARK                         _______ _______ _______ _____ _____    ______ ____
ROOT
ATOM      1  C   UNL     1       4.573   4.708  17.540  0.00  0.00    +0.000 A 
ATOM      2  C   UNL     1       4.062   6.015  17.519  0.00  0.00    +0.000 A 
ATOM      3  C   UNL     1       3.194   6.392  18.532  0.00  0.00    +0.000 A 
ATOM      4  C   UNL     1       2.792   5.522  19.538  0.00  0.00    +0.000 A 
ATOM      5  C   UNL     1       3.237   4.203  19.562  0.00  0.00    +0.000 A 
ATOM      6  C   UNL     1       4.143   3.816  18.555  0.00  0.00    +0.000 A 
ATOM      7  C   UNL     1       1.906   6.252  20.495  0.00  0.00    +0.000 C 
ATOM      8  N   UNL     1       1.856   7.605  19.960  0.00  0.00    +0.000 N 
ATOM      9  C   UNL     1       2.601   7.710  18.779  0.00  0.00    +0.000 C 
ATOM     10  O   UNL     1       2.790   8.652  18.029  0.00  0.00    +0.000 OA
ENDROOT
BRANCH   8  11
ATOM     11  C   UNL     1       1.112   8.637  20.596  0.00  0.00    +0.000 A 
ATOM     12  C   UNL     1       1.045   8.739  21.989  0.00  0.00    +0.000 A 
ATOM     13  C   UNL     1       0.347   9.783  22.601  0.00  0.00    +0.000 A 
ATOM     14  C   UNL     1      -0.310  10.742  21.832  0.00  0.00    +0.000 A 
ATOM     15  C   UNL     1      -0.301  10.655  20.436  0.00  0.00    +0.000 A 
ATOM     16  C   UNL     1       0.416   9.599  19.836  0.00  0.00    +0.000 A 
BRANCH  15  17
ATOM     17  C   UNL     1      -1.032  11.672  19.564  0.00  0.00    +0.000 C 
ATOM     18  C   UNL     1      -0.039  12.451  18.688  0.00  0.00    +0.000 C 
BRANCH  17  19
ATOM     19  C   UNL     1      -1.921  12.620  20.407  0.00  0.00    +0.000 C 
BRANCH  19  20
ATOM     20  C   UNL     1      -3.368  12.468  20.065  0.00  0.00    +0.000 A 
ATOM     21  N   UNL     1      -3.840  12.096  18.891  0.00  0.00    +0.000 NA
ATOM     22  N   UNL     1      -5.211  12.170  18.931  0.00  0.00    +0.000 NA
ATOM     23  C   UNL     1      -5.550  12.572  20.132  0.00  0.00    +0.000 A 
ATOM     24  N   UNL     1      -4.431  12.735  20.891  0.00  0.00    +0.000 N 
ATOM     25  C   UNL     1      -4.419  13.105  22.280  0.00  0.00    +0.000 C 
ENDBRANCH  19  20
ENDBRANCH  17  19
ENDBRANCH  15  17
ENDBRANCH   8  11
BRANCH   5  26
ATOM     26  C   UNL     1       2.806   3.214  20.613  0.00  0.00    +0.000 C 
ATOM     27  F   UNL     1       3.818   2.414  21.056  0.00  0.00    +0.000 F 
ATOM     28  F   UNL     1       2.307   3.824  21.723  0.00  0.00    +0.000 F 
ATOM     29  F   UNL     1       1.834   2.371  20.174  0.00  0.00    +0.000 F 
ENDBRANCH   5  26
BRANCH   1  31
ATOM     30  C   UNL     1       7.042   4.486  17.261  0.00  0.00    +0.000 C 
ATOM     31  C   UNL     1       5.680   4.314  16.556  0.00  0.00    +0.000 C 
BRANCH  31  32
ATOM     32  N   UNL     1       5.574   5.105  15.300  0.00  0.00    +0.000 NA
ATOM     33  C   UNL     1       6.877   5.613  14.820  0.00  0.00    +0.000 C 
ATOM     34  C   UNL     1       7.312   4.775  13.618  0.00  0.00    +0.000 C 
ATOM     35  C   UNL     1       6.281   3.671  13.520  0.00  0.00    +0.000 C 
ATOM     36  C   UNL     1       5.058   4.314  14.159  0.00  0.00    +0.000 C 
BRANCH  35  37
ATOM     37  O   UNL     1       6.064   3.272  12.178  0.00  0.00    +0.000 OA
ATOM     38  H   UNL     1       6.926   3.071  11.775  0.00  0.00    +0.000 HD
ENDBRANCH  35  37
ENDBRANCH  31  32
ENDBRANCH   1  31
TORSDOF 8
ENDMDL
MODEL 5
REMARK VINA RESULT:      -8.7      1.403      2.112
REMARK  Name = 
REMARK  11 active torsions:
REMARK  status: ('A' for Active; 'I' for Inactive)
REMARK    1  A    between atoms: C_1  and  C_2
REMARK    2  A    between atoms: C_2  and  C_3
REMARK    3  A    between atoms: C_2  and  N_32
REMARK    4  A    between atoms: C_7  and  C_8
REMARK    5  A    between atoms: N_14  and  C_15
REMARK    6  A    between atoms: C_19  and  C_20
REMARK    7  A    between atoms: C_20  and  C_21
REMARK    8  A    between atoms: C_20  and  C_22
REMARK    9  A    between atoms: C_22  and  C_23
REMARK   10  A    between atoms: N_27  and  C_28
REMARK   11  A    between atoms: C_35  and  O_36
REMARK                            x       y       z     vdW  Elec       q    Type
REMARK                         _______ _______ _______ _____ _____    ______ ____
ROOT
ATOM      1  C   UNL     1       3.859   5.888  17.345  0.00  0.00    +0.000 A 
ATOM      2  C   UNL     1       3.266   7.156  17.450  0.00  0.00    +0.000 A 
ATOM      3  C   UNL     1       2.488   7.420  18.566  0.00  0.00    +0.000 A 
ATOM      4  C   UNL     1       2.250   6.475  19.557  0.00  0.00    +0.000 A 
ATOM      5  C   UNL     1       2.779   5.190  19.460  0.00  0.00    +0.000 A 
ATOM      6  C   UNL     1       3.596   4.918  18.346  0.00  0.00    +0.000 A 
ATOM      7  C   UNL     1       1.425   7.093  20.639  0.00  0.00    +0.000 C 
ATOM      8  N   UNL     1       1.234   8.464  20.190  0.00  0.00    +0.000 N 
ATOM      9  C   UNL     1       1.841   8.680  18.948  0.00  0.00    +0.000 C 
ATOM     10  O   UNL     1       1.890   9.669  18.237  0.00  0.00    +0.000 OA
ENDROOT
BRANCH   8  11
ATOM     11  C   UNL     1       0.496   9.409  20.957  0.00  0.00    +0.000 A 
ATOM     12  C   UNL     1       0.280   9.230  22.326  0.00  0.00    +0.000 A 
ATOM     13  C   UNL     1      -0.408  10.187  23.076  0.00  0.00    +0.000 A 
ATOM     14  C   UNL     1      -0.906  11.338  22.470  0.00  0.00    +0.000 A 
ATOM     15  C   UNL     1      -0.746  11.538  21.094  0.00  0.00    +0.000 A 
ATOM     16  C   UNL     1      -0.041  10.565  20.355  0.00  0.00    +0.000 A 
BRANCH  15  17
ATOM     17  C   UNL     1      -1.301  12.774  20.392  0.00  0.00    +0.000 C 
ATOM     18  C   UNL     1      -2.833  12.701  20.291  0.00  0.00    +0.000 C 
BRANCH  17  19
ATOM     19  C   UNL     1      -0.644  12.991  19.006  0.00  0.00    +0.000 C 
BRANCH  19  20
ATOM     20  C   UNL     1       0.154  14.254  18.967  0.00  0.00    +0.000 A 
ATOM     21  N   UNL     1      -0.332  15.470  19.125  0.00  0.00    +0.000 NA
ATOM     22  N   UNL     1       0.683  16.373  18.924  0.00  0.00    +0.000 NA
ATOM     23  C   UNL     1       1.771  15.692  18.661  0.00  0.00    +0.000 A 
ATOM     24  N   UNL     1       1.499  14.359  18.715  0.00  0.00    +0.000 N 
ATOM     25  C   UNL     1       2.465  13.308  18.544  0.00  0.00    +0.000 C 
ENDBRANCH  19  20
ENDBRANCH  17  19
ENDBRANCH  15  17
ENDBRANCH   8  11
BRANCH   5  26
ATOM     26  C   UNL     1       2.525   4.122  20.491  0.00  0.00    +0.000 C 
ATOM     27  F   UNL     1       2.685   4.554  21.774  0.00  0.00    +0.000 F 
ATOM     28  F   UNL     1       1.257   3.630  20.424  0.00  0.00    +0.000 F 
ATOM     29  F   UNL     1       3.354   3.053  20.355  0.00  0.00    +0.000 F 
ENDBRANCH   5  26
BRANCH   1  31
ATOM     30  C   UNL     1       4.955   4.098  15.997  0.00  0.00    +0.000 C 
ATOM     31  C   UNL     1       4.880   5.621  16.232  0.00  0.00    +0.000 C 
BRANCH  31  32
ATOM     32  N   UNL     1       6.198   6.221  16.573  0.00  0.00    +0.000 NA
ATOM     33  C   UNL     1       6.294   6.653  17.984  0.00  0.00    +0.000 C 
ATOM     34  C   UNL     1       7.161   5.648  18.743  0.00  0.00    +0.000 C 
ATOM     35  C   UNL     1       7.436   4.542  17.746  0.00  0.00    +0.000 C 
ATOM     36  C   UNL     1       7.324   5.271  16.415  0.00  0.00    +0.000 C 
BRANCH  35  37
ATOM     37  O   UNL     1       8.707   3.951  17.954  0.00  0.00    +0.000 OA
ATOM     38  H   UNL     1       8.820   3.234  17.306  0.00  0.00    +0.000 HD
ENDBRANCH  35  37
ENDBRANCH  31  32
ENDBRANCH   1  31
TORSDOF 8
ENDMDL
MODEL 6
REMARK VINA RESULT:      -8.6      1.067      1.415
REMARK  Name = 
REMARK  11 active torsions:
REMARK  status: ('A' for Active; 'I' for Inactive)
REMARK    1  A    between atoms: C_1  and  C_2
REMARK    2  A    between atoms: C_2  and  C_3
REMARK    3  A    between atoms: C_2  and  N_32
REMARK    4  A    between atoms: C_7  and  C_8
REMARK    5  A    between atoms: N_14  and  C_15
REMARK    6  A    between atoms: C_19  and  C_20
REMARK    7  A    between atoms: C_20  and  C_21
REMARK    8  A    between atoms: C_20  and  C_22
REMARK    9  A    between atoms: C_22  and  C_23
REMARK   10  A    between atoms: N_27  and  C_28
REMARK   11  A    between atoms: C_35  and  O_36
REMARK                            x       y       z     vdW  Elec       q    Type
REMARK                         _______ _______ _______ _____ _____    ______ ____
ROOT
ATOM      1  C   UNL     1       4.510   4.815  17.613  0.00  0.00    +0.000 A 
ATOM      2  C   UNL     1       4.001   6.122  17.558  0.00  0.00    +0.000 A 
ATOM      3  C   UNL     1       3.093   6.508  18.530  0.00  0.00    +0.000 A 
ATOM      4  C   UNL     1       2.648   5.649  19.528  0.00  0.00    +0.000 A 
ATOM      5  C   UNL     1       3.091   4.330  19.583  0.00  0.00    +0.000 A 
ATOM      6  C   UNL     1       4.037   3.932  18.618  0.00  0.00    +0.000 A 
ATOM      7  C   UNL     1       1.724   6.389  20.440  0.00  0.00    +0.000 C 
ATOM      8  N   UNL     1       1.698   7.736  19.891  0.00  0.00    +0.000 N 
ATOM      9  C   UNL     1       2.490   7.829  18.741  0.00  0.00    +0.000 C 
ATOM     10  O   UNL     1       2.711   8.764  17.990  0.00  0.00    +0.000 OA
ENDROOT
BRANCH   8  11
ATOM     11  C   UNL     1       0.928   8.775  20.485  0.00  0.00    +0.000 A 
ATOM     12  C   UNL     1       0.853   8.926  21.873  0.00  0.00    +0.000 A 
ATOM     13  C   UNL     1       0.130   9.976  22.443  0.00  0.00    +0.000 A 
ATOM     14  C   UNL     1      -0.544  10.892  21.638  0.00  0.00    +0.000 A 
ATOM     15  C   UNL     1      -0.527  10.754  20.246  0.00  0.00    +0.000 A 
ATOM     16  C   UNL     1       0.216   9.692  19.688  0.00  0.00    +0.000 A 
BRANCH  15  17
ATOM     17  C   UNL     1      -1.275  11.722  19.334  0.00  0.00    +0.000 C 
ATOM     18  C   UNL     1      -2.121  10.957  18.304  0.00  0.00    +0.000 C 
BRANCH  17  19
ATOM     19  C   UNL     1      -0.315  12.731  18.654  0.00  0.00    +0.000 C 
BRANCH  19  20
ATOM     20  C   UNL     1      -0.018  13.894  19.543  0.00  0.00    +0.000 A 
ATOM     21  N   UNL     1      -0.892  14.800  19.936  0.00  0.00    +0.000 NA
ATOM     22  N   UNL     1      -0.228  15.761  20.657  0.00  0.00    +0.000 NA
ATOM     23  C   UNL     1       1.036  15.417  20.704  0.00  0.00    +0.000 A 
ATOM     24  N   UNL     1       1.211  14.234  20.054  0.00  0.00    +0.000 N 
ATOM     25  C   UNL     1       2.453  13.517  19.957  0.00  0.00    +0.000 C 
ENDBRANCH  19  20
ENDBRANCH  17  19
ENDBRANCH  15  17
ENDBRANCH   8  11
BRANCH   5  26
ATOM     26  C   UNL     1       2.616   3.351  20.625  0.00  0.00    +0.000 C 
ATOM     27  F   UNL     1       3.400   2.240  20.726  0.00  0.00    +0.000 F 
ATOM     28  F   UNL     1       2.588   3.897  21.871  0.00  0.00    +0.000 F 
ATOM     29  F   UNL     1       1.359   2.894  20.382  0.00  0.00    +0.000 F 
ENDBRANCH   5  26
BRANCH   1  31
ATOM     30  C   UNL     1       6.987   4.577  17.443  0.00  0.00    +0.000 C 
ATOM     31  C   UNL     1       5.657   4.411  16.679  0.00  0.00    +0.000 C 
BRANCH  31  32
ATOM     32  N   UNL     1       5.610   5.198  15.418  0.00  0.00    +0.000 NA
ATOM     33  C   UNL     1       6.946   5.616  14.942  0.00  0.00    +0.000 C 
ATOM     34  C   UNL     1       7.333   4.743  13.749  0.00  0.00    +0.000 C 
ATOM     35  C   UNL     1       6.232   3.708  13.652  0.00  0.00    +0.000 C 
ATOM     36  C   UNL     1       5.051   4.434  14.279  0.00  0.00    +0.000 C 
BRANCH  35  37
ATOM     37  O   UNL     1       5.998   3.315  12.311  0.00  0.00    +0.000 OA
ATOM     38  H   UNL     1       5.802   4.112  11.788  0.00  0.00    +0.000 HD
ENDBRANCH  35  37
ENDBRANCH  31  32
ENDBRANCH   1  31
TORSDOF 8
ENDMDL
MODEL 7
REMARK VINA RESULT:      -8.6      0.831      1.238
REMARK  Name = 
REMARK  11 active torsions:
REMARK  status: ('A' for Active; 'I' for Inactive)
REMARK    1  A    between atoms: C_1  and  C_2
REMARK    2  A    between atoms: C_2  and  C_3
REMARK    3  A    between atoms: C_2  and  N_32
REMARK    4  A    between atoms: C_7  and  C_8
REMARK    5  A    between atoms: N_14  and  C_15
REMARK    6  A    between atoms: C_19  and  C_20
REMARK    7  A    between atoms: C_20  and  C_21
REMARK    8  A    between atoms: C_20  and  C_22
REMARK    9  A    between atoms: C_22  and  C_23
REMARK   10  A    between atoms: N_27  and  C_28
REMARK   11  A    between atoms: C_35  and  O_36
REMARK                            x       y       z     vdW  Elec       q    Type
REMARK                         _______ _______ _______ _____ _____    ______ ____
ROOT
ATOM      1  C   UNL     1       4.105   4.840  18.047  0.00  0.00    +0.000 A 
ATOM      2  C   UNL     1       3.673   6.174  17.988  0.00  0.00    +0.000 A 
ATOM      3  C   UNL     1       2.783   6.614  18.954  0.00  0.00    +0.000 A 
ATOM      4  C   UNL     1       2.282   5.782  19.949  0.00  0.00    +0.000 A 
ATOM      5  C   UNL     1       2.647   4.439  20.006  0.00  0.00    +0.000 A 
ATOM      6  C   UNL     1       3.574   3.987  19.048  0.00  0.00    +0.000 A 
ATOM      7  C   UNL     1       1.396   6.574  20.854  0.00  0.00    +0.000 C 
ATOM      8  N   UNL     1       1.452   7.921  20.305  0.00  0.00    +0.000 N 
ATOM      9  C   UNL     1       2.257   7.967  19.161  0.00  0.00    +0.000 C 
ATOM     10  O   UNL     1       2.537   8.888  18.412  0.00  0.00    +0.000 OA
ENDROOT
BRANCH   8  11
ATOM     11  C   UNL     1       0.741   9.003  20.895  0.00  0.00    +0.000 A 
ATOM     12  C   UNL     1       0.039   8.849  22.094  0.00  0.00    +0.000 A 
ATOM     13  C   UNL     1      -0.619   9.930  22.685  0.00  0.00    +0.000 A 
ATOM     14  C   UNL     1      -0.600  11.186  22.083  0.00  0.00    +0.000 A 
ATOM     15  C   UNL     1       0.058  11.375  20.863  0.00  0.00    +0.000 A 
ATOM     16  C   UNL     1       0.724  10.273  20.286  0.00  0.00    +0.000 A 
BRANCH  15  17
ATOM     17  C   UNL     1       0.078  12.730  20.162  0.00  0.00    +0.000 C 
ATOM     18  C   UNL     1      -1.190  12.924  19.316  0.00  0.00    +0.000 C 
BRANCH  17  19
ATOM     19  C   UNL     1       1.365  12.924  19.322  0.00  0.00    +0.000 C 
BRANCH  19  20
ATOM     20  C   UNL     1       1.855  14.335  19.382  0.00  0.00    +0.000 A 
ATOM     21  N   UNL     1       1.422  15.327  18.629  0.00  0.00    +0.000 NA
ATOM     22  N   UNL     1       2.176  16.441  18.903  0.00  0.00    +0.000 NA
ATOM     23  C   UNL     1       3.045  16.112  19.828  0.00  0.00    +0.000 A 
ATOM     24  N   UNL     1       2.858  14.813  20.189  0.00  0.00    +0.000 N 
ATOM     25  C   UNL     1       3.585  14.126  21.221  0.00  0.00    +0.000 C 
ENDBRANCH  19  20
ENDBRANCH  17  19
ENDBRANCH  15  17
ENDBRANCH   8  11
BRANCH   5  26
ATOM     26  C   UNL     1       2.108   3.490  21.045  0.00  0.00    +0.000 C 
ATOM     27  F   UNL     1       2.595   2.222  20.928  0.00  0.00    +0.000 F 
ATOM     28  F   UNL     1       2.411   3.885  22.312  0.00  0.00    +0.000 F 
ATOM     29  F   UNL     1       0.755   3.372  20.997  0.00  0.00    +0.000 F 
ENDBRANCH   5  26
BRANCH   1  31
ATOM     30  C   UNL     1       6.569   4.488  17.883  0.00  0.00    +0.000 C 
ATOM     31  C   UNL     1       5.233   4.369  17.121  0.00  0.00    +0.000 C 
BRANCH  31  32
ATOM     32  N   UNL     1       5.222   5.138  15.847  0.00  0.00    +0.000 NA
ATOM     33  C   UNL     1       6.523   5.768  15.536  0.00  0.00    +0.000 C 
ATOM     34  C   UNL     1       7.196   4.969  14.420  0.00  0.00    +0.000 C 
ATOM     35  C   UNL     1       6.299   3.768  14.207  0.00  0.00    +0.000 C 
ATOM     36  C   UNL     1       4.945   4.292  14.663  0.00  0.00    +0.000 C 
BRANCH  35  37
ATOM     37  O   UNL     1       6.306   3.341  12.856  0.00  0.00    +0.000 OA
ATOM     38  H   UNL     1       6.210   4.124  12.287  0.00  0.00    +0.000 HD
ENDBRANCH  35  37
ENDBRANCH  31  32
ENDBRANCH   1  31
TORSDOF 8
ENDMDL
MODEL 8
REMARK VINA RESULT:      -8.6      2.900      9.144
REMARK  Name = 
REMARK  11 active torsions:
REMARK  status: ('A' for Active; 'I' for Inactive)
REMARK    1  A    between atoms: C_1  and  C_2
REMARK    2  A    between atoms: C_2  and  C_3
REMARK    3  A    between atoms: C_2  and  N_32
REMARK    4  A    between atoms: C_7  and  C_8
REMARK    5  A    between atoms: N_14  and  C_15
REMARK    6  A    between atoms: C_19  and  C_20
REMARK    7  A    between atoms: C_20  and  C_21
REMARK    8  A    between atoms: C_20  and  C_22
REMARK    9  A    between atoms: C_22  and  C_23
REMARK   10  A    between atoms: N_27  and  C_28
REMARK   11  A    between atoms: C_35  and  O_36
REMARK                            x       y       z     vdW  Elec       q    Type
REMARK                         _______ _______ _______ _____ _____    ______ ____
ROOT
ATOM      1  C   UNL     1       0.686  11.840  19.557  0.00  0.00    +0.000 A 
ATOM      2  C   UNL     1       1.404  11.060  18.637  0.00  0.00    +0.000 A 
ATOM      3  C   UNL     1       1.610   9.723  18.938  0.00  0.00    +0.000 A 
ATOM      4  C   UNL     1       1.165   9.142  20.120  0.00  0.00    +0.000 A 
ATOM      5  C   UNL     1       0.497   9.898  21.079  0.00  0.00    +0.000 A 
ATOM      6  C   UNL     1       0.254  11.251  20.772  0.00  0.00    +0.000 A 
ATOM      7  C   UNL     1       1.499   7.685  20.108  0.00  0.00    +0.000 C 
ATOM      8  N   UNL     1       2.148   7.487  18.821  0.00  0.00    +0.000 N 
ATOM      9  C   UNL     1       2.244   8.690  18.112  0.00  0.00    +0.000 C 
ATOM     10  O   UNL     1       2.730   8.946  17.023  0.00  0.00    +0.000 OA
ENDROOT
BRANCH   8  11
ATOM     11  C   UNL     1       2.618   6.210  18.405  0.00  0.00    +0.000 A 
ATOM     12  C   UNL     1       1.970   5.033  18.789  0.00  0.00    +0.000 A 
ATOM     13  C   UNL     1       2.416   3.787  18.338  0.00  0.00    +0.000 A 
ATOM     14  C   UNL     1       3.527   3.693  17.503  0.00  0.00    +0.000 A 
ATOM     15  C   UNL     1       4.229   4.844  17.127  0.00  0.00    +0.000 A 
ATOM     16  C   UNL     1       3.758   6.092  17.586  0.00  0.00    +0.000 A 
BRANCH  15  17
ATOM     17  C   UNL     1       5.466   4.775  16.237  0.00  0.00    +0.000 C 
ATOM     18  C   UNL     1       5.354   3.614  15.237  0.00  0.00    +0.000 C 
BRANCH  17  19
ATOM     19  C   UNL     1       6.770   4.694  17.069  0.00  0.00    +0.000 C 
BRANCH  19  20
ATOM     20  C   UNL     1       7.266   6.051  17.450  0.00  0.00    +0.000 A 
ATOM     21  N   UNL     1       7.246   7.118  16.675  0.00  0.00    +0.000 NA
ATOM     22  N   UNL     1       7.875   8.146  17.333  0.00  0.00    +0.000 NA
ATOM     23  C   UNL     1       8.255   7.692  18.502  0.00  0.00    +0.000 A 
ATOM     24  N   UNL     1       7.862   6.396  18.638  0.00  0.00    +0.000 N 
ATOM     25  C   UNL     1       8.048   5.592  19.815  0.00  0.00    +0.000 C 
ENDBRANCH  19  20
ENDBRANCH  17  19
ENDBRANCH  15  17
ENDBRANCH   8  11
BRANCH   5  26
ATOM     26  C   UNL     1       0.022   9.322  22.388  0.00  0.00    +0.000 C 
ATOM     27  F   UNL     1       1.037   8.972  23.229  0.00  0.00    +0.000 F 
ATOM     28  F   UNL     1      -0.749  10.199  23.088  0.00  0.00    +0.000 F 
ATOM     29  F   UNL     1      -0.729   8.201  22.227  0.00  0.00    +0.000 F 
ENDBRANCH   5  26
BRANCH   1  31
ATOM     30  C   UNL     1       1.427  13.917  18.390  0.00  0.00    +0.000 C 
ATOM     31  C   UNL     1       0.269  13.266  19.175  0.00  0.00    +0.000 C 
BRANCH  31  32
ATOM     32  N   UNL     1      -0.120  14.041  20.384  0.00  0.00    +0.000 NA
ATOM     33  C   UNL     1       0.710  15.247  20.594  0.00  0.00    +0.000 C 
ATOM     34  C   UNL     1      -0.111  16.476  20.204  0.00  0.00    +0.000 C 
ATOM     35  C   UNL     1      -1.392  15.918  19.620  0.00  0.00    +0.000 C 
ATOM     36  C   UNL     1      -1.502  14.568  20.314  0.00  0.00    +0.000 C 
BRANCH  35  37
ATOM     37  O   UNL     1      -2.498  16.767  19.872  0.00  0.00    +0.000 OA
ATOM     38  H   UNL     1      -2.916  16.485  20.704  0.00  0.00    +0.000 HD
ENDBRANCH  35  37
ENDBRANCH  31  32
ENDBRANCH   1  31
TORSDOF 8
ENDMDL
MODEL 9
REMARK VINA RESULT:      -8.6      0.801      1.022
REMARK  Name = 
REMARK  11 active torsions:
REMARK  status: ('A' for Active; 'I' for Inactive)
REMARK    1  A    between atoms: C_1  and  C_2
REMARK    2  A    between atoms: C_2  and  C_3
REMARK    3  A    between atoms: C_2  and  N_32
REMARK    4  A    between atoms: C_7  and  C_8
REMARK    5  A    between atoms: N_14  and  C_15
REMARK    6  A    between atoms: C_19  and  C_20
REMARK    7  A    between atoms: C_20  and  C_21
REMARK    8  A    between atoms: C_20  and  C_22
REMARK    9  A    between atoms: C_22  and  C_23
REMARK   10  A    between atoms: N_27  and  C_28
REMARK   11  A    between atoms: C_35  and  O_36
REMARK                            x       y       z     vdW  Elec       q    Type
REMARK                         _______ _______ _______ _____ _____    ______ ____
ROOT
ATOM      1  C   UNL     1       4.139   4.758  18.019  0.00  0.00    +0.000 A 
ATOM      2  C   UNL     1       3.694   6.088  17.975  0.00  0.00    +0.000 A 
ATOM      3  C   UNL     1       2.817   6.514  18.959  0.00  0.00    +0.000 A 
ATOM      4  C   UNL     1       2.341   5.672  19.958  0.00  0.00    +0.000 A 
ATOM      5  C   UNL     1       2.719   4.332  20.001  0.00  0.00    +0.000 A 
ATOM      6  C   UNL     1       3.634   3.894  19.025  0.00  0.00    +0.000 A 
ATOM      7  C   UNL     1       1.464   6.451  20.883  0.00  0.00    +0.000 C 
ATOM      8  N   UNL     1       1.498   7.801  20.341  0.00  0.00    +0.000 N 
ATOM      9  C   UNL     1       2.282   7.862  19.183  0.00  0.00    +0.000 C 
ATOM     10  O   UNL     1       2.541   8.788  18.434  0.00  0.00    +0.000 OA
ENDROOT
BRANCH   8  11
ATOM     11  C   UNL     1       0.787   8.873  20.949  0.00  0.00    +0.000 A 
ATOM     12  C   UNL     1      -0.182   8.644  21.929  0.00  0.00    +0.000 A 
ATOM     13  C   UNL     1      -0.842   9.707  22.550  0.00  0.00    +0.000 A 
ATOM     14  C   UNL     1      -0.555  11.024  22.195  0.00  0.00    +0.000 A 
ATOM     15  C   UNL     1       0.381  11.296  21.191  0.00  0.00    +0.000 A 
ATOM     16  C   UNL     1       1.043  10.209  20.581  0.00  0.00    +0.000 A 
BRANCH  15  17
ATOM     17  C   UNL     1       0.701  12.724  20.757  0.00  0.00    +0.000 C 
ATOM     18  C   UNL     1      -0.206  13.730  21.481  0.00  0.00    +0.000 C 
BRANCH  17  19
ATOM     19  C   UNL     1       0.629  12.887  19.218  0.00  0.00    +0.000 C 
BRANCH  19  20
ATOM     20  C   UNL     1       1.732  13.754  18.703  0.00  0.00    +0.000 A 
ATOM     21  N   UNL     1       2.930  13.335  18.344  0.00  0.00    +0.000 NA
ATOM     22  N   UNL     1       3.695  14.428  18.024  0.00  0.00    +0.000 NA
ATOM     23  C   UNL     1       2.947  15.494  18.180  0.00  0.00    +0.000 A 
ATOM     24  N   UNL     1       1.696  15.120  18.567  0.00  0.00    +0.000 N 
ATOM     25  C   UNL     1       0.590  16.014  18.771  0.00  0.00    +0.000 C 
ENDBRANCH  19  20
ENDBRANCH  17  19
ENDBRANCH  15  17
ENDBRANCH   8  11
BRANCH   5  26
ATOM     26  C   UNL     1       2.208   3.372  21.044  0.00  0.00    +0.000 C 
ATOM     27  F   UNL     1       0.878   3.101  20.929  0.00  0.00    +0.000 F 
ATOM     28  F   UNL     1       2.836   2.166  20.987  0.00  0.00    +0.000 F 
ATOM     29  F   UNL     1       2.384   3.832  22.311  0.00  0.00    +0.000 F 
ENDBRANCH   5  26
BRANCH   1  31
ATOM     30  C   UNL     1       6.600   4.401  17.819  0.00  0.00    +0.000 C 
ATOM     31  C   UNL     1       5.254   4.303  17.070  0.00  0.00    +0.000 C 
BRANCH  31  32
ATOM     32  N   UNL     1       5.232   5.097  15.813  0.00  0.00    +0.000 NA
ATOM     33  C   UNL     1       6.526   5.744  15.509  0.00  0.00    +0.000 C 
ATOM     34  C   UNL     1       7.201   4.974  14.374  0.00  0.00    +0.000 C 
ATOM     35  C   UNL     1       6.312   3.770  14.139  0.00  0.00    +0.000 C 
ATOM     36  C   UNL     1       4.956   4.274  14.612  0.00  0.00    +0.000 C 
BRANCH  35  37
ATOM     37  O   UNL     1       6.316   3.371  12.780  0.00  0.00    +0.000 OA
ATOM     38  H   UNL     1       5.450   3.591  12.394  0.00  0.00    +0.000 HD
ENDBRANCH  35  37
ENDBRANCH  31  32
ENDBRANCH   1  31
TORSDOF 8
ENDMDL
