MODEL 1
REMARK VINA RESULT:      -9.4      0.000      0.000
REMARK  Name = 
REMARK  7 active torsions:
REMARK  status: ('A' for Active; 'I' for Inactive)
REMARK    1  A    between atoms: C_1  and  C_2
REMARK    2  A    between atoms: C_2  and  C_3
REMARK    3  A    between atoms: C_2  and  C_10
REMARK    4  A    between atoms: C_3  and  C_4
REMARK    5  A    between atoms: N_7  and  C_8
REMARK    6  A    between atoms: C_14  and  N_15
REMARK    7  A    between atoms: C_22  and  C_23
REMARK                            x       y       z     vdW  Elec       q    Type
REMARK                         _______ _______ _______ _____ _____    ______ ____
ROOT
ATOM      1  C   UNL     1       4.227   4.865  18.554  0.00  0.00    +0.000 A 
ATOM      2  C   UNL     1       3.730   3.830  19.340  0.00  0.00    +0.000 A 
ATOM      3  C   UNL     1       2.631   4.041  20.188  0.00  0.00    +0.000 A 
ATOM      4  C   UNL     1       2.015   5.299  20.281  0.00  0.00    +0.000 A 
ATOM      5  C   UNL     1       2.503   6.359  19.532  0.00  0.00    +0.000 A 
ATOM      6  C   UNL     1       3.596   6.109  18.669  0.00  0.00    +0.000 A 
ENDROOT
BRANCH   5   7
ATOM      7  N   UNL     1       1.988   7.680  19.595  0.00  0.00    +0.000 N 
ATOM      8  C   UNL     1       1.402   8.119  20.835  0.00  0.00    +0.000 C 
ATOM      9  C   UNL     1       0.830   9.447  20.535  0.00  0.00    +0.000 A 
ATOM     10  C   UNL     1       1.181   9.822  19.242  0.00  0.00    +0.000 A 
ATOM     11  C   UNL     1       0.842  11.074  18.764  0.00  0.00    +0.000 A 
ATOM     12  C   UNL     1       0.124  11.927  19.622  0.00  0.00    +0.000 A 
ATOM     13  C   UNL     1      -0.271  11.509  20.910  0.00  0.00    +0.000 A 
ATOM     14  C   UNL     1       0.073  10.241  21.388  0.00  0.00    +0.000 A 
ATOM     15  C   UNL     1       1.895   8.673  18.607  0.00  0.00    +0.000 C 
ATOM     16  O   UNL     1       2.272   8.674  17.454  0.00  0.00    +0.000 OA
BRANCH  14  17
ATOM     17  C   UNL     1      -0.375   9.752  22.747  0.00  0.00    +0.000 C 
ATOM     18  F   UNL     1       0.648   9.529  23.622  0.00  0.00    +0.000 F 
ATOM     19  F   UNL     1      -1.199  10.631  23.376  0.00  0.00    +0.000 F 
ATOM     20  F   UNL     1      -1.052   8.574  22.677  0.00  0.00    +0.000 F 
ENDBRANCH  14  17
ENDBRANCH   5   7
BRANCH   1  22
ATOM     21  C   UNL     1       6.766   4.829  18.202  0.00  0.00    +0.000 C 
ATOM     22  C   UNL     1       5.379   4.730  17.560  0.00  0.00    +0.000 C 
BRANCH  22  23
ATOM     23  C   UNL     1       5.262   5.650  16.318  0.00  0.00    +0.000 C 
BRANCH  23  24
ATOM     24  C   UNL     1       5.963   5.140  15.113  0.00  0.00    +0.000 A 
ATOM     25  N   UNL     1       7.225   5.556  14.769  0.00  0.00    +0.000 NA
ATOM     26  C   UNL     1       7.453   4.902  13.654  0.00  0.00    +0.000 A 
ATOM     27  N   UNL     1       6.387   4.125  13.355  0.00  0.00    +0.000 N 
ATOM     28  C   UNL     1       6.206   3.259  12.220  0.00  0.00    +0.000 C 
ATOM     29  N   UNL     1       5.428   4.229  14.292  0.00  0.00    +0.000 NA
ENDBRANCH  23  24
ENDBRANCH  22  23
ENDBRANCH   1  22
TORSDOF 5
ENDMDL
MODEL 2
REMARK VINA RESULT:      -9.1      0.895      1.243
REMARK  Name = 
REMARK  7 active torsions:
REMARK  status: ('A' for Active; 'I' for Inactive)
REMARK    1  A    between atoms: C_1  and  C_2
REMARK    2  A    between atoms: C_2  and  C_3
REMARK    3  A    between atoms: C_2  and  C_10
REMARK    4  A    between atoms: C_3  and  C_4
REMARK    5  A    between atoms: N_7  and  C_8
REMARK    6  A    between atoms: C_14  and  N_15
REMARK    7  A    between atoms: C_22  and  C_23
REMARK                            x       y       z     vdW  Elec       q    Type
REMARK                         _______ _______ _______ _____ _____    ______ ____
ROOT
ATOM      1  C   UNL     1       4.998   5.520  18.655  0.00  0.00    +0.000 A 
ATOM      2  C   UNL     1       4.404   4.290  18.921  0.00  0.00    +0.000 A 
ATOM      3  C   UNL     1       3.046   4.214  19.270  0.00  0.00    +0.000 A 
ATOM      4  C   UNL     1       2.256   5.369  19.377  0.00  0.00    +0.000 A 
ATOM      5  C   UNL     1       2.824   6.613  19.145  0.00  0.00    +0.000 A 
ATOM      6  C   UNL     1       4.188   6.655  18.772  0.00  0.00    +0.000 A 
ENDROOT
BRANCH   5   7
ATOM      7  N   UNL     1       2.128   7.842  19.281  0.00  0.00    +0.000 N 
ATOM      8  C   UNL     1       1.535   8.147  20.558  0.00  0.00    +0.000 C 
ATOM      9  C   UNL     1       0.766   9.387  20.332  0.00  0.00    +0.000 A 
ATOM     10  C   UNL     1       1.007   9.855  19.044  0.00  0.00    +0.000 A 
ATOM     11  C   UNL     1       0.473  11.060  18.630  0.00  0.00    +0.000 A 
ATOM     12  C   UNL     1      -0.326  11.769  19.546  0.00  0.00    +0.000 A 
ATOM     13  C   UNL     1      -0.604  11.253  20.829  0.00  0.00    +0.000 A 
ATOM     14  C   UNL     1      -0.062  10.032  21.243  0.00  0.00    +0.000 A 
ATOM     15  C   UNL     1       1.852   8.845  18.338  0.00  0.00    +0.000 C 
ATOM     16  O   UNL     1       2.178   8.942  17.173  0.00  0.00    +0.000 OA
BRANCH  14  17
ATOM     17  C   UNL     1      -0.379   9.436  22.596  0.00  0.00    +0.000 C 
ATOM     18  F   UNL     1       0.712   9.270  23.399  0.00  0.00    +0.000 F 
ATOM     19  F   UNL     1      -1.242  10.198  23.317  0.00  0.00    +0.000 F 
ATOM     20  F   UNL     1      -0.945   8.202  22.499  0.00  0.00    +0.000 F 
ENDBRANCH  14  17
ENDBRANCH   5   7
BRANCH   1  22
ATOM     21  C   UNL     1       6.699   7.021  17.460  0.00  0.00    +0.000 C 
ATOM     22  C   UNL     1       6.448   5.712  18.215  0.00  0.00    +0.000 C 
BRANCH  22  23
ATOM     23  C   UNL     1       7.054   4.499  17.463  0.00  0.00    +0.000 C 
BRANCH  23  24
ATOM     24  C   UNL     1       6.820   4.511  15.998  0.00  0.00    +0.000 A 
ATOM     25  N   UNL     1       5.707   3.943  15.429  0.00  0.00    +0.000 NA
ATOM     26  C   UNL     1       5.902   4.143  14.146  0.00  0.00    +0.000 A 
ATOM     27  N   UNL     1       7.065   4.808  13.960  0.00  0.00    +0.000 N 
ATOM     28  C   UNL     1       7.669   5.217  12.719  0.00  0.00    +0.000 C 
ATOM     29  N   UNL     1       7.660   5.090  15.132  0.00  0.00    +0.000 NA
ENDBRANCH  23  24
ENDBRANCH  22  23
ENDBRANCH   1  22
TORSDOF 5
ENDMDL
MODEL 3
REMARK VINA RESULT:      -9.0      1.720      2.764
REMARK  Name = 
REMARK  7 active torsions:
REMARK  status: ('A' for Active; 'I' for Inactive)
REMARK    1  A    between atoms: C_1  and  C_2
REMARK    2  A    between atoms: C_2  and  C_3
REMARK    3  A    between atoms: C_2  and  C_10
REMARK    4  A    between atoms: C_3  and  C_4
REMARK    5  A    between atoms: N_7  and  C_8
REMARK    6  A    between atoms: C_14  and  N_15
REMARK    7  A    between atoms: C_22  and  C_23
REMARK                            x       y       z     vdW  Elec       q    Type
REMARK                         _______ _______ _______ _____ _____    ______ ____
ROOT
ATOM      1  C   UNL     1       4.220   5.101  17.858  0.00  0.00    +0.000 A 
ATOM      2  C   UNL     1       4.021   4.075  18.776  0.00  0.00    +0.000 A 
ATOM      3  C   UNL     1       3.151   4.250  19.865  0.00  0.00    +0.000 A 
ATOM      4  C   UNL     1       2.472   5.461  20.067  0.00  0.00    +0.000 A 
ATOM      5  C   UNL     1       2.670   6.514  19.184  0.00  0.00    +0.000 A 
ATOM      6  C   UNL     1       3.534   6.299  18.085  0.00  0.00    +0.000 A 
ENDROOT
BRANCH   5   7
ATOM      7  N   UNL     1       2.076   7.795  19.331  0.00  0.00    +0.000 N 
ATOM      8  C   UNL     1       1.494   8.130  20.605  0.00  0.00    +0.000 C 
ATOM      9  C   UNL     1       0.834   9.432  20.389  0.00  0.00    +0.000 A 
ATOM     10  C   UNL     1       1.130   9.897  19.111  0.00  0.00    +0.000 A 
ATOM     11  C   UNL     1       0.703  11.149  18.709  0.00  0.00    +0.000 A 
ATOM     12  C   UNL     1      -0.045  11.909  19.627  0.00  0.00    +0.000 A 
ATOM     13  C   UNL     1      -0.383  11.399  20.899  0.00  0.00    +0.000 A 
ATOM     14  C   UNL     1       0.050  10.131  21.300  0.00  0.00    +0.000 A 
ATOM     15  C   UNL     1       1.897   8.830  18.400  0.00  0.00    +0.000 C 
ATOM     16  O   UNL     1       2.245   8.917  17.241  0.00  0.00    +0.000 OA
BRANCH  14  17
ATOM     17  C   UNL     1      -0.333   9.544  22.640  0.00  0.00    +0.000 C 
ATOM     18  F   UNL     1      -1.243  10.289  23.332  0.00  0.00    +0.000 F 
ATOM     19  F   UNL     1      -0.890   8.309  22.532  0.00  0.00    +0.000 F 
ATOM     20  F   UNL     1       0.734   9.413  23.473  0.00  0.00    +0.000 F 
ENDBRANCH  14  17
ENDBRANCH   5   7
BRANCH   1  22
ATOM     21  C   UNL     1       4.596   3.987  15.579  0.00  0.00    +0.000 C 
ATOM     22  C   UNL     1       5.099   4.999  16.613  0.00  0.00    +0.000 C 
BRANCH  22  23
ATOM     23  C   UNL     1       6.608   4.802  16.910  0.00  0.00    +0.000 C 
BRANCH  23  24
ATOM     24  C   UNL     1       7.259   5.967  17.560  0.00  0.00    +0.000 A 
ATOM     25  N   UNL     1       7.891   5.868  18.775  0.00  0.00    +0.000 NA
ATOM     26  C   UNL     1       8.291   7.100  18.995  0.00  0.00    +0.000 A 
ATOM     27  N   UNL     1       7.929   7.889  17.958  0.00  0.00    +0.000 N 
ATOM     28  C   UNL     1       8.151   9.301  17.793  0.00  0.00    +0.000 C 
ATOM     29  N   UNL     1       7.295   7.184  17.005  0.00  0.00    +0.000 NA
ENDBRANCH  23  24
ENDBRANCH  22  23
ENDBRANCH   1  22
TORSDOF 5
ENDMDL
MODEL 4
REMARK VINA RESULT:      -9.0      0.723      1.179
REMARK  Name = 
REMARK  7 active torsions:
REMARK  status: ('A' for Active; 'I' for Inactive)
REMARK    1  A    between atoms: C_1  and  C_2
REMARK    2  A    between atoms: C_2  and  C_3
REMARK    3  A    between atoms: C_2  and  C_10
REMARK    4  A    between atoms: C_3  and  C_4
REMARK    5  A    between atoms: N_7  and  C_8
REMARK    6  A    between atoms: C_14  and  N_15
REMARK    7  A    between atoms: C_22  and  C_23
REMARK                            x       y       z     vdW  Elec       q    Type
REMARK                         _______ _______ _______ _____ _____    ______ ____
ROOT
ATOM      1  C   UNL     1       4.385   5.835  18.077  0.00  0.00    +0.000 A 
ATOM      2  C   UNL     1       4.102   4.697  18.826  0.00  0.00    +0.000 A 
ATOM      3  C   UNL     1       3.047   4.697  19.753  0.00  0.00    +0.000 A 
ATOM      4  C   UNL     1       2.262   5.841  19.962  0.00  0.00    +0.000 A 
ATOM      5  C   UNL     1       2.535   7.000  19.250  0.00  0.00    +0.000 A 
ATOM      6  C   UNL     1       3.589   6.962  18.308  0.00  0.00    +0.000 A 
ENDROOT
BRANCH   5   7
ATOM      7  N   UNL     1       1.838   8.224  19.428  0.00  0.00    +0.000 N 
ATOM      8  C   UNL     1       1.278   8.502  20.725  0.00  0.00    +0.000 C 
ATOM      9  C   UNL     1       0.499   9.743  20.543  0.00  0.00    +0.000 A 
ATOM     10  C   UNL     1       0.705  10.236  19.259  0.00  0.00    +0.000 A 
ATOM     11  C   UNL     1       0.156  11.447  18.881  0.00  0.00    +0.000 A 
ATOM     12  C   UNL     1      -0.621  12.136  19.832  0.00  0.00    +0.000 A 
ATOM     13  C   UNL     1      -0.864  11.594  21.111  0.00  0.00    +0.000 A 
ATOM     14  C   UNL     1      -0.307  10.367  21.487  0.00  0.00    +0.000 A 
ATOM     15  C   UNL     1       1.535   9.243  18.512  0.00  0.00    +0.000 C 
ATOM     16  O   UNL     1       1.830   9.364  17.341  0.00  0.00    +0.000 OA
BRANCH  14  17
ATOM     17  C   UNL     1      -0.588   9.744  22.836  0.00  0.00    +0.000 C 
ATOM     18  F   UNL     1      -1.072   8.470  22.769  0.00  0.00    +0.000 F 
ATOM     19  F   UNL     1       0.521   9.665  23.619  0.00  0.00    +0.000 F 
ATOM     20  F   UNL     1      -1.511  10.444  23.549  0.00  0.00    +0.000 F 
ENDBRANCH  14  17
ENDBRANCH   5   7
BRANCH   1  22
ATOM     21  C   UNL     1       5.056   6.727  15.769  0.00  0.00    +0.000 C 
ATOM     22  C   UNL     1       5.472   5.926  17.007  0.00  0.00    +0.000 C 
BRANCH  22  23
ATOM     23  C   UNL     1       6.101   4.565  16.616  0.00  0.00    +0.000 C 
BRANCH  23  24
ATOM     24  C   UNL     1       6.512   4.468  15.194  0.00  0.00    +0.000 A 
ATOM     25  N   UNL     1       7.521   5.236  14.669  0.00  0.00    +0.000 NA
ATOM     26  C   UNL     1       7.541   4.870  13.408  0.00  0.00    +0.000 A 
ATOM     27  N   UNL     1       6.600   3.921  13.195  0.00  0.00    +0.000 N 
ATOM     28  C   UNL     1       6.270   3.255  11.962  0.00  0.00    +0.000 C 
ATOM     29  N   UNL     1       5.947   3.616  14.330  0.00  0.00    +0.000 NA
ENDBRANCH  23  24
ENDBRANCH  22  23
ENDBRANCH   1  22
TORSDOF 5
ENDMDL
MODEL 5
REMARK VINA RESULT:      -8.8      3.748      8.166
REMARK  Name = 
REMARK  7 active torsions:
REMARK  status: ('A' for Active; 'I' for Inactive)
REMARK    1  A    between atoms: C_1  and  C_2
REMARK    2  A    between atoms: C_2  and  C_3
REMARK    3  A    between atoms: C_2  and  C_10
REMARK    4  A    between atoms: C_3  and  C_4
REMARK    5  A    between atoms: N_7  and  C_8
REMARK    6  A    between atoms: C_14  and  N_15
REMARK    7  A    between atoms: C_22  and  C_23
REMARK                            x       y       z     vdW  Elec       q    Type
REMARK                         _______ _______ _______ _____ _____    ______ ____
ROOT
ATOM      1  C   UNL     1       0.228  10.653  20.000  0.00  0.00    +0.000 A 
ATOM      2  C   UNL     1       0.053  10.750  21.377  0.00  0.00    +0.000 A 
ATOM      3  C   UNL     1       0.527   9.739  22.230  0.00  0.00    +0.000 A 
ATOM      4  C   UNL     1       1.172   8.601  21.721  0.00  0.00    +0.000 A 
ATOM      5  C   UNL     1       1.338   8.461  20.351  0.00  0.00    +0.000 A 
ATOM      6  C   UNL     1       0.871   9.506  19.520  0.00  0.00    +0.000 A 
ENDROOT
BRANCH   5   7
ATOM      7  N   UNL     1       1.925   7.326  19.734  0.00  0.00    +0.000 N 
ATOM      8  C   UNL     1       1.792   6.052  20.393  0.00  0.00    +0.000 C 
ATOM      9  C   UNL     1       2.628   5.127  19.602  0.00  0.00    +0.000 A 
ATOM     10  C   UNL     1       3.105   5.783  18.472  0.00  0.00    +0.000 A 
ATOM     11  C   UNL     1       3.834   5.094  17.521  0.00  0.00    +0.000 A 
ATOM     12  C   UNL     1       4.082   3.728  17.754  0.00  0.00    +0.000 A 
ATOM     13  C   UNL     1       3.638   3.093  18.933  0.00  0.00    +0.000 A 
ATOM     14  C   UNL     1       2.901   3.796  19.891  0.00  0.00    +0.000 A 
ATOM     15  C   UNL     1       2.694   7.217  18.564  0.00  0.00    +0.000 C 
ATOM     16  O   UNL     1       3.017   8.060  17.752  0.00  0.00    +0.000 OA
BRANCH  14  17
ATOM     17  C   UNL     1       2.450   3.150  21.182  0.00  0.00    +0.000 C 
ATOM     18  F   UNL     1       2.379   4.011  22.238  0.00  0.00    +0.000 F 
ATOM     19  F   UNL     1       1.213   2.596  21.088  0.00  0.00    +0.000 F 
ATOM     20  F   UNL     1       3.287   2.155  21.584  0.00  0.00    +0.000 F 
ENDBRANCH  14  17
ENDBRANCH   5   7
BRANCH   1  22
ATOM     21  C   UNL     1       0.764  12.904  18.896  0.00  0.00    +0.000 C 
ATOM     22  C   UNL     1      -0.199  11.716  18.990  0.00  0.00    +0.000 C 
BRANCH  22  23
ATOM     23  C   UNL     1      -1.667  12.189  19.142  0.00  0.00    +0.000 C 
BRANCH  23  24
ATOM     24  C   UNL     1      -2.583  11.684  18.089  0.00  0.00    +0.000 A 
ATOM     25  N   UNL     1      -3.930  11.528  18.303  0.00  0.00    +0.000 NA
ATOM     26  C   UNL     1      -4.352  11.043  17.158  0.00  0.00    +0.000 A 
ATOM     27  N   UNL     1      -3.313  10.928  16.301  0.00  0.00    +0.000 N 
ATOM     28  C   UNL     1      -3.322  10.430  14.950  0.00  0.00    +0.000 C 
ATOM     29  N   UNL     1      -2.169  11.365  16.857  0.00  0.00    +0.000 NA
ENDBRANCH  23  24
ENDBRANCH  22  23
ENDBRANCH   1  22
TORSDOF 5
ENDMDL
MODEL 6
REMARK VINA RESULT:      -8.7      4.263      8.447
REMARK  Name = 
REMARK  7 active torsions:
REMARK  status: ('A' for Active; 'I' for Inactive)
REMARK    1  A    between atoms: C_1  and  C_2
REMARK    2  A    between atoms: C_2  and  C_3
REMARK    3  A    between atoms: C_2  and  C_10
REMARK    4  A    between atoms: C_3  and  C_4
REMARK    5  A    between atoms: N_7  and  C_8
REMARK    6  A    between atoms: C_14  and  N_15
REMARK    7  A    between atoms: C_22  and  C_23
REMARK                            x       y       z     vdW  Elec       q    Type
REMARK                         _______ _______ _______ _____ _____    ______ ____
ROOT
ATOM      1  C   UNL     1       0.363  10.047  19.863  0.00  0.00    +0.000 A 
ATOM      2  C   UNL     1       0.338  10.247  21.240  0.00  0.00    +0.000 A 
ATOM      3  C   UNL     1       0.972   9.341  22.105  0.00  0.00    +0.000 A 
ATOM      4  C   UNL     1       1.632   8.205  21.612  0.00  0.00    +0.000 A 
ATOM      5  C   UNL     1       1.653   7.962  20.246  0.00  0.00    +0.000 A 
ATOM      6  C   UNL     1       1.025   8.905  19.399  0.00  0.00    +0.000 A 
ENDROOT
BRANCH   5   7
ATOM      7  N   UNL     1       2.244   6.816  19.652  0.00  0.00    +0.000 N 
ATOM      8  C   UNL     1       3.265   7.020  18.656  0.00  0.00    +0.000 C 
ATOM      9  C   UNL     1       3.555   5.672  18.130  0.00  0.00    +0.000 A 
ATOM     10  C   UNL     1       2.854   4.724  18.868  0.00  0.00    +0.000 A 
ATOM     11  C   UNL     1       3.039   3.376  18.627  0.00  0.00    +0.000 A 
ATOM     12  C   UNL     1       3.939   3.014  17.607  0.00  0.00    +0.000 A 
ATOM     13  C   UNL     1       4.600   3.989  16.832  0.00  0.00    +0.000 A 
ATOM     14  C   UNL     1       4.408   5.352  17.080  0.00  0.00    +0.000 A 
ATOM     15  C   UNL     1       1.969   5.451  19.829  0.00  0.00    +0.000 C 
ATOM     16  O   UNL     1       1.185   4.895  20.570  0.00  0.00    +0.000 OA
BRANCH  14  17
ATOM     17  C   UNL     1       5.071   6.418  16.237  0.00  0.00    +0.000 C 
ATOM     18  F   UNL     1       6.052   7.109  16.886  0.00  0.00    +0.000 F 
ATOM     19  F   UNL     1       5.665   5.913  15.124  0.00  0.00    +0.000 F 
ATOM     20  F   UNL     1       4.189   7.361  15.807  0.00  0.00    +0.000 F 
ENDBRANCH  14  17
ENDBRANCH   5   7
BRANCH   1  22
ATOM     21  C   UNL     1       0.529  12.306  18.661  0.00  0.00    +0.000 C 
ATOM     22  C   UNL     1      -0.246  10.996  18.832  0.00  0.00    +0.000 C 
BRANCH  22  23
ATOM     23  C   UNL     1      -1.762  11.256  19.020  0.00  0.00    +0.000 C 
BRANCH  23  24
ATOM     24  C   UNL     1      -2.560  11.139  17.774  0.00  0.00    +0.000 A 
ATOM     25  N   UNL     1      -3.836  11.634  17.673  0.00  0.00    +0.000 NA
ATOM     26  C   UNL     1      -4.181  11.303  16.450  0.00  0.00    +0.000 A 
ATOM     27  N   UNL     1      -3.158  10.655  15.848  0.00  0.00    +0.000 N 
ATOM     28  C   UNL     1      -3.109  10.105  14.518  0.00  0.00    +0.000 C 
ATOM     29  N   UNL     1      -2.090  10.565  16.660  0.00  0.00    +0.000 NA
ENDBRANCH  23  24
ENDBRANCH  22  23
ENDBRANCH   1  22
TORSDOF 5
ENDMDL
MODEL 7
REMARK VINA RESULT:      -8.6      4.180      8.296
REMARK  Name = 
REMARK  7 active torsions:
REMARK  status: ('A' for Active; 'I' for Inactive)
REMARK    1  A    between atoms: C_1  and  C_2
REMARK    2  A    between atoms: C_2  and  C_3
REMARK    3  A    between atoms: C_2  and  C_10
REMARK    4  A    between atoms: C_3  and  C_4
REMARK    5  A    between atoms: N_7  and  C_8
REMARK    6  A    between atoms: C_14  and  N_15
REMARK    7  A    between atoms: C_22  and  C_23
REMARK                            x       y       z     vdW  Elec       q    Type
REMARK                         _______ _______ _______ _____ _____    ______ ____
ROOT
ATOM      1  C   UNL     1       0.821  10.217  19.643  0.00  0.00    +0.000 A 
ATOM      2  C   UNL     1       0.473  10.292  20.988  0.00  0.00    +0.000 A 
ATOM      3  C   UNL     1       0.764   9.230  21.860  0.00  0.00    +0.000 A 
ATOM      4  C   UNL     1       1.394   8.063  21.402  0.00  0.00    +0.000 A 
ATOM      5  C   UNL     1       1.729   7.946  20.060  0.00  0.00    +0.000 A 
ATOM      6  C   UNL     1       1.445   9.041  19.212  0.00  0.00    +0.000 A 
ENDROOT
BRANCH   5   7
ATOM      7  N   UNL     1       2.317   6.788  19.487  0.00  0.00    +0.000 N 
ATOM      8  C   UNL     1       3.348   6.971  18.498  0.00  0.00    +0.000 C 
ATOM      9  C   UNL     1       3.633   5.614  17.992  0.00  0.00    +0.000 A 
ATOM     10  C   UNL     1       2.917   4.681  18.736  0.00  0.00    +0.000 A 
ATOM     11  C   UNL     1       3.094   3.329  18.513  0.00  0.00    +0.000 A 
ATOM     12  C   UNL     1       4.001   2.946  17.507  0.00  0.00    +0.000 A 
ATOM     13  C   UNL     1       4.676   3.907  16.725  0.00  0.00    +0.000 A 
ATOM     14  C   UNL     1       4.492   5.274  16.954  0.00  0.00    +0.000 A 
ATOM     15  C   UNL     1       2.030   5.427  19.679  0.00  0.00    +0.000 C 
ATOM     16  O   UNL     1       1.235   4.887  20.420  0.00  0.00    +0.000 OA
BRANCH  14  17
ATOM     17  C   UNL     1       5.170   6.324  16.102  0.00  0.00    +0.000 C 
ATOM     18  F   UNL     1       4.324   7.279  15.620  0.00  0.00    +0.000 F 
ATOM     19  F   UNL     1       6.133   7.006  16.777  0.00  0.00    +0.000 F 
ATOM     20  F   UNL     1       5.775   5.791  15.006  0.00  0.00    +0.000 F 
ENDBRANCH  14  17
ENDBRANCH   5   7
BRANCH   1  22
ATOM     21  C   UNL     1       1.650  12.448  18.688  0.00  0.00    +0.000 C 
ATOM     22  C   UNL     1       0.602  11.333  18.622  0.00  0.00    +0.000 C 
BRANCH  22  23
ATOM     23  C   UNL     1      -0.837  11.908  18.604  0.00  0.00    +0.000 C 
BRANCH  23  24
ATOM     24  C   UNL     1      -1.800  11.120  17.796  0.00  0.00    +0.000 A 
ATOM     25  N   UNL     1      -2.458  10.027  18.302  0.00  0.00    +0.000 NA
ATOM     26  C   UNL     1      -3.170   9.616  17.278  0.00  0.00    +0.000 A 
ATOM     27  N   UNL     1      -2.957  10.430  16.219  0.00  0.00    +0.000 N 
ATOM     28  C   UNL     1      -3.520  10.339  14.897  0.00  0.00    +0.000 C 
ATOM     29  N   UNL     1      -2.109  11.426  16.530  0.00  0.00    +0.000 NA
ENDBRANCH  23  24
ENDBRANCH  22  23
ENDBRANCH   1  22
TORSDOF 5
ENDMDL
MODEL 8
REMARK VINA RESULT:      -8.5      4.182      8.593
REMARK  Name = 
REMARK  7 active torsions:
REMARK  status: ('A' for Active; 'I' for Inactive)
REMARK    1  A    between atoms: C_1  and  C_2
REMARK    2  A    between atoms: C_2  and  C_3
REMARK    3  A    between atoms: C_2  and  C_10
REMARK    4  A    between atoms: C_3  and  C_4
REMARK    5  A    between atoms: N_7  and  C_8
REMARK    6  A    between atoms: C_14  and  N_15
REMARK    7  A    between atoms: C_22  and  C_23
REMARK                            x       y       z     vdW  Elec       q    Type
REMARK                         _______ _______ _______ _____ _____    ______ ____
ROOT
ATOM      1  C   UNL     1       0.852  10.166  19.733  0.00  0.00    +0.000 A 
ATOM      2  C   UNL     1       0.548  10.242  21.088  0.00  0.00    +0.000 A 
ATOM      3  C   UNL     1       0.866   9.181  21.952  0.00  0.00    +0.000 A 
ATOM      4  C   UNL     1       1.481   8.013  21.475  0.00  0.00    +0.000 A 
ATOM      5  C   UNL     1       1.773   7.895  20.124  0.00  0.00    +0.000 A 
ATOM      6  C   UNL     1       1.462   8.989  19.283  0.00  0.00    +0.000 A 
ENDROOT
BRANCH   5   7
ATOM      7  N   UNL     1       2.343   6.736  19.533  0.00  0.00    +0.000 N 
ATOM      8  C   UNL     1       3.383   6.917  18.554  0.00  0.00    +0.000 C 
ATOM      9  C   UNL     1       3.645   5.564  18.025  0.00  0.00    +0.000 A 
ATOM     10  C   UNL     1       2.907   4.632  18.748  0.00  0.00    +0.000 A 
ATOM     11  C   UNL     1       3.060   3.280  18.502  0.00  0.00    +0.000 A 
ATOM     12  C   UNL     1       3.965   2.899  17.495  0.00  0.00    +0.000 A 
ATOM     13  C   UNL     1       4.664   3.860  16.734  0.00  0.00    +0.000 A 
ATOM     14  C   UNL     1       4.505   5.226  16.987  0.00  0.00    +0.000 A 
ATOM     15  C   UNL     1       2.028   5.378  19.699  0.00  0.00    +0.000 C 
ATOM     16  O   UNL     1       1.219   4.840  20.425  0.00  0.00    +0.000 OA
BRANCH  14  17
ATOM     17  C   UNL     1       5.209   6.278  16.159  0.00  0.00    +0.000 C 
ATOM     18  F   UNL     1       5.875   5.779  15.078  0.00  0.00    +0.000 F 
ATOM     19  F   UNL     1       4.356   7.208  15.656  0.00  0.00    +0.000 F 
ATOM     20  F   UNL     1       6.143   6.961  16.874  0.00  0.00    +0.000 F 
ENDBRANCH  14  17
ENDBRANCH   5   7
BRANCH   1  22
ATOM     21  C   UNL     1       1.789  12.227  18.530  0.00  0.00    +0.000 C 
ATOM     22  C   UNL     1       0.600  11.280  18.718  0.00  0.00    +0.000 C 
BRANCH  22  23
ATOM     23  C   UNL     1      -0.718  12.063  18.944  0.00  0.00    +0.000 C 
BRANCH  23  24
ATOM     24  C   UNL     1      -1.929  11.382  18.422  0.00  0.00    +0.000 A 
ATOM     25  N   UNL     1      -1.857  10.262  17.632  0.00  0.00    +0.000 NA
ATOM     26  C   UNL     1      -3.119  10.007  17.373  0.00  0.00    +0.000 A 
ATOM     27  N   UNL     1      -3.904  10.920  17.988  0.00  0.00    +0.000 N 
ATOM     28  C   UNL     1      -5.340  11.024  17.961  0.00  0.00    +0.000 C 
ATOM     29  N   UNL     1      -3.172  11.795  18.698  0.00  0.00    +0.000 NA
ENDBRANCH  23  24
ENDBRANCH  22  23
ENDBRANCH   1  22
TORSDOF 5
ENDMDL
MODEL 9
REMARK VINA RESULT:      -8.4      3.735      7.960
REMARK  Name = 
REMARK  7 active torsions:
REMARK  status: ('A' for Active; 'I' for Inactive)
REMARK    1  A    between atoms: C_1  and  C_2
REMARK    2  A    between atoms: C_2  and  C_3
REMARK    3  A    between atoms: C_2  and  C_10
REMARK    4  A    between atoms: C_3  and  C_4
REMARK    5  A    between atoms: N_7  and  C_8
REMARK    6  A    between atoms: C_14  and  N_15
REMARK    7  A    between atoms: C_22  and  C_23
REMARK                            x       y       z     vdW  Elec       q    Type
REMARK                         _______ _______ _______ _____ _____    ______ ____
ROOT
ATOM      1  C   UNL     1       0.769  10.420  19.657  0.00  0.00    +0.000 A 
ATOM      2  C   UNL     1       0.534  10.389  21.028  0.00  0.00    +0.000 A 
ATOM      3  C   UNL     1       0.893   9.265  21.789  0.00  0.00    +0.000 A 
ATOM      4  C   UNL     1       1.480   8.139  21.191  0.00  0.00    +0.000 A 
ATOM      5  C   UNL     1       1.702   8.127  19.822  0.00  0.00    +0.000 A 
ATOM      6  C   UNL     1       1.352   9.283  19.087  0.00  0.00    +0.000 A 
ENDROOT
BRANCH   5   7
ATOM      7  N   UNL     1       2.238   7.019  19.114  0.00  0.00    +0.000 N 
ATOM      8  C   UNL     1       1.739   5.706  19.434  0.00  0.00    +0.000 C 
ATOM      9  C   UNL     1       2.589   4.779  18.661  0.00  0.00    +0.000 A 
ATOM     10  C   UNL     1       3.437   5.508  17.832  0.00  0.00    +0.000 A 
ATOM     11  C   UNL     1       4.263   4.857  16.936  0.00  0.00    +0.000 A 
ATOM     12  C   UNL     1       4.222   3.451  16.913  0.00  0.00    +0.000 A 
ATOM     13  C   UNL     1       3.397   2.727  17.799  0.00  0.00    +0.000 A 
ATOM     14  C   UNL     1       2.563   3.390  18.705  0.00  0.00    +0.000 A 
ATOM     15  C   UNL     1       3.251   6.958  18.144  0.00  0.00    +0.000 C 
ATOM     16  O   UNL     1       3.900   7.842  17.626  0.00  0.00    +0.000 OA
BRANCH  14  17
ATOM     17  C   UNL     1       1.701   2.638  19.694  0.00  0.00    +0.000 C 
ATOM     18  F   UNL     1       1.801   1.281  19.597  0.00  0.00    +0.000 F 
ATOM     19  F   UNL     1       2.009   2.929  20.986  0.00  0.00    +0.000 F 
ATOM     20  F   UNL     1       0.378   2.915  19.543  0.00  0.00    +0.000 F 
ENDBRANCH  14  17
ENDBRANCH   5   7
BRANCH   1  22
ATOM     21  C   UNL     1       1.380  12.817  18.985  0.00  0.00    +0.000 C 
ATOM     22  C   UNL     1       0.468  11.610  18.747  0.00  0.00    +0.000 C 
BRANCH  22  23
ATOM     23  C   UNL     1      -1.024  12.026  18.710  0.00  0.00    +0.000 C 
BRANCH  23  24
ATOM     24  C   UNL     1      -1.870  11.186  17.826  0.00  0.00    +0.000 A 
ATOM     25  N   UNL     1      -2.478  10.038  18.269  0.00  0.00    +0.000 NA
ATOM     26  C   UNL     1      -3.088   9.598  17.193  0.00  0.00    +0.000 A 
ATOM     27  N   UNL     1      -2.867  10.448  16.164  0.00  0.00    +0.000 N 
ATOM     28  C   UNL     1      -3.333  10.344  14.806  0.00  0.00    +0.000 C 
ATOM     29  N   UNL     1      -2.118  11.496  16.548  0.00  0.00    +0.000 NA
ENDBRANCH  23  24
ENDBRANCH  22  23
ENDBRANCH   1  22
TORSDOF 5
ENDMDL
