MODEL 1
REMARK VINA RESULT:      -8.9      0.000      0.000
REMARK  Name = 
REMARK  7 active torsions:
REMARK  status: ('A' for Active; 'I' for Inactive)
REMARK    1  A    between atoms: C_1  and  C_2
REMARK    2  A    between atoms: C_2  and  S_3
REMARK    3  A    between atoms: C_2  and  C_10
REMARK    4  A    between atoms: S_3  and  C_4
REMARK    5  A    between atoms: N_8  and  C_9
REMARK    6  A    between atoms: C_14  and  C_15
REMARK    7  A    between atoms: C_17  and  C_18
REMARK                            x       y       z     vdW  Elec       q    Type
REMARK                         _______ _______ _______ _____ _____    ______ ____
ROOT
ATOM      1  C   UNL     1       4.870   4.919  18.025  0.00  0.00    +0.000 A 
ATOM      2  C   UNL     1       4.515   3.741  18.704  0.00  0.00    +0.000 A 
ATOM      3  C   UNL     1       3.474   3.729  19.635  0.00  0.00    +0.000 A 
ATOM      4  C   UNL     1       2.742   4.887  19.887  0.00  0.00    +0.000 A 
ATOM      5  C   UNL     1       3.036   6.069  19.199  0.00  0.00    +0.000 A 
ATOM      6  C   UNL     1       4.099   6.070  18.274  0.00  0.00    +0.000 A 
ENDROOT
BRANCH   5   7
ATOM      7  C   UNL     1       2.283   7.296  19.452  0.00  0.00    +0.000 A 
ATOM      8  C   UNL     1       1.607   7.728  20.572  0.00  0.00    +0.000 A 
ATOM      9  C   UNL     1       1.093   9.015  20.267  0.00  0.00    +0.000 A 
ATOM     10  N   UNL     1       1.398   9.351  19.004  0.00  0.00    +0.000 NA
ATOM     11  N   UNL     1       2.126   8.318  18.551  0.00  0.00    +0.000 N 
ATOM     12  H   UNL     1       2.502   8.378  17.611  0.00  0.00    +0.000 HD
BRANCH   9  13
ATOM     13  C   UNL     1       0.337   9.897  21.156  0.00  0.00    +0.000 A 
ATOM     14  C   UNL     1       0.127  11.241  20.811  0.00  0.00    +0.000 A 
ATOM     15  C   UNL     1      -0.586  12.090  21.659  0.00  0.00    +0.000 A 
ATOM     16  C   UNL     1      -1.096  11.605  22.862  0.00  0.00    +0.000 A 
ATOM     17  C   UNL     1      -0.898  10.271  23.214  0.00  0.00    +0.000 A 
ATOM     18  C   UNL     1      -0.189   9.419  22.363  0.00  0.00    +0.000 A 
ENDBRANCH   9  13
ENDBRANCH   5   7
BRANCH   1  20
ATOM     19  C   UNL     1       7.401   4.843  17.819  0.00  0.00    +0.000 C 
ATOM     20  C   UNL     1       6.069   4.996  17.076  0.00  0.00    +0.000 C 
BRANCH  20  21
ATOM     21  S   UNL     1       5.905   3.773  15.702  0.00  0.00    +0.000 S 
BRANCH  21  22
ATOM     22  C   UNL     1       6.804   4.533  14.430  0.00  0.00    +0.000 A 
ATOM     23  N   UNL     1       7.709   5.477  14.567  0.00  0.00    +0.000 NA
ATOM     24  N   UNL     1       8.261   5.725  13.331  0.00  0.00    +0.000 NA
ATOM     25  C   UNL     1       7.649   4.953  12.465  0.00  0.00    +0.000 A 
ATOM     26  N   UNL     1       6.701   4.208  13.105  0.00  0.00    +0.000 N 
ATOM     27  C   UNL     1       5.788   3.304  12.459  0.00  0.00    +0.000 C 
ENDBRANCH  21  22
ENDBRANCH  20  21
ENDBRANCH   1  20
TORSDOF 5
ENDMDL
MODEL 2
REMARK VINA RESULT:      -8.9      2.482      4.313
REMARK  Name = 
REMARK  7 active torsions:
REMARK  status: ('A' for Active; 'I' for Inactive)
REMARK    1  A    between atoms: C_1  and  C_2
REMARK    2  A    between atoms: C_2  and  S_3
REMARK    3  A    between atoms: C_2  and  C_10
REMARK    4  A    between atoms: S_3  and  C_4
REMARK    5  A    between atoms: N_8  and  C_9
REMARK    6  A    between atoms: C_14  and  C_15
REMARK    7  A    between atoms: C_17  and  C_18
REMARK                            x       y       z     vdW  Elec       q    Type
REMARK                         _______ _______ _______ _____ _____    ______ ____
ROOT
ATOM      1  C   UNL     1       2.410   7.279  19.300  0.00  0.00    +0.000 A 
ATOM      2  C   UNL     1       2.336   7.828  18.009  0.00  0.00    +0.000 A 
ATOM      3  C   UNL     1       1.619   9.001  17.762  0.00  0.00    +0.000 A 
ATOM      4  C   UNL     1       0.984   9.670  18.806  0.00  0.00    +0.000 A 
ATOM      5  C   UNL     1       1.072   9.179  20.114  0.00  0.00    +0.000 A 
ATOM      6  C   UNL     1       1.786   7.986  20.344  0.00  0.00    +0.000 A 
ENDROOT
BRANCH   5   7
ATOM      7  C   UNL     1       0.410   9.864  21.222  0.00  0.00    +0.000 A 
ATOM      8  C   UNL     1      -0.304  11.042  21.261  0.00  0.00    +0.000 A 
ATOM      9  C   UNL     1      -0.753  11.203  22.597  0.00  0.00    +0.000 A 
ATOM     10  N   UNL     1      -0.305  10.196  23.363  0.00  0.00    +0.000 NA
ATOM     11  N   UNL     1       0.365   9.402  22.513  0.00  0.00    +0.000 N 
ATOM     12  H   UNL     1       0.763   8.544  22.877  0.00  0.00    +0.000 HD
BRANCH   9  13
ATOM     13  C   UNL     1      -1.586  12.283  23.125  0.00  0.00    +0.000 A 
ATOM     14  C   UNL     1      -1.061  13.576  23.272  0.00  0.00    +0.000 A 
ATOM     15  C   UNL     1      -1.849  14.610  23.783  0.00  0.00    +0.000 A 
ATOM     16  C   UNL     1      -3.169  14.361  24.154  0.00  0.00    +0.000 A 
ATOM     17  C   UNL     1      -3.703  13.082  24.008  0.00  0.00    +0.000 A 
ATOM     18  C   UNL     1      -2.917  12.048  23.492  0.00  0.00    +0.000 A 
ENDBRANCH   9  13
ENDBRANCH   5   7
BRANCH   1  20
ATOM     19  C   UNL     1       2.277   5.070  20.549  0.00  0.00    +0.000 C 
ATOM     20  C   UNL     1       3.098   5.942  19.591  0.00  0.00    +0.000 C 
BRANCH  20  21
ATOM     21  S   UNL     1       3.500   5.050  18.024  0.00  0.00    +0.000 S 
BRANCH  21  22
ATOM     22  C   UNL     1       5.229   4.944  18.101  0.00  0.00    +0.000 A 
ATOM     23  N   UNL     1       5.963   4.897  19.191  0.00  0.00    +0.000 NA
ATOM     24  N   UNL     1       7.273   4.705  18.817  0.00  0.00    +0.000 NA
ATOM     25  C   UNL     1       7.309   4.680  17.506  0.00  0.00    +0.000 A 
ATOM     26  N   UNL     1       6.050   4.859  17.010  0.00  0.00    +0.000 N 
ATOM     27  C   UNL     1       5.721   4.961  15.614  0.00  0.00    +0.000 C 
ENDBRANCH  21  22
ENDBRANCH  20  21
ENDBRANCH   1  20
TORSDOF 5
ENDMDL
MODEL 3
REMARK VINA RESULT:      -8.6      3.655      5.183
REMARK  Name = 
REMARK  7 active torsions:
REMARK  status: ('A' for Active; 'I' for Inactive)
REMARK    1  A    between atoms: C_1  and  C_2
REMARK    2  A    between atoms: C_2  and  S_3
REMARK    3  A    between atoms: C_2  and  C_10
REMARK    4  A    between atoms: S_3  and  C_4
REMARK    5  A    between atoms: N_8  and  C_9
REMARK    6  A    between atoms: C_14  and  C_15
REMARK    7  A    between atoms: C_17  and  C_18
REMARK                            x       y       z     vdW  Elec       q    Type
REMARK                         _______ _______ _______ _____ _____    ______ ____
ROOT
ATOM      1  C   UNL     1       2.232   7.383  19.506  0.00  0.00    +0.000 A 
ATOM      2  C   UNL     1       2.264   7.960  18.226  0.00  0.00    +0.000 A 
ATOM      3  C   UNL     1       1.605   9.162  17.958  0.00  0.00    +0.000 A 
ATOM      4  C   UNL     1       0.924   9.832  18.972  0.00  0.00    +0.000 A 
ATOM      5  C   UNL     1       0.907   9.313  20.271  0.00  0.00    +0.000 A 
ATOM      6  C   UNL     1       1.564   8.092  20.522  0.00  0.00    +0.000 A 
ENDROOT
BRANCH   5   7
ATOM      7  C   UNL     1       0.196   9.999  21.348  0.00  0.00    +0.000 A 
ATOM      8  C   UNL     1      -0.459  11.211  21.372  0.00  0.00    +0.000 A 
ATOM      9  C   UNL     1      -1.002  11.355  22.675  0.00  0.00    +0.000 A 
ATOM     10  N   UNL     1      -0.667  10.304  23.438  0.00  0.00    +0.000 NA
ATOM     11  N   UNL     1       0.027   9.502  22.616  0.00  0.00    +0.000 N 
ATOM     12  H   UNL     1       0.351   8.612  22.980  0.00  0.00    +0.000 HD
BRANCH   9  13
ATOM     13  C   UNL     1      -1.818  12.462  23.173  0.00  0.00    +0.000 A 
ATOM     14  C   UNL     1      -3.174  12.263  23.478  0.00  0.00    +0.000 A 
ATOM     15  C   UNL     1      -3.960  13.317  23.946  0.00  0.00    +0.000 A 
ATOM     16  C   UNL     1      -3.401  14.583  24.112  0.00  0.00    +0.000 A 
ATOM     17  C   UNL     1      -2.055  14.793  23.816  0.00  0.00    +0.000 A 
ATOM     18  C   UNL     1      -1.265  13.737  23.353  0.00  0.00    +0.000 A 
ENDBRANCH   9  13
ENDBRANCH   5   7
BRANCH   1  20
ATOM     19  C   UNL     1       1.853   5.067  20.479  0.00  0.00    +0.000 C 
ATOM     20  C   UNL     1       2.854   6.018  19.813  0.00  0.00    +0.000 C 
BRANCH  20  21
ATOM     21  S   UNL     1       3.601   5.275  18.296  0.00  0.00    +0.000 S 
BRANCH  21  22
ATOM     22  C   UNL     1       4.057   3.698  18.850  0.00  0.00    +0.000 A 
ATOM     23  N   UNL     1       5.055   3.409  19.656  0.00  0.00    +0.000 NA
ATOM     24  N   UNL     1       5.006   2.062  19.934  0.00  0.00    +0.000 NA
ATOM     25  C   UNL     1       4.001   1.557  19.259  0.00  0.00    +0.000 A 
ATOM     26  N   UNL     1       3.393   2.543  18.536  0.00  0.00    +0.000 N 
ATOM     27  C   UNL     1       2.302   2.341  17.622  0.00  0.00    +0.000 C 
ENDBRANCH  21  22
ENDBRANCH  20  21
ENDBRANCH   1  20
TORSDOF 5
ENDMDL
MODEL 4
REMARK VINA RESULT:      -8.5      2.631      4.397
REMARK  Name = 
REMARK  7 active torsions:
REMARK  status: ('A' for Active; 'I' for Inactive)
REMARK    1  A    between atoms: C_1  and  C_2
REMARK    2  A    between atoms: C_2  and  S_3
REMARK    3  A    between atoms: C_2  and  C_10
REMARK    4  A    between atoms: S_3  and  C_4
REMARK    5  A    between atoms: N_8  and  C_9
REMARK    6  A    between atoms: C_14  and  C_15
REMARK    7  A    between atoms: C_17  and  C_18
REMARK                            x       y       z     vdW  Elec       q    Type
REMARK                         _______ _______ _______ _____ _____    ______ ____
ROOT
ATOM      1  C   UNL     1       2.560   6.747  19.486  0.00  0.00    +0.000 A 
ATOM      2  C   UNL     1       2.664   7.304  18.201  0.00  0.00    +0.000 A 
ATOM      3  C   UNL     1       2.053   8.520  17.887  0.00  0.00    +0.000 A 
ATOM      4  C   UNL     1       1.349   9.225  18.862  0.00  0.00    +0.000 A 
ATOM      5  C   UNL     1       1.259   8.725  20.165  0.00  0.00    +0.000 A 
ATOM      6  C   UNL     1       1.868   7.489  20.462  0.00  0.00    +0.000 A 
ENDROOT
BRANCH   5   7
ATOM      7  C   UNL     1       0.521   9.446  21.200  0.00  0.00    +0.000 A 
ATOM      8  C   UNL     1      -0.004  10.720  21.216  0.00  0.00    +0.000 A 
ATOM      9  C   UNL     1      -0.653  10.878  22.468  0.00  0.00    +0.000 A 
ATOM     10  N   UNL     1      -0.504   9.772  23.213  0.00  0.00    +0.000 NA
ATOM     11  N   UNL     1       0.180   8.928  22.424  0.00  0.00    +0.000 N 
ATOM     12  H   UNL     1       0.374   7.998  22.778  0.00  0.00    +0.000 HD
BRANCH   9  13
ATOM     13  C   UNL     1      -1.395  12.049  22.935  0.00  0.00    +0.000 A 
ATOM     14  C   UNL     1      -2.719  11.917  23.381  0.00  0.00    +0.000 A 
ATOM     15  C   UNL     1      -3.436  13.032  23.820  0.00  0.00    +0.000 A 
ATOM     16  C   UNL     1      -2.837  14.290  23.818  0.00  0.00    +0.000 A 
ATOM     17  C   UNL     1      -1.521  14.433  23.382  0.00  0.00    +0.000 A 
ATOM     18  C   UNL     1      -0.801  13.317  22.946  0.00  0.00    +0.000 A 
ENDBRANCH   9  13
ENDBRANCH   5   7
BRANCH   1  20
ATOM     19  C   UNL     1       2.039   4.410  20.335  0.00  0.00    +0.000 C 
ATOM     20  C   UNL     1       3.127   5.369  19.838  0.00  0.00    +0.000 C 
BRANCH  20  21
ATOM     21  S   UNL     1       4.072   4.660  18.418  0.00  0.00    +0.000 S 
BRANCH  21  22
ATOM     22  C   UNL     1       5.691   5.172  18.768  0.00  0.00    +0.000 A 
ATOM     23  N   UNL     1       6.326   5.031  19.911  0.00  0.00    +0.000 NA
ATOM     24  N   UNL     1       7.620   5.467  19.739  0.00  0.00    +0.000 NA
ATOM     25  C   UNL     1       7.729   5.898  18.505  0.00  0.00    +0.000 A 
ATOM     26  N   UNL     1       6.531   5.763  17.865  0.00  0.00    +0.000 N 
ATOM     27  C   UNL     1       6.259   6.201  16.523  0.00  0.00    +0.000 C 
ENDBRANCH  21  22
ENDBRANCH  20  21
ENDBRANCH   1  20
TORSDOF 5
ENDMDL
MODEL 5
REMARK VINA RESULT:      -8.5      4.043      5.476
REMARK  Name = 
REMARK  7 active torsions:
REMARK  status: ('A' for Active; 'I' for Inactive)
REMARK    1  A    between atoms: C_1  and  C_2
REMARK    2  A    between atoms: C_2  and  S_3
REMARK    3  A    between atoms: C_2  and  C_10
REMARK    4  A    between atoms: S_3  and  C_4
REMARK    5  A    between atoms: N_8  and  C_9
REMARK    6  A    between atoms: C_14  and  C_15
REMARK    7  A    between atoms: C_17  and  C_18
REMARK                            x       y       z     vdW  Elec       q    Type
REMARK                         _______ _______ _______ _____ _____    ______ ____
ROOT
ATOM      1  C   UNL     1       2.276   7.566  19.307  0.00  0.00    +0.000 A 
ATOM      2  C   UNL     1       2.286   8.193  18.051  0.00  0.00    +0.000 A 
ATOM      3  C   UNL     1       1.626   9.407  17.843  0.00  0.00    +0.000 A 
ATOM      4  C   UNL     1       0.967  10.038  18.896  0.00  0.00    +0.000 A 
ATOM      5  C   UNL     1       0.972   9.466  20.173  0.00  0.00    +0.000 A 
ATOM      6  C   UNL     1       1.630   8.234  20.363  0.00  0.00    +0.000 A 
ENDROOT
BRANCH   5   7
ATOM      7  C   UNL     1       0.284  10.110  21.290  0.00  0.00    +0.000 A 
ATOM      8  C   UNL     1      -0.474  11.260  21.344  0.00  0.00    +0.000 A 
ATOM      9  C   UNL     1      -0.931  11.385  22.682  0.00  0.00    +0.000 A 
ATOM     10  N   UNL     1      -0.446  10.385  23.434  0.00  0.00    +0.000 NA
ATOM     11  N   UNL     1       0.254   9.629  22.574  0.00  0.00    +0.000 N 
ATOM     12  H   UNL     1       0.683   8.781  22.927  0.00  0.00    +0.000 HD
BRANCH   9  13
ATOM     13  C   UNL     1      -1.804  12.426  23.222  0.00  0.00    +0.000 A 
ATOM     14  C   UNL     1      -1.331  13.737  23.384  0.00  0.00    +0.000 A 
ATOM     15  C   UNL     1      -2.157  14.733  23.907  0.00  0.00    +0.000 A 
ATOM     16  C   UNL     1      -3.466  14.428  24.277  0.00  0.00    +0.000 A 
ATOM     17  C   UNL     1      -3.950  13.131  24.118  0.00  0.00    +0.000 A 
ATOM     18  C   UNL     1      -3.125  12.134  23.589  0.00  0.00    +0.000 A 
ENDBRANCH   9  13
ENDBRANCH   5   7
BRANCH   1  20
ATOM     19  C   UNL     1       2.120   5.379  20.591  0.00  0.00    +0.000 C 
ATOM     20  C   UNL     1       2.899   6.187  19.547  0.00  0.00    +0.000 C 
BRANCH  20  21
ATOM     21  S   UNL     1       3.086   5.260  17.960  0.00  0.00    +0.000 S 
BRANCH  21  22
ATOM     22  C   UNL     1       2.260   3.777  18.307  0.00  0.00    +0.000 A 
ATOM     23  N   UNL     1       1.007   3.494  18.022  0.00  0.00    +0.000 NA
ATOM     24  N   UNL     1       0.777   2.180  18.363  0.00  0.00    +0.000 NA
ATOM     25  C   UNL     1       1.884   1.708  18.882  0.00  0.00    +0.000 A 
ATOM     26  N   UNL     1       2.836   2.686  18.898  0.00  0.00    +0.000 N 
ATOM     27  C   UNL     1       4.151   2.548  19.464  0.00  0.00    +0.000 C 
ENDBRANCH  21  22
ENDBRANCH  20  21
ENDBRANCH   1  20
TORSDOF 5
ENDMDL
MODEL 6
REMARK VINA RESULT:      -8.4      2.409      3.881
REMARK  Name = 
REMARK  7 active torsions:
REMARK  status: ('A' for Active; 'I' for Inactive)
REMARK    1  A    between atoms: C_1  and  C_2
REMARK    2  A    between atoms: C_2  and  S_3
REMARK    3  A    between atoms: C_2  and  C_10
REMARK    4  A    between atoms: S_3  and  C_4
REMARK    5  A    between atoms: N_8  and  C_9
REMARK    6  A    between atoms: C_14  and  C_15
REMARK    7  A    between atoms: C_17  and  C_18
REMARK                            x       y       z     vdW  Elec       q    Type
REMARK                         _______ _______ _______ _____ _____    ______ ____
ROOT
ATOM      1  C   UNL     1       2.527   5.738  19.437  0.00  0.00    +0.000 A 
ATOM      2  C   UNL     1       2.754   6.189  18.127  0.00  0.00    +0.000 A 
ATOM      3  C   UNL     1       2.434   7.494  17.745  0.00  0.00    +0.000 A 
ATOM      4  C   UNL     1       1.910   8.390  18.675  0.00  0.00    +0.000 A 
ATOM      5  C   UNL     1       1.711   7.992  20.001  0.00  0.00    +0.000 A 
ATOM      6  C   UNL     1       2.024   6.667  20.367  0.00  0.00    +0.000 A 
ENDROOT
BRANCH   5   7
ATOM      7  C   UNL     1       1.158   8.915  20.990  0.00  0.00    +0.000 A 
ATOM      8  C   UNL     1       0.302   9.986  20.850  0.00  0.00    +0.000 A 
ATOM      9  C   UNL     1       0.070  10.496  22.153  0.00  0.00    +0.000 A 
ATOM     10  N   UNL     1       0.780   9.804  23.058  0.00  0.00    +0.000 NA
ATOM     11  N   UNL     1       1.400   8.855  22.340  0.00  0.00    +0.000 N 
ATOM     12  H   UNL     1       1.972   8.180  22.836  0.00  0.00    +0.000 HD
BRANCH   9  13
ATOM     13  C   UNL     1      -0.805  11.608  22.523  0.00  0.00    +0.000 A 
ATOM     14  C   UNL     1      -0.436  12.930  22.228  0.00  0.00    +0.000 A 
ATOM     15  C   UNL     1      -1.263  13.996  22.586  0.00  0.00    +0.000 A 
ATOM     16  C   UNL     1      -2.467  13.753  23.244  0.00  0.00    +0.000 A 
ATOM     17  C   UNL     1      -2.847  12.445  23.539  0.00  0.00    +0.000 A 
ATOM     18  C   UNL     1      -2.023  11.376  23.176  0.00  0.00    +0.000 A 
ENDBRANCH   9  13
ENDBRANCH   5   7
BRANCH   1  20
ATOM     19  C   UNL     1       1.455   3.552  20.164  0.00  0.00    +0.000 C 
ATOM     20  C   UNL     1       2.767   4.287  19.865  0.00  0.00    +0.000 C 
BRANCH  20  21
ATOM     21  S   UNL     1       3.788   3.390  18.616  0.00  0.00    +0.000 S 
BRANCH  21  22
ATOM     22  C   UNL     1       5.297   4.239  18.703  0.00  0.00    +0.000 A 
ATOM     23  N   UNL     1       5.854   4.736  19.785  0.00  0.00    +0.000 NA
ATOM     24  N   UNL     1       7.091   5.231  19.442  0.00  0.00    +0.000 NA
ATOM     25  C   UNL     1       7.241   5.057  18.151  0.00  0.00    +0.000 A 
ATOM     26  N   UNL     1       6.123   4.465  17.636  0.00  0.00    +0.000 N 
ATOM     27  C   UNL     1       5.904   4.190  16.242  0.00  0.00    +0.000 C 
ENDBRANCH  21  22
ENDBRANCH  20  21
ENDBRANCH   1  20
TORSDOF 5
ENDMDL
MODEL 7
REMARK VINA RESULT:      -8.4      2.554      4.445
REMARK  Name = 
REMARK  7 active torsions:
REMARK  status: ('A' for Active; 'I' for Inactive)
REMARK    1  A    between atoms: C_1  and  C_2
REMARK    2  A    between atoms: C_2  and  S_3
REMARK    3  A    between atoms: C_2  and  C_10
REMARK    4  A    between atoms: S_3  and  C_4
REMARK    5  A    between atoms: N_8  and  C_9
REMARK    6  A    between atoms: C_14  and  C_15
REMARK    7  A    between atoms: C_17  and  C_18
REMARK                            x       y       z     vdW  Elec       q    Type
REMARK                         _______ _______ _______ _____ _____    ______ ____
ROOT
ATOM      1  C   UNL     1       2.496   7.204  19.355  0.00  0.00    +0.000 A 
ATOM      2  C   UNL     1       2.674   7.725  18.063  0.00  0.00    +0.000 A 
ATOM      3  C   UNL     1       2.083   8.931  17.681  0.00  0.00    +0.000 A 
ATOM      4  C   UNL     1       1.324   9.662  18.594  0.00  0.00    +0.000 A 
ATOM      5  C   UNL     1       1.160   9.199  19.904  0.00  0.00    +0.000 A 
ATOM      6  C   UNL     1       1.750   7.973  20.269  0.00  0.00    +0.000 A 
ENDROOT
BRANCH   5   7
ATOM      7  C   UNL     1       0.365   9.949  20.874  0.00  0.00    +0.000 A 
ATOM      8  C   UNL     1      -0.681  10.829  20.700  0.00  0.00    +0.000 A 
ATOM      9  C   UNL     1      -1.099  11.227  21.996  0.00  0.00    +0.000 A 
ATOM     10  N   UNL     1      -0.324  10.656  22.931  0.00  0.00    +0.000 NA
ATOM     11  N   UNL     1       0.524   9.883  22.235  0.00  0.00    +0.000 N 
ATOM     12  H   UNL     1       1.188   9.318  22.754  0.00  0.00    +0.000 HD
BRANCH   9  13
ATOM     13  C   UNL     1      -2.206  12.122  22.331  0.00  0.00    +0.000 A 
ATOM     14  C   UNL     1      -2.789  12.084  23.606  0.00  0.00    +0.000 A 
ATOM     15  C   UNL     1      -3.852  12.930  23.929  0.00  0.00    +0.000 A 
ATOM     16  C   UNL     1      -4.344  13.823  22.979  0.00  0.00    +0.000 A 
ATOM     17  C   UNL     1      -3.771  13.874  21.709  0.00  0.00    +0.000 A 
ATOM     18  C   UNL     1      -2.703  13.031  21.387  0.00  0.00    +0.000 A 
ENDBRANCH   9  13
ENDBRANCH   5   7
BRANCH   1  20
ATOM     19  C   UNL     1       2.043   5.065  20.650  0.00  0.00    +0.000 C 
ATOM     20  C   UNL     1       3.041   5.837  19.778  0.00  0.00    +0.000 C 
BRANCH  20  21
ATOM     21  S   UNL     1       3.572   4.853  18.308  0.00  0.00    +0.000 S 
BRANCH  21  22
ATOM     22  C   UNL     1       5.299   4.950  18.411  0.00  0.00    +0.000 A 
ATOM     23  N   UNL     1       6.000   5.368  19.443  0.00  0.00    +0.000 NA
ATOM     24  N   UNL     1       7.333   5.183  19.159  0.00  0.00    +0.000 NA
ATOM     25  C   UNL     1       7.413   4.693  17.945  0.00  0.00    +0.000 A 
ATOM     26  N   UNL     1       6.160   4.559  17.422  0.00  0.00    +0.000 N 
ATOM     27  C   UNL     1       5.867   4.121  16.084  0.00  0.00    +0.000 C 
ENDBRANCH  21  22
ENDBRANCH  20  21
ENDBRANCH   1  20
TORSDOF 5
ENDMDL
MODEL 8
REMARK VINA RESULT:      -8.4      1.922      2.288
REMARK  Name = 
REMARK  7 active torsions:
REMARK  status: ('A' for Active; 'I' for Inactive)
REMARK    1  A    between atoms: C_1  and  C_2
REMARK    2  A    between atoms: C_2  and  S_3
REMARK    3  A    between atoms: C_2  and  C_10
REMARK    4  A    between atoms: S_3  and  C_4
REMARK    5  A    between atoms: N_8  and  C_9
REMARK    6  A    between atoms: C_14  and  C_15
REMARK    7  A    between atoms: C_17  and  C_18
REMARK                            x       y       z     vdW  Elec       q    Type
REMARK                         _______ _______ _______ _____ _____    ______ ____
ROOT
ATOM      1  C   UNL     1       4.513   5.312  17.155  0.00  0.00    +0.000 A 
ATOM      2  C   UNL     1       3.790   4.118  17.307  0.00  0.00    +0.000 A 
ATOM      3  C   UNL     1       2.552   4.100  17.953  0.00  0.00    +0.000 A 
ATOM      4  C   UNL     1       1.993   5.282  18.435  0.00  0.00    +0.000 A 
ATOM      5  C   UNL     1       2.662   6.498  18.264  0.00  0.00    +0.000 A 
ATOM      6  C   UNL     1       3.917   6.498  17.624  0.00  0.00    +0.000 A 
ENDROOT
BRANCH   5   7
ATOM      7  C   UNL     1       2.094   7.748  18.766  0.00  0.00    +0.000 A 
ATOM      8  C   UNL     1       1.872   8.956  18.142  0.00  0.00    +0.000 A 
ATOM      9  C   UNL     1       1.261   9.804  19.101  0.00  0.00    +0.000 A 
ATOM     10  N   UNL     1       1.146   9.169  20.278  0.00  0.00    +0.000 NA
ATOM     11  N   UNL     1       1.629   7.940  20.043  0.00  0.00    +0.000 N 
ATOM     12  H   UNL     1       1.603   7.265  20.800  0.00  0.00    +0.000 HD
BRANCH   9  13
ATOM     13  C   UNL     1       0.798  11.177  18.899  0.00  0.00    +0.000 A 
ATOM     14  C   UNL     1      -0.564  11.442  18.688  0.00  0.00    +0.000 A 
ATOM     15  C   UNL     1      -1.011  12.750  18.485  0.00  0.00    +0.000 A 
ATOM     16  C   UNL     1      -0.101  13.805  18.489  0.00  0.00    +0.000 A 
ATOM     17  C   UNL     1       1.254  13.555  18.701  0.00  0.00    +0.000 A 
ATOM     18  C   UNL     1       1.702  12.247  18.909  0.00  0.00    +0.000 A 
ENDBRANCH   9  13
ENDBRANCH   5   7
BRANCH   1  20
ATOM     19  C   UNL     1       7.001   5.546  17.614  0.00  0.00    +0.000 C 
ATOM     20  C   UNL     1       5.918   5.356  16.546  0.00  0.00    +0.000 C 
BRANCH  20  21
ATOM     21  S   UNL     1       6.234   3.863  15.505  0.00  0.00    +0.000 S 
BRANCH  21  22
ATOM     22  C   UNL     1       6.923   4.558  14.074  0.00  0.00    +0.000 A 
ATOM     23  N   UNL     1       7.786   5.549  14.023  0.00  0.00    +0.000 NA
ATOM     24  N   UNL     1       8.163   5.721  12.711  0.00  0.00    +0.000 NA
ATOM     25  C   UNL     1       7.490   4.855  11.991  0.00  0.00    +0.000 A 
ATOM     26  N   UNL     1       6.672   4.123  12.801  0.00  0.00    +0.000 N 
ATOM     27  C   UNL     1       5.735   3.131  12.348  0.00  0.00    +0.000 C 
ENDBRANCH  21  22
ENDBRANCH  20  21
ENDBRANCH   1  20
TORSDOF 5
ENDMDL
MODEL 9
REMARK VINA RESULT:      -8.3      3.923      9.484
REMARK  Name = 
REMARK  7 active torsions:
REMARK  status: ('A' for Active; 'I' for Inactive)
REMARK    1  A    between atoms: C_1  and  C_2
REMARK    2  A    between atoms: C_2  and  S_3
REMARK    3  A    between atoms: C_2  and  C_10
REMARK    4  A    between atoms: S_3  and  C_4
REMARK    5  A    between atoms: N_8  and  C_9
REMARK    6  A    between atoms: C_14  and  C_15
REMARK    7  A    between atoms: C_17  and  C_18
REMARK                            x       y       z     vdW  Elec       q    Type
REMARK                         _______ _______ _______ _____ _____    ______ ____
ROOT
ATOM      1  C   UNL     1      -0.361  10.897  20.783  0.00  0.00    +0.000 A 
ATOM      2  C   UNL     1      -0.525  10.856  22.177  0.00  0.00    +0.000 A 
ATOM      3  C   UNL     1      -0.013   9.800  22.935  0.00  0.00    +0.000 A 
ATOM      4  C   UNL     1       0.704   8.776  22.319  0.00  0.00    +0.000 A 
ATOM      5  C   UNL     1       0.927   8.804  20.939  0.00  0.00    +0.000 A 
ATOM      6  C   UNL     1       0.391   9.868  20.186  0.00  0.00    +0.000 A 
ENDROOT
BRANCH   5   7
ATOM      7  C   UNL     1       1.672   7.737  20.274  0.00  0.00    +0.000 A 
ATOM      8  C   UNL     1       2.320   7.708  19.058  0.00  0.00    +0.000 A 
ATOM      9  C   UNL     1       2.908   6.422  18.940  0.00  0.00    +0.000 A 
ATOM     10  N   UNL     1       2.607   5.672  20.011  0.00  0.00    +0.000 NA
ATOM     11  N   UNL     1       1.890   6.489  20.799  0.00  0.00    +0.000 N 
ATOM     12  H   UNL     1       1.584   6.134  21.699  0.00  0.00    +0.000 HD
BRANCH   9  13
ATOM     13  C   UNL     1       3.735   5.927  17.839  0.00  0.00    +0.000 A 
ATOM     14  C   UNL     1       4.519   6.815  17.087  0.00  0.00    +0.000 A 
ATOM     15  C   UNL     1       5.304   6.350  16.030  0.00  0.00    +0.000 A 
ATOM     16  C   UNL     1       5.312   4.993  15.712  0.00  0.00    +0.000 A 
ATOM     17  C   UNL     1       4.540   4.100  16.455  0.00  0.00    +0.000 A 
ATOM     18  C   UNL     1       3.758   4.564  17.517  0.00  0.00    +0.000 A 
ENDBRANCH   9  13
ENDBRANCH   5   7
BRANCH   1  20
ATOM     19  C   UNL     1      -0.164  13.269  19.895  0.00  0.00    +0.000 C 
ATOM     20  C   UNL     1      -0.996  11.982  19.908  0.00  0.00    +0.000 C 
BRANCH  20  21
ATOM     21  S   UNL     1      -1.313  11.352  18.201  0.00  0.00    +0.000 S 
BRANCH  21  22
ATOM     22  C   UNL     1      -3.032  11.523  18.064  0.00  0.00    +0.000 A 
ATOM     23  N   UNL     1      -3.860  11.894  19.017  0.00  0.00    +0.000 NA
ATOM     24  N   UNL     1      -5.117  12.010  18.470  0.00  0.00    +0.000 NA
ATOM     25  C   UNL     1      -5.031  11.668  17.207  0.00  0.00    +0.000 A 
ATOM     26  N   UNL     1      -3.744  11.323  16.913  0.00  0.00    +0.000 N 
ATOM     27  C   UNL     1      -3.293  10.825  15.641  0.00  0.00    +0.000 C 
ENDBRANCH  21  22
ENDBRANCH  20  21
ENDBRANCH   1  20
TORSDOF 5
ENDMDL
