MODEL 1
REMARK VINA RESULT:     -10.5      0.000      0.000
REMARK  Name = 
REMARK  9 active torsions:
REMARK  status: ('A' for Active; 'I' for Inactive)
REMARK    1  A    between atoms: C_1  and  C_2
REMARK    2  A    between atoms: C_2  and  C_3
REMARK    3  A    between atoms: C_2  and  N_36
REMARK    4  A    between atoms: C_7  and  C_8
REMARK    5  A    between atoms: N_14  and  C_15
REMARK    6  A    between atoms: C_19  and  C_20
REMARK    7  A    between atoms: C_20  and  C_21
REMARK    8  A    between atoms: C_21  and  C_24
REMARK    9  A    between atoms: N_28  and  C_29
REMARK                            x       y       z     vdW  Elec       q    Type
REMARK                         _______ _______ _______ _____ _____    ______ ____
ROOT
ATOM      1  C   UNL     1       4.051   4.774  18.130  0.00  0.00    +0.000 A 
ATOM      2  C   UNL     1       3.641   6.111  18.078  0.00  0.00    +0.000 A 
ATOM      3  C   UNL     1       2.740   6.539  19.026  0.00  0.00    +0.000 A 
ATOM      4  C   UNL     1       2.208   5.700  19.998  0.00  0.00    +0.000 A 
ATOM      5  C   UNL     1       2.561   4.356  20.056  0.00  0.00    +0.000 A 
ATOM      6  C   UNL     1       3.498   3.910  19.110  0.00  0.00    +0.000 A 
ATOM      7  C   UNL     1       1.307   6.484  20.883  0.00  0.00    +0.000 C 
ATOM      8  N   UNL     1       1.368   7.833  20.323  0.00  0.00    +0.000 N 
ATOM      9  C   UNL     1       2.211   7.892  19.219  0.00  0.00    +0.000 C 
ATOM     10  O   UNL     1       2.517   8.819  18.487  0.00  0.00    +0.000 OA
ENDROOT
BRANCH   8  11
ATOM     11  C   UNL     1       0.624   8.896  20.881  0.00  0.00    +0.000 A 
ATOM     12  C   UNL     1       0.252   8.939  22.221  0.00  0.00    +0.000 A 
ATOM     13  C   UNL     1      -0.457  10.034  22.719  0.00  0.00    +0.000 A 
ATOM     14  C   UNL     1      -0.833  11.083  21.873  0.00  0.00    +0.000 A 
ATOM     15  C   UNL     1      -0.522  11.061  20.503  0.00  0.00    +0.000 A 
ATOM     16  C   UNL     1       0.234   9.958  20.061  0.00  0.00    +0.000 A 
BRANCH  15  17
ATOM     17  C   UNL     1      -0.998  12.160  19.434  0.00  0.00    +0.000 C 
ATOM     18  C   UNL     1      -1.157  13.629  19.900  0.00  0.00    +0.000 C 
ATOM     19  O   UNL     1      -0.461  14.104  18.713  0.00  0.00    +0.000 OA
ATOM     20  C   UNL     1       0.125  12.786  18.556  0.00  0.00    +0.000 C 
BRANCH  17  21
ATOM     21  C   UNL     1      -2.246  11.685  18.679  0.00  0.00    +0.000 C 
ATOM     22  F   UNL     1      -2.110  12.104  17.378  0.00  0.00    +0.000 F 
ATOM     23  F   UNL     1      -2.250  10.321  18.590  0.00  0.00    +0.000 F 
BRANCH  21  24
ATOM     24  C   UNL     1      -3.573  12.124  19.217  0.00  0.00    +0.000 A 
ATOM     25  N   UNL     1      -3.834  12.635  20.409  0.00  0.00    +0.000 NA
ATOM     26  N   UNL     1      -5.191  12.800  20.527  0.00  0.00    +0.000 NA
ATOM     27  C   UNL     1      -5.741  12.377  19.414  0.00  0.00    +0.000 A 
ATOM     28  N   UNL     1      -4.767  11.977  18.551  0.00  0.00    +0.000 N 
ATOM     29  C   UNL     1      -4.993  11.494  17.214  0.00  0.00    +0.000 C 
ENDBRANCH  21  24
ENDBRANCH  17  21
ENDBRANCH  15  17
ENDBRANCH   8  11
BRANCH   5  30
ATOM     30  C   UNL     1       1.998   3.400  21.075  0.00  0.00    +0.000 C 
ATOM     31  F   UNL     1       0.643   3.285  21.026  0.00  0.00    +0.000 F 
ATOM     32  F   UNL     1       2.480   2.135  20.920  0.00  0.00    +0.000 F 
ATOM     33  F   UNL     1       2.295   3.763  22.353  0.00  0.00    +0.000 F 
ENDBRANCH   5  30
BRANCH   1  35
ATOM     34  C   UNL     1       4.899   4.963  15.842  0.00  0.00    +0.000 C 
ATOM     35  C   UNL     1       5.174   4.312  17.210  0.00  0.00    +0.000 C 
BRANCH  35  36
ATOM     36  N   UNL     1       6.509   4.640  17.733  0.00  0.00    +0.000 NA
ATOM     37  C   UNL     1       7.196   5.721  17.004  0.00  0.00    +0.000 C 
ATOM     38  C   UNL     1       7.701   6.712  18.042  0.00  0.00    +0.000 C 
ATOM     39  C   UNL     1       7.707   5.923  19.329  0.00  0.00    +0.000 C 
ATOM     40  F   UNL     1       8.858   5.203  19.410  0.00  0.00    +0.000 F 
ATOM     41  C   UNL     1       6.523   4.988  19.161  0.00  0.00    +0.000 C 
ENDBRANCH  35  36
ENDBRANCH   1  35
TORSDOF 7
ENDMDL
MODEL 2
REMARK VINA RESULT:     -10.4      3.193      9.608
REMARK  Name = 
REMARK  9 active torsions:
REMARK  status: ('A' for Active; 'I' for Inactive)
REMARK    1  A    between atoms: C_1  and  C_2
REMARK    2  A    between atoms: C_2  and  C_3
REMARK    3  A    between atoms: C_2  and  N_36
REMARK    4  A    between atoms: C_7  and  C_8
REMARK    5  A    between atoms: N_14  and  C_15
REMARK    6  A    between atoms: C_19  and  C_20
REMARK    7  A    between atoms: C_20  and  C_21
REMARK    8  A    between atoms: C_21  and  C_24
REMARK    9  A    between atoms: N_28  and  C_29
REMARK                            x       y       z     vdW  Elec       q    Type
REMARK                         _______ _______ _______ _____ _____    ______ ____
ROOT
ATOM      1  C   UNL     1       0.740  11.698  19.464  0.00  0.00    +0.000 A 
ATOM      2  C   UNL     1       1.393  10.853  18.560  0.00  0.00    +0.000 A 
ATOM      3  C   UNL     1       1.576   9.541  18.931  0.00  0.00    +0.000 A 
ATOM      4  C   UNL     1       1.170   9.040  20.162  0.00  0.00    +0.000 A 
ATOM      5  C   UNL     1       0.553   9.858  21.102  0.00  0.00    +0.000 A 
ATOM      6  C   UNL     1       0.338  11.194  20.728  0.00  0.00    +0.000 A 
ATOM      7  C   UNL     1       1.477   7.586  20.225  0.00  0.00    +0.000 C 
ATOM      8  N   UNL     1       2.098   7.312  18.931  0.00  0.00    +0.000 N 
ATOM      9  C   UNL     1       2.170   8.456  18.145  0.00  0.00    +0.000 C 
ATOM     10  O   UNL     1       2.616   8.638  17.023  0.00  0.00    +0.000 OA
ENDROOT
BRANCH   8  11
ATOM     11  C   UNL     1       2.556   6.019  18.593  0.00  0.00    +0.000 A 
ATOM     12  C   UNL     1       1.975   4.856  19.087  0.00  0.00    +0.000 A 
ATOM     13  C   UNL     1       2.455   3.606  18.689  0.00  0.00    +0.000 A 
ATOM     14  C   UNL     1       3.547   3.508  17.821  0.00  0.00    +0.000 A 
ATOM     15  C   UNL     1       4.197   4.654  17.334  0.00  0.00    +0.000 A 
ATOM     16  C   UNL     1       3.646   5.888  17.727  0.00  0.00    +0.000 A 
BRANCH  15  17
ATOM     17  C   UNL     1       5.518   4.645  16.420  0.00  0.00    +0.000 C 
ATOM     18  C   UNL     1       5.693   3.510  15.380  0.00  0.00    +0.000 C 
ATOM     19  O   UNL     1       6.105   4.472  14.368  0.00  0.00    +0.000 OA
ATOM     20  C   UNL     1       5.462   5.522  15.136  0.00  0.00    +0.000 C 
BRANCH  17  21
ATOM     21  C   UNL     1       6.779   4.801  17.280  0.00  0.00    +0.000 C 
ATOM     22  F   UNL     1       6.538   4.152  18.465  0.00  0.00    +0.000 F 
ATOM     23  F   UNL     1       7.815   4.104  16.723  0.00  0.00    +0.000 F 
BRANCH  21  24
ATOM     24  C   UNL     1       7.247   6.197  17.552  0.00  0.00    +0.000 A 
ATOM     25  N   UNL     1       7.155   7.251  16.757  0.00  0.00    +0.000 NA
ATOM     26  N   UNL     1       7.800   8.306  17.352  0.00  0.00    +0.000 NA
ATOM     27  C   UNL     1       8.287   7.881  18.493  0.00  0.00    +0.000 A 
ATOM     28  N   UNL     1       7.937   6.578  18.679  0.00  0.00    +0.000 N 
ATOM     29  C   UNL     1       8.257   5.792  19.841  0.00  0.00    +0.000 C 
ENDBRANCH  21  24
ENDBRANCH  17  21
ENDBRANCH  15  17
ENDBRANCH   8  11
BRANCH   5  30
ATOM     30  C   UNL     1       0.113   9.370  22.458  0.00  0.00    +0.000 C 
ATOM     31  F   UNL     1      -0.729   8.303  22.406  0.00  0.00    +0.000 F 
ATOM     32  F   UNL     1       1.162   8.973  23.231  0.00  0.00    +0.000 F 
ATOM     33  F   UNL     1      -0.541  10.328  23.171  0.00  0.00    +0.000 F 
ENDBRANCH   5  30
BRANCH   1  35
ATOM     34  C   UNL     1      -1.020  13.391  19.625  0.00  0.00    +0.000 C 
ATOM     35  C   UNL     1       0.365  13.106  19.017  0.00  0.00    +0.000 C 
BRANCH  35  36
ATOM     36  N   UNL     1       1.368  14.110  19.401  0.00  0.00    +0.000 NA
ATOM     37  C   UNL     1       2.496  14.231  18.460  0.00  0.00    +0.000 C 
ATOM     38  C   UNL     1       2.668  15.711  18.153  0.00  0.00    +0.000 C 
ATOM     39  C   UNL     1       1.957  16.406  19.289  0.00  0.00    +0.000 C 
ATOM     40  F   UNL     1       2.796  16.498  20.356  0.00  0.00    +0.000 F 
ATOM     41  C   UNL     1       0.816  15.457  19.608  0.00  0.00    +0.000 C 
ENDBRANCH  35  36
ENDBRANCH   1  35
TORSDOF 7
ENDMDL
MODEL 3
REMARK VINA RESULT:     -10.2      3.139      9.456
REMARK  Name = 
REMARK  9 active torsions:
REMARK  status: ('A' for Active; 'I' for Inactive)
REMARK    1  A    between atoms: C_1  and  C_2
REMARK    2  A    between atoms: C_2  and  C_3
REMARK    3  A    between atoms: C_2  and  N_36
REMARK    4  A    between atoms: C_7  and  C_8
REMARK    5  A    between atoms: N_14  and  C_15
REMARK    6  A    between atoms: C_19  and  C_20
REMARK    7  A    between atoms: C_20  and  C_21
REMARK    8  A    between atoms: C_21  and  C_24
REMARK    9  A    between atoms: N_28  and  C_29
REMARK                            x       y       z     vdW  Elec       q    Type
REMARK                         _______ _______ _______ _____ _____    ______ ____
ROOT
ATOM      1  C   UNL     1       0.406  11.654  19.334  0.00  0.00    +0.000 A 
ATOM      2  C   UNL     1       1.137  10.786  18.516  0.00  0.00    +0.000 A 
ATOM      3  C   UNL     1       1.443   9.542  19.019  0.00  0.00    +0.000 A 
ATOM      4  C   UNL     1       1.086   9.135  20.298  0.00  0.00    +0.000 A 
ATOM      5  C   UNL     1       0.394   9.984  21.155  0.00  0.00    +0.000 A 
ATOM      6  C   UNL     1       0.053  11.248  20.647  0.00  0.00    +0.000 A 
ATOM      7  C   UNL     1       1.529   7.731  20.508  0.00  0.00    +0.000 C 
ATOM      8  N   UNL     1       2.175   7.385  19.243  0.00  0.00    +0.000 N 
ATOM      9  C   UNL     1       2.139   8.444  18.343  0.00  0.00    +0.000 C 
ATOM     10  O   UNL     1       2.566   8.549  17.205  0.00  0.00    +0.000 OA
ENDROOT
BRANCH   8  11
ATOM     11  C   UNL     1       2.754   6.113  19.036  0.00  0.00    +0.000 A 
ATOM     12  C   UNL     1       2.443   5.003  19.814  0.00  0.00    +0.000 A 
ATOM     13  C   UNL     1       3.027   3.765  19.538  0.00  0.00    +0.000 A 
ATOM     14  C   UNL     1       3.957   3.633  18.502  0.00  0.00    +0.000 A 
ATOM     15  C   UNL     1       4.339   4.736  17.720  0.00  0.00    +0.000 A 
ATOM     16  C   UNL     1       3.687   5.950  18.008  0.00  0.00    +0.000 A 
BRANCH  15  17
ATOM     17  C   UNL     1       5.470   4.709  16.581  0.00  0.00    +0.000 C 
ATOM     18  C   UNL     1       5.446   3.565  15.537  0.00  0.00    +0.000 C 
ATOM     19  O   UNL     1       5.673   4.516  14.458  0.00  0.00    +0.000 OA
ATOM     20  C   UNL     1       5.188   5.577  15.321  0.00  0.00    +0.000 C 
BRANCH  17  21
ATOM     21  C   UNL     1       6.869   4.861  17.195  0.00  0.00    +0.000 C 
ATOM     22  F   UNL     1       6.898   4.077  18.321  0.00  0.00    +0.000 F 
ATOM     23  F   UNL     1       7.805   4.298  16.374  0.00  0.00    +0.000 F 
BRANCH  21  24
ATOM     24  C   UNL     1       7.315   6.250  17.532  0.00  0.00    +0.000 A 
ATOM     25  N   UNL     1       7.257   7.327  16.764  0.00  0.00    +0.000 NA
ATOM     26  N   UNL     1       7.866   8.366  17.422  0.00  0.00    +0.000 NA
ATOM     27  C   UNL     1       8.298   7.909  18.574  0.00  0.00    +0.000 A 
ATOM     28  N   UNL     1       7.945   6.600  18.703  0.00  0.00    +0.000 N 
ATOM     29  C   UNL     1       8.211   5.781  19.856  0.00  0.00    +0.000 C 
ENDBRANCH  21  24
ENDBRANCH  17  21
ENDBRANCH  15  17
ENDBRANCH   8  11
BRANCH   5  30
ATOM     30  C   UNL     1       0.001   9.600  22.557  0.00  0.00    +0.000 C 
ATOM     31  F   UNL     1      -0.691  10.570  23.215  0.00  0.00    +0.000 F 
ATOM     32  F   UNL     1      -0.797   8.496  22.587  0.00  0.00    +0.000 F 
ATOM     33  F   UNL     1       1.076   9.311  23.341  0.00  0.00    +0.000 F 
ENDBRANCH   5  30
BRANCH   1  35
ATOM     34  C   UNL     1      -1.188  13.473  19.713  0.00  0.00    +0.000 C 
ATOM     35  C   UNL     1      -0.100  12.966  18.748  0.00  0.00    +0.000 C 
BRANCH  35  36
ATOM     36  N   UNL     1       0.973  13.950  18.542  0.00  0.00    +0.000 NA
ATOM     37  C   UNL     1       1.210  14.839  19.693  0.00  0.00    +0.000 C 
ATOM     38  C   UNL     1       2.706  14.830  19.968  0.00  0.00    +0.000 C 
ATOM     39  C   UNL     1       3.312  14.328  18.680  0.00  0.00    +0.000 C 
ATOM     40  F   UNL     1       3.446  15.365  17.810  0.00  0.00    +0.000 F 
ATOM     41  C   UNL     1       2.265  13.355  18.168  0.00  0.00    +0.000 C 
ENDBRANCH  35  36
ENDBRANCH   1  35
TORSDOF 7
ENDMDL
MODEL 4
REMARK VINA RESULT:     -10.1      1.484      2.401
REMARK  Name = 
REMARK  9 active torsions:
REMARK  status: ('A' for Active; 'I' for Inactive)
REMARK    1  A    between atoms: C_1  and  C_2
REMARK    2  A    between atoms: C_2  and  C_3
REMARK    3  A    between atoms: C_2  and  N_36
REMARK    4  A    between atoms: C_7  and  C_8
REMARK    5  A    between atoms: N_14  and  C_15
REMARK    6  A    between atoms: C_19  and  C_20
REMARK    7  A    between atoms: C_20  and  C_21
REMARK    8  A    between atoms: C_21  and  C_24
REMARK    9  A    between atoms: N_28  and  C_29
REMARK                            x       y       z     vdW  Elec       q    Type
REMARK                         _______ _______ _______ _____ _____    ______ ____
ROOT
ATOM      1  C   UNL     1       4.055   4.781  18.094  0.00  0.00    +0.000 A 
ATOM      2  C   UNL     1       3.647   6.117  18.025  0.00  0.00    +0.000 A 
ATOM      3  C   UNL     1       2.750   6.560  18.970  0.00  0.00    +0.000 A 
ATOM      4  C   UNL     1       2.220   5.734  19.954  0.00  0.00    +0.000 A 
ATOM      5  C   UNL     1       2.571   4.391  20.031  0.00  0.00    +0.000 A 
ATOM      6  C   UNL     1       3.505   3.931  19.088  0.00  0.00    +0.000 A 
ATOM      7  C   UNL     1       1.322   6.532  20.832  0.00  0.00    +0.000 C 
ATOM      8  N   UNL     1       1.382   7.872  20.253  0.00  0.00    +0.000 N 
ATOM      9  C   UNL     1       2.222   7.915  19.146  0.00  0.00    +0.000 C 
ATOM     10  O   UNL     1       2.527   8.832  18.400  0.00  0.00    +0.000 OA
ENDROOT
BRANCH   8  11
ATOM     11  C   UNL     1       0.641   8.944  20.799  0.00  0.00    +0.000 A 
ATOM     12  C   UNL     1       0.463   9.122  22.167  0.00  0.00    +0.000 A 
ATOM     13  C   UNL     1      -0.255  10.221  22.645  0.00  0.00    +0.000 A 
ATOM     14  C   UNL     1      -0.833  11.133  21.757  0.00  0.00    +0.000 A 
ATOM     15  C   UNL     1      -0.721  10.968  20.367  0.00  0.00    +0.000 A 
ATOM     16  C   UNL     1       0.051   9.872  19.937  0.00  0.00    +0.000 A 
BRANCH  15  17
ATOM     17  C   UNL     1      -1.434  11.898  19.269  0.00  0.00    +0.000 C 
ATOM     18  C   UNL     1      -1.814  11.276  17.902  0.00  0.00    +0.000 C 
ATOM     19  O   UNL     1      -3.126  11.904  17.956  0.00  0.00    +0.000 OA
ATOM     20  C   UNL     1      -2.979  12.036  19.394  0.00  0.00    +0.000 C 
BRANCH  17  21
ATOM     21  C   UNL     1      -0.662  13.211  19.078  0.00  0.00    +0.000 C 
ATOM     22  F   UNL     1       0.659  12.938  19.336  0.00  0.00    +0.000 F 
ATOM     23  F   UNL     1      -0.676  13.576  17.761  0.00  0.00    +0.000 F 
BRANCH  21  24
ATOM     24  C   UNL     1      -1.106  14.385  19.895  0.00  0.00    +0.000 A 
ATOM     25  N   UNL     1      -2.016  14.404  20.855  0.00  0.00    +0.000 NA
ATOM     26  N   UNL     1      -2.189  15.702  21.268  0.00  0.00    +0.000 NA
ATOM     27  C   UNL     1      -1.394  16.457  20.547  0.00  0.00    +0.000 A 
ATOM     28  N   UNL     1      -0.671  15.675  19.700  0.00  0.00    +0.000 N 
ATOM     29  C   UNL     1       0.336  16.151  18.788  0.00  0.00    +0.000 C 
ENDBRANCH  21  24
ENDBRANCH  17  21
ENDBRANCH  15  17
ENDBRANCH   8  11
BRANCH   5  30
ATOM     30  C   UNL     1       2.011   3.449  21.064  0.00  0.00    +0.000 C 
ATOM     31  F   UNL     1       2.273   3.826  22.345  0.00  0.00    +0.000 F 
ATOM     32  F   UNL     1       0.656   3.340  20.984  0.00  0.00    +0.000 F 
ATOM     33  F   UNL     1       2.500   2.185  20.940  0.00  0.00    +0.000 F 
ENDBRANCH   5  30
BRANCH   1  35
ATOM     34  C   UNL     1       4.893   4.932  15.799  0.00  0.00    +0.000 C 
ATOM     35  C   UNL     1       5.176   4.305  17.177  0.00  0.00    +0.000 C 
BRANCH  35  36
ATOM     36  N   UNL     1       6.512   4.644  17.688  0.00  0.00    +0.000 NA
ATOM     37  C   UNL     1       7.177   5.742  16.963  0.00  0.00    +0.000 C 
ATOM     38  C   UNL     1       7.682   6.728  18.006  0.00  0.00    +0.000 C 
ATOM     39  C   UNL     1       7.712   5.926  19.284  0.00  0.00    +0.000 C 
ATOM     40  F   UNL     1       8.874   5.219  19.345  0.00  0.00    +0.000 F 
ATOM     41  C   UNL     1       6.538   4.978  19.119  0.00  0.00    +0.000 C 
ENDBRANCH  35  36
ENDBRANCH   1  35
TORSDOF 7
ENDMDL
MODEL 5
REMARK VINA RESULT:     -10.1      2.086      3.054
REMARK  Name = 
REMARK  9 active torsions:
REMARK  status: ('A' for Active; 'I' for Inactive)
REMARK    1  A    between atoms: C_1  and  C_2
REMARK    2  A    between atoms: C_2  and  C_3
REMARK    3  A    between atoms: C_2  and  N_36
REMARK    4  A    between atoms: C_7  and  C_8
REMARK    5  A    between atoms: N_14  and  C_15
REMARK    6  A    between atoms: C_19  and  C_20
REMARK    7  A    between atoms: C_20  and  C_21
REMARK    8  A    between atoms: C_21  and  C_24
REMARK    9  A    between atoms: N_28  and  C_29
REMARK                            x       y       z     vdW  Elec       q    Type
REMARK                         _______ _______ _______ _____ _____    ______ ____
ROOT
ATOM      1  C   UNL     1       3.899   5.606  17.835  0.00  0.00    +0.000 A 
ATOM      2  C   UNL     1       3.423   6.914  17.985  0.00  0.00    +0.000 A 
ATOM      3  C   UNL     1       2.560   7.163  19.028  0.00  0.00    +0.000 A 
ATOM      4  C   UNL     1       2.127   6.174  19.903  0.00  0.00    +0.000 A 
ATOM      5  C   UNL     1       2.547   4.856  19.762  0.00  0.00    +0.000 A 
ATOM      6  C   UNL     1       3.447   4.591  18.717  0.00  0.00    +0.000 A 
ATOM      7  C   UNL     1       1.243   6.784  20.932  0.00  0.00    +0.000 C 
ATOM      8  N   UNL     1       1.205   8.195  20.556  0.00  0.00    +0.000 N 
ATOM      9  C   UNL     1       1.977   8.446  19.428  0.00  0.00    +0.000 C 
ATOM     10  O   UNL     1       2.195   9.477  18.812  0.00  0.00    +0.000 OA
ENDROOT
BRANCH   8  11
ATOM     11  C   UNL     1       0.445   9.133  21.290  0.00  0.00    +0.000 A 
ATOM     12  C   UNL     1       0.146   8.975  22.640  0.00  0.00    +0.000 A 
ATOM     13  C   UNL     1      -0.584   9.954  23.317  0.00  0.00    +0.000 A 
ATOM     14  C   UNL     1      -1.054  11.085  22.642  0.00  0.00    +0.000 A 
ATOM     15  C   UNL     1      -0.819  11.264  21.269  0.00  0.00    +0.000 A 
ATOM     16  C   UNL     1      -0.039  10.273  20.643  0.00  0.00    +0.000 A 
BRANCH  15  17
ATOM     17  C   UNL     1      -1.404  12.470  20.385  0.00  0.00    +0.000 C 
ATOM     18  C   UNL     1      -2.620  12.195  19.465  0.00  0.00    +0.000 C 
ATOM     19  O   UNL     1      -3.263  13.422  19.912  0.00  0.00    +0.000 OA
ATOM     20  C   UNL     1      -2.425  13.403  21.097  0.00  0.00    +0.000 C 
BRANCH  17  21
ATOM     21  C   UNL     1      -0.281  13.178  19.613  0.00  0.00    +0.000 C 
ATOM     22  F   UNL     1       0.056  12.362  18.562  0.00  0.00    +0.000 F 
ATOM     23  F   UNL     1      -0.764  14.308  19.015  0.00  0.00    +0.000 F 
BRANCH  21  24
ATOM     24  C   UNL     1       0.947  13.545  20.386  0.00  0.00    +0.000 A 
ATOM     25  N   UNL     1       1.028  13.893  21.660  0.00  0.00    +0.000 NA
ATOM     26  N   UNL     1       2.324  14.247  21.936  0.00  0.00    +0.000 NA
ATOM     27  C   UNL     1       3.015  14.123  20.827  0.00  0.00    +0.000 A 
ATOM     28  N   UNL     1       2.205  13.653  19.839  0.00  0.00    +0.000 N 
ATOM     29  C   UNL     1       2.625  13.351  18.496  0.00  0.00    +0.000 C 
ENDBRANCH  21  24
ENDBRANCH  17  21
ENDBRANCH  15  17
ENDBRANCH   8  11
BRANCH   5  30
ATOM     30  C   UNL     1       2.093   3.744  20.671  0.00  0.00    +0.000 C 
ATOM     31  F   UNL     1       0.745   3.559  20.674  0.00  0.00    +0.000 F 
ATOM     32  F   UNL     1       2.628   2.541  20.325  0.00  0.00    +0.000 F 
ATOM     33  F   UNL     1       2.444   3.954  21.970  0.00  0.00    +0.000 F 
ENDBRANCH   5  30
BRANCH   1  35
ATOM     34  C   UNL     1       4.859   6.444  15.745  0.00  0.00    +0.000 C 
ATOM     35  C   UNL     1       4.987   5.333  16.804  0.00  0.00    +0.000 C 
BRANCH  35  36
ATOM     36  N   UNL     1       6.331   5.271  17.397  0.00  0.00    +0.000 NA
ATOM     37  C   UNL     1       7.220   6.376  17.000  0.00  0.00    +0.000 C 
ATOM     38  C   UNL     1       7.831   6.941  18.273  0.00  0.00    +0.000 C 
ATOM     39  C   UNL     1       7.645   5.840  19.288  0.00  0.00    +0.000 C 
ATOM     40  F   UNL     1       8.658   4.939  19.166  0.00  0.00    +0.000 F 
ATOM     41  C   UNL     1       6.333   5.205  18.866  0.00  0.00    +0.000 C 
ENDBRANCH  35  36
ENDBRANCH   1  35
TORSDOF 7
ENDMDL
MODEL 6
REMARK VINA RESULT:      -9.9      1.076      1.485
REMARK  Name = 
REMARK  9 active torsions:
REMARK  status: ('A' for Active; 'I' for Inactive)
REMARK    1  A    between atoms: C_1  and  C_2
REMARK    2  A    between atoms: C_2  and  C_3
REMARK    3  A    between atoms: C_2  and  N_36
REMARK    4  A    between atoms: C_7  and  C_8
REMARK    5  A    between atoms: N_14  and  C_15
REMARK    6  A    between atoms: C_19  and  C_20
REMARK    7  A    between atoms: C_20  and  C_21
REMARK    8  A    between atoms: C_21  and  C_24
REMARK    9  A    between atoms: N_28  and  C_29
REMARK                            x       y       z     vdW  Elec       q    Type
REMARK                         _______ _______ _______ _____ _____    ______ ____
ROOT
ATOM      1  C   UNL     1       3.984   4.991  18.043  0.00  0.00    +0.000 A 
ATOM      2  C   UNL     1       3.563   6.324  18.096  0.00  0.00    +0.000 A 
ATOM      3  C   UNL     1       2.681   6.675  19.093  0.00  0.00    +0.000 A 
ATOM      4  C   UNL     1       2.180   5.764  20.014  0.00  0.00    +0.000 A 
ATOM      5  C   UNL     1       2.545   4.422  19.969  0.00  0.00    +0.000 A 
ATOM      6  C   UNL     1       3.463   4.054  18.972  0.00  0.00    +0.000 A 
ATOM      7  C   UNL     1       1.293   6.474  20.974  0.00  0.00    +0.000 C 
ATOM      8  N   UNL     1       1.328   7.859  20.510  0.00  0.00    +0.000 N 
ATOM      9  C   UNL     1       2.144   8.005  19.394  0.00  0.00    +0.000 C 
ATOM     10  O   UNL     1       2.425   8.985  18.722  0.00  0.00    +0.000 OA
ENDROOT
BRANCH   8  11
ATOM     11  C   UNL     1       0.589   8.872  21.160  0.00  0.00    +0.000 A 
ATOM     12  C   UNL     1       0.066   8.725  22.440  0.00  0.00    +0.000 A 
ATOM     13  C   UNL     1      -0.630   9.777  23.040  0.00  0.00    +0.000 A 
ATOM     14  C   UNL     1      -0.841  10.976  22.350  0.00  0.00    +0.000 A 
ATOM     15  C   UNL     1      -0.373  11.153  21.038  0.00  0.00    +0.000 A 
ATOM     16  C   UNL     1       0.362  10.081  20.496  0.00  0.00    +0.000 A 
BRANCH  15  17
ATOM     17  C   UNL     1      -0.653  12.446  20.127  0.00  0.00    +0.000 C 
ATOM     18  C   UNL     1      -0.106  13.817  20.596  0.00  0.00    +0.000 C 
ATOM     19  O   UNL     1       0.379  14.107  19.255  0.00  0.00    +0.000 OA
ATOM     20  C   UNL     1       0.349  12.686  18.961  0.00  0.00    +0.000 C 
BRANCH  17  21
ATOM     21  C   UNL     1      -2.139  12.545  19.760  0.00  0.00    +0.000 C 
ATOM     22  F   UNL     1      -2.851  12.126  20.856  0.00  0.00    +0.000 F 
ATOM     23  F   UNL     1      -2.499  13.855  19.611  0.00  0.00    +0.000 F 
BRANCH  21  24
ATOM     24  C   UNL     1      -2.590  11.795  18.545  0.00  0.00    +0.000 A 
ATOM     25  N   UNL     1      -1.835  11.206  17.631  0.00  0.00    +0.000 NA
ATOM     26  N   UNL     1      -2.648  10.725  16.636  0.00  0.00    +0.000 NA
ATOM     27  C   UNL     1      -3.884  11.036  16.947  0.00  0.00    +0.000 A 
ATOM     28  N   UNL     1      -3.902  11.674  18.149  0.00  0.00    +0.000 N 
ATOM     29  C   UNL     1      -5.087  12.125  18.831  0.00  0.00    +0.000 C 
ENDBRANCH  21  24
ENDBRANCH  17  21
ENDBRANCH  15  17
ENDBRANCH   8  11
BRANCH   5  30
ATOM     30  C   UNL     1       2.016   3.391  20.930  0.00  0.00    +0.000 C 
ATOM     31  F   UNL     1       0.658   3.304  20.943  0.00  0.00    +0.000 F 
ATOM     32  F   UNL     1       2.461   2.137  20.640  0.00  0.00    +0.000 F 
ATOM     33  F   UNL     1       2.386   3.636  22.216  0.00  0.00    +0.000 F 
ENDBRANCH   5  30
BRANCH   1  35
ATOM     34  C   UNL     1       4.845   5.443  15.797  0.00  0.00    +0.000 C 
ATOM     35  C   UNL     1       5.090   4.608  17.066  0.00  0.00    +0.000 C 
BRANCH  35  36
ATOM     36  N   UNL     1       6.436   4.808  17.623  0.00  0.00    +0.000 NA
ATOM     37  C   UNL     1       7.203   5.888  16.978  0.00  0.00    +0.000 C 
ATOM     38  C   UNL     1       7.759   6.768  18.087  0.00  0.00    +0.000 C 
ATOM     39  C   UNL     1       7.694   5.894  19.315  0.00  0.00    +0.000 C 
ATOM     40  F   UNL     1       8.794   5.094  19.357  0.00  0.00    +0.000 F 
ATOM     41  C   UNL     1       6.453   5.056  19.072  0.00  0.00    +0.000 C 
ENDBRANCH  35  36
ENDBRANCH   1  35
TORSDOF 7
ENDMDL
MODEL 7
REMARK VINA RESULT:      -9.9      1.409      1.914
REMARK  Name = 
REMARK  9 active torsions:
REMARK  status: ('A' for Active; 'I' for Inactive)
REMARK    1  A    between atoms: C_1  and  C_2
REMARK    2  A    between atoms: C_2  and  C_3
REMARK    3  A    between atoms: C_2  and  N_36
REMARK    4  A    between atoms: C_7  and  C_8
REMARK    5  A    between atoms: N_14  and  C_15
REMARK    6  A    between atoms: C_19  and  C_20
REMARK    7  A    between atoms: C_20  and  C_21
REMARK    8  A    between atoms: C_21  and  C_24
REMARK    9  A    between atoms: N_28  and  C_29
REMARK                            x       y       z     vdW  Elec       q    Type
REMARK                         _______ _______ _______ _____ _____    ______ ____
ROOT
ATOM      1  C   UNL     1       3.967   4.903  17.999  0.00  0.00    +0.000 A 
ATOM      2  C   UNL     1       3.595   6.252  18.033  0.00  0.00    +0.000 A 
ATOM      3  C   UNL     1       2.722   6.648  19.020  0.00  0.00    +0.000 A 
ATOM      4  C   UNL     1       2.182   5.768  19.950  0.00  0.00    +0.000 A 
ATOM      5  C   UNL     1       2.497   4.414  19.924  0.00  0.00    +0.000 A 
ATOM      6  C   UNL     1       3.406   3.999  18.937  0.00  0.00    +0.000 A 
ATOM      7  C   UNL     1       1.317   6.523  20.895  0.00  0.00    +0.000 C 
ATOM      8  N   UNL     1       1.407   7.900  20.414  0.00  0.00    +0.000 N 
ATOM      9  C   UNL     1       2.234   8.001  19.301  0.00  0.00    +0.000 C 
ATOM     10  O   UNL     1       2.555   8.961  18.618  0.00  0.00    +0.000 OA
ENDROOT
BRANCH   8  11
ATOM     11  C   UNL     1       0.703   8.949  21.047  0.00  0.00    +0.000 A 
ATOM     12  C   UNL     1      -0.233   8.734  22.053  0.00  0.00    +0.000 A 
ATOM     13  C   UNL     1      -0.873   9.817  22.661  0.00  0.00    +0.000 A 
ATOM     14  C   UNL     1      -0.609  11.125  22.242  0.00  0.00    +0.000 A 
ATOM     15  C   UNL     1       0.293  11.388  21.198  0.00  0.00    +0.000 A 
ATOM     16  C   UNL     1       0.946  10.267  20.650  0.00  0.00    +0.000 A 
BRANCH  15  17
ATOM     17  C   UNL     1       0.584  12.840  20.578  0.00  0.00    +0.000 C 
ATOM     18  C   UNL     1       0.248  14.092  21.427  0.00  0.00    +0.000 C 
ATOM     19  O   UNL     1       1.528  14.694  21.085  0.00  0.00    +0.000 OA
ATOM     20  C   UNL     1       2.035  13.376  20.752  0.00  0.00    +0.000 C 
BRANCH  17  21
ATOM     21  C   UNL     1      -0.006  12.961  19.166  0.00  0.00    +0.000 C 
ATOM     22  F   UNL     1      -0.352  14.278  18.989  0.00  0.00    +0.000 F 
ATOM     23  F   UNL     1       0.968  12.745  18.231  0.00  0.00    +0.000 F 
BRANCH  21  24
ATOM     24  C   UNL     1      -1.172  12.081  18.840  0.00  0.00    +0.000 A 
ATOM     25  N   UNL     1      -1.200  11.046  18.015  0.00  0.00    +0.000 NA
ATOM     26  N   UNL     1      -2.490  10.589  17.930  0.00  0.00    +0.000 NA
ATOM     27  C   UNL     1      -3.235  11.356  18.690  0.00  0.00    +0.000 A 
ATOM     28  N   UNL     1      -2.450  12.281  19.307  0.00  0.00    +0.000 N 
ATOM     29  C   UNL     1      -2.914  13.263  20.252  0.00  0.00    +0.000 C 
ENDBRANCH  21  24
ENDBRANCH  17  21
ENDBRANCH  15  17
ENDBRANCH   8  11
BRANCH   5  30
ATOM     30  C   UNL     1       1.924   3.415  20.895  0.00  0.00    +0.000 C 
ATOM     31  F   UNL     1       2.247   3.669  22.192  0.00  0.00    +0.000 F 
ATOM     32  F   UNL     1       0.563   3.377  20.856  0.00  0.00    +0.000 F 
ATOM     33  F   UNL     1       2.345   2.145  20.647  0.00  0.00    +0.000 F 
ENDBRANCH   5  30
BRANCH   1  35
ATOM     34  C   UNL     1       4.788   5.211  15.714  0.00  0.00    +0.000 C 
ATOM     35  C   UNL     1       5.062   4.466  17.034  0.00  0.00    +0.000 C 
BRANCH  35  36
ATOM     36  N   UNL     1       6.414   4.718  17.555  0.00  0.00    +0.000 NA
ATOM     37  C   UNL     1       7.113   5.842  16.907  0.00  0.00    +0.000 C 
ATOM     38  C   UNL     1       7.661   6.728  18.014  0.00  0.00    +0.000 C 
ATOM     39  C   UNL     1       7.672   5.832  19.229  0.00  0.00    +0.000 C 
ATOM     40  F   UNL     1       8.807   5.082  19.225  0.00  0.00    +0.000 F 
ATOM     41  C   UNL     1       6.463   4.942  19.006  0.00  0.00    +0.000 C 
ENDBRANCH  35  36
ENDBRANCH   1  35
TORSDOF 7
ENDMDL
MODEL 8
REMARK VINA RESULT:      -9.9      3.211      9.829
REMARK  Name = 
REMARK  9 active torsions:
REMARK  status: ('A' for Active; 'I' for Inactive)
REMARK    1  A    between atoms: C_1  and  C_2
REMARK    2  A    between atoms: C_2  and  C_3
REMARK    3  A    between atoms: C_2  and  N_36
REMARK    4  A    between atoms: C_7  and  C_8
REMARK    5  A    between atoms: N_14  and  C_15
REMARK    6  A    between atoms: C_19  and  C_20
REMARK    7  A    between atoms: C_20  and  C_21
REMARK    8  A    between atoms: C_21  and  C_24
REMARK    9  A    between atoms: N_28  and  C_29
REMARK                            x       y       z     vdW  Elec       q    Type
REMARK                         _______ _______ _______ _____ _____    ______ ____
ROOT
ATOM      1  C   UNL     1       0.194  11.653  19.436  0.00  0.00    +0.000 A 
ATOM      2  C   UNL     1       0.919  10.816  18.579  0.00  0.00    +0.000 A 
ATOM      3  C   UNL     1       1.281   9.577  19.055  0.00  0.00    +0.000 A 
ATOM      4  C   UNL     1       0.984   9.144  20.342  0.00  0.00    +0.000 A 
ATOM      5  C   UNL     1       0.300   9.962  21.234  0.00  0.00    +0.000 A 
ATOM      6  C   UNL     1      -0.097  11.221  20.755  0.00  0.00    +0.000 A 
ATOM      7  C   UNL     1       1.477   7.752  20.517  0.00  0.00    +0.000 C 
ATOM      8  N   UNL     1       2.084   7.440  19.224  0.00  0.00    +0.000 N 
ATOM      9  C   UNL     1       1.982   8.507  18.340  0.00  0.00    +0.000 C 
ATOM     10  O   UNL     1       2.363   8.639  17.187  0.00  0.00    +0.000 OA
ENDROOT
BRANCH   8  11
ATOM     11  C   UNL     1       2.692   6.189  18.979  0.00  0.00    +0.000 A 
ATOM     12  C   UNL     1       2.203   4.994  19.498  0.00  0.00    +0.000 A 
ATOM     13  C   UNL     1       2.833   3.785  19.193  0.00  0.00    +0.000 A 
ATOM     14  C   UNL     1       3.981   3.763  18.394  0.00  0.00    +0.000 A 
ATOM     15  C   UNL     1       4.539   4.948  17.888  0.00  0.00    +0.000 A 
ATOM     16  C   UNL     1       3.841   6.135  18.185  0.00  0.00    +0.000 A 
BRANCH  15  17
ATOM     17  C   UNL     1       5.908   5.037  17.053  0.00  0.00    +0.000 C 
ATOM     18  C   UNL     1       6.583   6.421  16.879  0.00  0.00    +0.000 C 
ATOM     19  O   UNL     1       7.883   5.850  17.201  0.00  0.00    +0.000 OA
ATOM     20  C   UNL     1       7.211   4.740  17.849  0.00  0.00    +0.000 C 
BRANCH  17  21
ATOM     21  C   UNL     1       5.773   4.320  15.703  0.00  0.00    +0.000 C 
ATOM     22  F   UNL     1       5.882   2.974  15.953  0.00  0.00    +0.000 F 
ATOM     23  F   UNL     1       4.504   4.466  15.219  0.00  0.00    +0.000 F 
BRANCH  21  24
ATOM     24  C   UNL     1       6.735   4.715  14.625  0.00  0.00    +0.000 A 
ATOM     25  N   UNL     1       7.761   5.545  14.720  0.00  0.00    +0.000 NA
ATOM     26  N   UNL     1       8.312   5.704  13.474  0.00  0.00    +0.000 NA
ATOM     27  C   UNL     1       7.611   4.981  12.634  0.00  0.00    +0.000 A 
ATOM     28  N   UNL     1       6.635   4.317  13.313  0.00  0.00    +0.000 N 
ATOM     29  C   UNL     1       5.699   3.394  12.726  0.00  0.00    +0.000 C 
ENDBRANCH  21  24
ENDBRANCH  17  21
ENDBRANCH  15  17
ENDBRANCH   8  11
BRANCH   5  30
ATOM     30  C   UNL     1      -0.028   9.550  22.645  0.00  0.00    +0.000 C 
ATOM     31  F   UNL     1       1.066   9.229  23.388  0.00  0.00    +0.000 F 
ATOM     32  F   UNL     1      -0.664  10.535  23.338  0.00  0.00    +0.000 F 
ATOM     33  F   UNL     1      -0.845   8.463  22.696  0.00  0.00    +0.000 F 
ENDBRANCH   5  30
BRANCH   1  35
ATOM     34  C   UNL     1      -1.499  13.371  19.850  0.00  0.00    +0.000 C 
ATOM     35  C   UNL     1      -0.373  12.956  18.885  0.00  0.00    +0.000 C 
BRANCH  35  36
ATOM     36  N   UNL     1       0.650  14.000  18.729  0.00  0.00    +0.000 NA
ATOM     37  C   UNL     1       0.126  15.376  18.791  0.00  0.00    +0.000 C 
ATOM     38  C   UNL     1       0.998  16.145  19.772  0.00  0.00    +0.000 C 
ATOM     39  C   UNL     1       2.261  15.324  19.861  0.00  0.00    +0.000 C 
ATOM     40  F   UNL     1       3.083  15.650  18.827  0.00  0.00    +0.000 F 
ATOM     41  C   UNL     1       1.756  13.903  19.692  0.00  0.00    +0.000 C 
ENDBRANCH  35  36
ENDBRANCH   1  35
TORSDOF 7
ENDMDL
MODEL 9
REMARK VINA RESULT:      -9.8      2.572      3.502
REMARK  Name = 
REMARK  9 active torsions:
REMARK  status: ('A' for Active; 'I' for Inactive)
REMARK    1  A    between atoms: C_1  and  C_2
REMARK    2  A    between atoms: C_2  and  C_3
REMARK    3  A    between atoms: C_2  and  N_36
REMARK    4  A    between atoms: C_7  and  C_8
REMARK    5  A    between atoms: N_14  and  C_15
REMARK    6  A    between atoms: C_19  and  C_20
REMARK    7  A    between atoms: C_20  and  C_21
REMARK    8  A    between atoms: C_21  and  C_24
REMARK    9  A    between atoms: N_28  and  C_29
REMARK                            x       y       z     vdW  Elec       q    Type
REMARK                         _______ _______ _______ _____ _____    ______ ____
ROOT
ATOM      1  C   UNL     1       4.003   4.880  18.043  0.00  0.00    +0.000 A 
ATOM      2  C   UNL     1       3.603   6.221  18.048  0.00  0.00    +0.000 A 
ATOM      3  C   UNL     1       2.726   6.621  19.031  0.00  0.00    +0.000 A 
ATOM      4  C   UNL     1       2.209   5.750  19.983  0.00  0.00    +0.000 A 
ATOM      5  C   UNL     1       2.553   4.403  19.985  0.00  0.00    +0.000 A 
ATOM      6  C   UNL     1       3.465   3.985  19.003  0.00  0.00    +0.000 A 
ATOM      7  C   UNL     1       1.333   6.508  20.915  0.00  0.00    +0.000 C 
ATOM      8  N   UNL     1       1.392   7.875  20.403  0.00  0.00    +0.000 N 
ATOM      9  C   UNL     1       2.211   7.969  19.284  0.00  0.00    +0.000 C 
ATOM     10  O   UNL     1       2.509   8.920  18.579  0.00  0.00    +0.000 OA
ENDROOT
BRANCH   8  11
ATOM     11  C   UNL     1       0.669   8.923  21.016  0.00  0.00    +0.000 A 
ATOM     12  C   UNL     1      -0.057   8.756  22.191  0.00  0.00    +0.000 A 
ATOM     13  C   UNL     1      -0.725   9.840  22.764  0.00  0.00    +0.000 A 
ATOM     14  C   UNL     1      -0.705  11.095  22.147  0.00  0.00    +0.000 A 
ATOM     15  C   UNL     1      -0.026  11.300  20.935  0.00  0.00    +0.000 A 
ATOM     16  C   UNL     1       0.671  10.188  20.423  0.00  0.00    +0.000 A 
BRANCH  15  17
ATOM     17  C   UNL     1      -0.030  12.671  20.098  0.00  0.00    +0.000 C 
ATOM     18  C   UNL     1       0.628  12.686  18.696  0.00  0.00    +0.000 C 
ATOM     19  O   UNL     1      -0.507  13.413  18.147  0.00  0.00    +0.000 OA
ATOM     20  C   UNL     1      -1.312  12.954  19.263  0.00  0.00    +0.000 C 
BRANCH  17  21
ATOM     21  C   UNL     1       0.478  13.838  20.955  0.00  0.00    +0.000 C 
ATOM     22  F   UNL     1      -0.320  14.918  20.672  0.00  0.00    +0.000 F 
ATOM     23  F   UNL     1       0.239  13.586  22.277  0.00  0.00    +0.000 F 
BRANCH  21  24
ATOM     24  C   UNL     1       1.918  14.216  20.802  0.00  0.00    +0.000 A 
ATOM     25  N   UNL     1       2.968  13.661  21.388  0.00  0.00    +0.000 NA
ATOM     26  N   UNL     1       4.087  14.380  21.052  0.00  0.00    +0.000 NA
ATOM     27  C   UNL     1       3.707  15.369  20.278  0.00  0.00    +0.000 A 
ATOM     28  N   UNL     1       2.365  15.287  20.065  0.00  0.00    +0.000 N 
ATOM     29  C   UNL     1       1.604  16.178  19.228  0.00  0.00    +0.000 C 
ENDBRANCH  21  24
ENDBRANCH  17  21
ENDBRANCH  15  17
ENDBRANCH   8  11
BRANCH   5  30
ATOM     30  C   UNL     1       2.005   3.414  20.981  0.00  0.00    +0.000 C 
ATOM     31  F   UNL     1       2.279   3.735  22.274  0.00  0.00    +0.000 F 
ATOM     32  F   UNL     1       0.650   3.303  20.909  0.00  0.00    +0.000 F 
ATOM     33  F   UNL     1       2.497   2.158  20.795  0.00  0.00    +0.000 F 
ENDBRANCH   5  30
BRANCH   1  35
ATOM     34  C   UNL     1       4.817   5.166  15.752  0.00  0.00    +0.000 C 
ATOM     35  C   UNL     1       5.103   4.444  17.082  0.00  0.00    +0.000 C 
BRANCH  35  36
ATOM     36  N   UNL     1       6.452   4.723  17.596  0.00  0.00    +0.000 NA
ATOM     37  C   UNL     1       7.144   5.829  16.913  0.00  0.00    +0.000 C 
ATOM     38  C   UNL     1       7.684   6.756  17.991  0.00  0.00    +0.000 C 
ATOM     39  C   UNL     1       7.699   5.901  19.235  0.00  0.00    +0.000 C 
ATOM     40  F   UNL     1       8.839   5.159  19.258  0.00  0.00    +0.000 F 
ATOM     41  C   UNL     1       6.496   4.996  19.040  0.00  0.00    +0.000 C 
ENDBRANCH  35  36
ENDBRANCH   1  35
TORSDOF 7
ENDMDL
