MODEL 1
REMARK VINA RESULT:      -8.8      0.000      0.000
REMARK  Name = 
REMARK  9 active torsions:
REMARK  status: ('A' for Active; 'I' for Inactive)
REMARK    1  A    between atoms: C_1  and  C_2
REMARK    2  A    between atoms: C_2  and  O_3
REMARK    3  A    between atoms: O_3  and  C_4
REMARK    4  A    between atoms: C_4  and  C_5
REMARK    5  A    between atoms: C_4  and  C_12
REMARK    6  A    between atoms: C_5  and  C_6
REMARK    7  A    between atoms: N_10  and  C_11
REMARK    8  A    between atoms: C_16  and  N_17
REMARK    9  A    between atoms: C_24  and  C_25
REMARK                            x       y       z     vdW  Elec       q    Type
REMARK                         _______ _______ _______ _____ _____    ______ ____
ROOT
ATOM      1  C   UNL     1       2.922   6.568  19.152  0.00  0.00    +0.000 A 
ATOM      2  C   UNL     1       3.322   7.026  17.897  0.00  0.00    +0.000 A 
ATOM      3  C   UNL     1       2.869   8.271  17.420  0.00  0.00    +0.000 A 
ATOM      4  C   UNL     1       2.024   9.088  18.194  0.00  0.00    +0.000 A 
ATOM      5  C   UNL     1       1.585   8.630  19.427  0.00  0.00    +0.000 A 
ATOM      6  C   UNL     1       2.030   7.375  19.867  0.00  0.00    +0.000 A 
ENDROOT
BRANCH   5   7
ATOM      7  N   UNL     1       0.661   9.305  20.246  0.00  0.00    +0.000 N 
ATOM      8  C   UNL     1      -0.420  10.021  19.618  0.00  0.00    +0.000 C 
ATOM      9  C   UNL     1      -0.753  11.022  20.653  0.00  0.00    +0.000 A 
ATOM     10  C   UNL     1      -0.440  10.491  21.889  0.00  0.00    +0.000 A 
ATOM     11  C   UNL     1      -0.937  11.045  23.050  0.00  0.00    +0.000 A 
ATOM     12  C   UNL     1      -1.677  12.227  22.928  0.00  0.00    +0.000 A 
ATOM     13  C   UNL     1      -1.722  12.910  21.696  0.00  0.00    +0.000 A 
ATOM     14  C   UNL     1      -1.172  12.335  20.542  0.00  0.00    +0.000 A 
ATOM     15  C   UNL     1       0.635   9.490  21.632  0.00  0.00    +0.000 C 
ATOM     16  O   UNL     1       1.364   9.045  22.498  0.00  0.00    +0.000 OA
BRANCH  14  17
ATOM     17  C   UNL     1      -0.779  13.180  19.357  0.00  0.00    +0.000 C 
ATOM     18  F   UNL     1       0.567  13.217  19.121  0.00  0.00    +0.000 F 
ATOM     19  F   UNL     1      -1.346  12.795  18.189  0.00  0.00    +0.000 F 
ATOM     20  F   UNL     1      -1.124  14.488  19.540  0.00  0.00    +0.000 F 
ENDBRANCH  14  17
ENDBRANCH   5   7
BRANCH   1  21
ATOM     21  C   UNL     1       3.413   5.268  19.793  0.00  0.00    +0.000 C 
BRANCH  21  22
ATOM     22  O   UNL     1       2.210   4.617  20.270  0.00  0.00    +0.000 OA
BRANCH  22  24
ATOM     23  C   UNL     1       1.429   2.682  21.385  0.00  0.00    +0.000 C 
ATOM     24  C   UNL     1       2.262   3.947  21.517  0.00  0.00    +0.000 C 
ENDBRANCH  22  24
ENDBRANCH  21  22
BRANCH  21  25
ATOM     25  C   UNL     1       4.144   4.364  18.783  0.00  0.00    +0.000 C 
BRANCH  25  26
ATOM     26  C   UNL     1       5.590   4.652  18.633  0.00  0.00    +0.000 A 
ATOM     27  N   UNL     1       6.413   5.013  19.587  0.00  0.00    +0.000 NA
ATOM     28  N   UNL     1       7.682   5.091  19.055  0.00  0.00    +0.000 NA
ATOM     29  C   UNL     1       7.601   4.761  17.788  0.00  0.00    +0.000 A 
ATOM     30  N   UNL     1       6.307   4.486  17.473  0.00  0.00    +0.000 N 
ATOM     31  C   UNL     1       5.805   4.106  16.185  0.00  0.00    +0.000 C 
ENDBRANCH  25  26
ENDBRANCH  21  25
ENDBRANCH   1  21
TORSDOF 7
ENDMDL
MODEL 2
REMARK VINA RESULT:      -8.2      0.858      1.100
REMARK  Name = 
REMARK  9 active torsions:
REMARK  status: ('A' for Active; 'I' for Inactive)
REMARK    1  A    between atoms: C_1  and  C_2
REMARK    2  A    between atoms: C_2  and  O_3
REMARK    3  A    between atoms: O_3  and  C_4
REMARK    4  A    between atoms: C_4  and  C_5
REMARK    5  A    between atoms: C_4  and  C_12
REMARK    6  A    between atoms: C_5  and  C_6
REMARK    7  A    between atoms: N_10  and  C_11
REMARK    8  A    between atoms: C_16  and  N_17
REMARK    9  A    between atoms: C_24  and  C_25
REMARK                            x       y       z     vdW  Elec       q    Type
REMARK                         _______ _______ _______ _____ _____    ______ ____
ROOT
ATOM      1  C   UNL     1       2.884   6.634  19.148  0.00  0.00    +0.000 A 
ATOM      2  C   UNL     1       3.247   6.999  17.851  0.00  0.00    +0.000 A 
ATOM      3  C   UNL     1       2.797   8.216  17.307  0.00  0.00    +0.000 A 
ATOM      4  C   UNL     1       1.993   9.099  18.051  0.00  0.00    +0.000 A 
ATOM      5  C   UNL     1       1.591   8.733  19.327  0.00  0.00    +0.000 A 
ATOM      6  C   UNL     1       2.031   7.503  19.836  0.00  0.00    +0.000 A 
ENDROOT
BRANCH   5   7
ATOM      7  N   UNL     1       0.706   9.479  20.129  0.00  0.00    +0.000 N 
ATOM      8  C   UNL     1       0.177  10.712  19.606  0.00  0.00    +0.000 C 
ATOM      9  C   UNL     1      -0.151  11.444  20.848  0.00  0.00    +0.000 A 
ATOM     10  C   UNL     1      -0.449  10.521  21.832  0.00  0.00    +0.000 A 
ATOM     11  C   UNL     1      -1.104  10.895  22.986  0.00  0.00    +0.000 A 
ATOM     12  C   UNL     1      -1.354  12.261  23.164  0.00  0.00    +0.000 A 
ATOM     13  C   UNL     1      -0.770  13.206  22.297  0.00  0.00    +0.000 A 
ATOM     14  C   UNL     1      -0.077  12.790  21.152  0.00  0.00    +0.000 A 
ATOM     15  C   UNL     1       0.281   9.279  21.446  0.00  0.00    +0.000 C 
ATOM     16  O   UNL     1       0.503   8.361  22.213  0.00  0.00    +0.000 OA
BRANCH  14  17
ATOM     17  C   UNL     1       0.931  13.687  20.478  0.00  0.00    +0.000 C 
ATOM     18  F   UNL     1       1.200  14.837  21.166  0.00  0.00    +0.000 F 
ATOM     19  F   UNL     1       2.132  13.102  20.257  0.00  0.00    +0.000 F 
ATOM     20  F   UNL     1       0.483  14.119  19.263  0.00  0.00    +0.000 F 
ENDBRANCH  14  17
ENDBRANCH   5   7
BRANCH   1  21
ATOM     21  C   UNL     1       3.378   5.371  19.859  0.00  0.00    +0.000 C 
BRANCH  21  22
ATOM     22  O   UNL     1       2.174   4.740  20.360  0.00  0.00    +0.000 OA
BRANCH  22  24
ATOM     23  C   UNL     1       1.380   2.728  21.319  0.00  0.00    +0.000 C 
ATOM     24  C   UNL     1       2.276   3.939  21.525  0.00  0.00    +0.000 C 
ENDBRANCH  22  24
ENDBRANCH  21  22
BRANCH  21  25
ATOM     25  C   UNL     1       4.121   4.421  18.902  0.00  0.00    +0.000 C 
BRANCH  25  26
ATOM     26  C   UNL     1       5.565   4.711  18.744  0.00  0.00    +0.000 A 
ATOM     27  N   UNL     1       6.384   5.117  19.684  0.00  0.00    +0.000 NA
ATOM     28  N   UNL     1       7.653   5.180  19.153  0.00  0.00    +0.000 NA
ATOM     29  C   UNL     1       7.578   4.797  17.901  0.00  0.00    +0.000 A 
ATOM     30  N   UNL     1       6.287   4.502  17.593  0.00  0.00    +0.000 N 
ATOM     31  C   UNL     1       5.791   4.065  16.321  0.00  0.00    +0.000 C 
ENDBRANCH  25  26
ENDBRANCH  21  25
ENDBRANCH   1  21
TORSDOF 7
ENDMDL
MODEL 3
REMARK VINA RESULT:      -8.1      1.409      1.820
REMARK  Name = 
REMARK  9 active torsions:
REMARK  status: ('A' for Active; 'I' for Inactive)
REMARK    1  A    between atoms: C_1  and  C_2
REMARK    2  A    between atoms: C_2  and  O_3
REMARK    3  A    between atoms: O_3  and  C_4
REMARK    4  A    between atoms: C_4  and  C_5
REMARK    5  A    between atoms: C_4  and  C_12
REMARK    6  A    between atoms: C_5  and  C_6
REMARK    7  A    between atoms: N_10  and  C_11
REMARK    8  A    between atoms: C_16  and  N_17
REMARK    9  A    between atoms: C_24  and  C_25
REMARK                            x       y       z     vdW  Elec       q    Type
REMARK                         _______ _______ _______ _____ _____    ______ ____
ROOT
ATOM      1  C   UNL     1       2.792   6.840  19.316  0.00  0.00    +0.000 A 
ATOM      2  C   UNL     1       3.131   7.225  18.019  0.00  0.00    +0.000 A 
ATOM      3  C   UNL     1       2.624   8.424  17.482  0.00  0.00    +0.000 A 
ATOM      4  C   UNL     1       1.786   9.267  18.235  0.00  0.00    +0.000 A 
ATOM      5  C   UNL     1       1.408   8.879  19.511  0.00  0.00    +0.000 A 
ATOM      6  C   UNL     1       1.905   7.668  20.013  0.00  0.00    +0.000 A 
ENDROOT
BRANCH   5   7
ATOM      7  N   UNL     1       0.495   9.581  20.322  0.00  0.00    +0.000 N 
ATOM      8  C   UNL     1      -0.556  10.331  19.683  0.00  0.00    +0.000 C 
ATOM      9  C   UNL     1      -0.869  11.341  20.716  0.00  0.00    +0.000 A 
ATOM     10  C   UNL     1      -0.586  10.799  21.955  0.00  0.00    +0.000 A 
ATOM     11  C   UNL     1      -1.078  11.366  23.111  0.00  0.00    +0.000 A 
ATOM     12  C   UNL     1      -1.780  12.570  22.983  0.00  0.00    +0.000 A 
ATOM     13  C   UNL     1      -1.790  13.256  21.752  0.00  0.00    +0.000 A 
ATOM     14  C   UNL     1      -1.246  12.666  20.603  0.00  0.00    +0.000 A 
ATOM     15  C   UNL     1       0.461   9.765  21.707  0.00  0.00    +0.000 C 
ATOM     16  O   UNL     1       1.166   9.296  22.580  0.00  0.00    +0.000 OA
BRANCH  14  17
ATOM     17  C   UNL     1      -0.813  13.501  19.424  0.00  0.00    +0.000 C 
ATOM     18  F   UNL     1      -1.223  14.804  19.484  0.00  0.00    +0.000 F 
ATOM     19  F   UNL     1       0.528  13.546  19.239  0.00  0.00    +0.000 F 
ATOM     20  F   UNL     1      -1.348  13.034  18.258  0.00  0.00    +0.000 F 
ENDBRANCH  14  17
ENDBRANCH   5   7
BRANCH   1  21
ATOM     21  C   UNL     1       3.346   5.598  20.020  0.00  0.00    +0.000 C 
BRANCH  21  22
ATOM     22  O   UNL     1       2.206   4.713  20.150  0.00  0.00    +0.000 OA
BRANCH  22  24
ATOM     23  C   UNL     1       1.357   2.758  21.177  0.00  0.00    +0.000 C 
ATOM     24  C   UNL     1       1.948   4.138  21.419  0.00  0.00    +0.000 C 
ENDBRANCH  22  24
ENDBRANCH  21  22
BRANCH  21  25
ATOM     25  C   UNL     1       4.459   4.917  19.202  0.00  0.00    +0.000 C 
BRANCH  25  26
ATOM     26  C   UNL     1       4.320   3.448  19.076  0.00  0.00    +0.000 A 
ATOM     27  N   UNL     1       4.813   2.548  19.892  0.00  0.00    +0.000 NA
ATOM     28  N   UNL     1       4.383   1.307  19.476  0.00  0.00    +0.000 NA
ATOM     29  C   UNL     1       3.626   1.483  18.420  0.00  0.00    +0.000 A 
ATOM     30  N   UNL     1       3.564   2.809  18.123  0.00  0.00    +0.000 N 
ATOM     31  C   UNL     1       2.853   3.406  17.031  0.00  0.00    +0.000 C 
ENDBRANCH  25  26
ENDBRANCH  21  25
ENDBRANCH   1  21
TORSDOF 7
ENDMDL
MODEL 4
REMARK VINA RESULT:      -8.1      2.510      3.709
REMARK  Name = 
REMARK  9 active torsions:
REMARK  status: ('A' for Active; 'I' for Inactive)
REMARK    1  A    between atoms: C_1  and  C_2
REMARK    2  A    between atoms: C_2  and  O_3
REMARK    3  A    between atoms: O_3  and  C_4
REMARK    4  A    between atoms: C_4  and  C_5
REMARK    5  A    between atoms: C_4  and  C_12
REMARK    6  A    between atoms: C_5  and  C_6
REMARK    7  A    between atoms: N_10  and  C_11
REMARK    8  A    between atoms: C_16  and  N_17
REMARK    9  A    between atoms: C_24  and  C_25
REMARK                            x       y       z     vdW  Elec       q    Type
REMARK                         _______ _______ _______ _____ _____    ______ ____
ROOT
ATOM      1  C   UNL     1       3.598   4.330  19.790  0.00  0.00    +0.000 A 
ATOM      2  C   UNL     1       2.694   3.478  20.426  0.00  0.00    +0.000 A 
ATOM      3  C   UNL     1       1.491   3.987  20.950  0.00  0.00    +0.000 A 
ATOM      4  C   UNL     1       1.159   5.350  20.833  0.00  0.00    +0.000 A 
ATOM      5  C   UNL     1       2.065   6.216  20.239  0.00  0.00    +0.000 A 
ATOM      6  C   UNL     1       3.267   5.689  19.749  0.00  0.00    +0.000 A 
ENDROOT
BRANCH   5   7
ATOM      7  N   UNL     1       1.896   7.612  20.155  0.00  0.00    +0.000 N 
ATOM      8  C   UNL     1       1.899   8.380  21.374  0.00  0.00    +0.000 C 
ATOM      9  C   UNL     1       1.128   9.575  20.973  0.00  0.00    +0.000 A 
ATOM     10  C   UNL     1       1.312   9.777  19.618  0.00  0.00    +0.000 A 
ATOM     11  C   UNL     1       0.996  10.982  19.028  0.00  0.00    +0.000 A 
ATOM     12  C   UNL     1       0.383  11.948  19.834  0.00  0.00    +0.000 A 
ATOM     13  C   UNL     1      -0.069  11.608  21.125  0.00  0.00    +0.000 A 
ATOM     14  C   UNL     1       0.237  10.358  21.681  0.00  0.00    +0.000 A 
ATOM     15  C   UNL     1       1.631   8.433  19.055  0.00  0.00    +0.000 C 
ATOM     16  O   UNL     1       1.559   8.163  17.872  0.00  0.00    +0.000 OA
BRANCH  14  17
ATOM     17  C   UNL     1      -0.584   9.780  22.806  0.00  0.00    +0.000 C 
ATOM     18  F   UNL     1      -1.614  10.582  23.213  0.00  0.00    +0.000 F 
ATOM     19  F   UNL     1      -1.144   8.579  22.523  0.00  0.00    +0.000 F 
ATOM     20  F   UNL     1       0.166   9.600  23.932  0.00  0.00    +0.000 F 
ENDBRANCH  14  17
ENDBRANCH   5   7
BRANCH   1  21
ATOM     21  C   UNL     1       4.895   3.867  19.122  0.00  0.00    +0.000 C 
BRANCH  21  22
ATOM     22  O   UNL     1       4.475   3.314  17.851  0.00  0.00    +0.000 OA
BRANCH  22  24
ATOM     23  C   UNL     1       2.477   2.121  17.426  0.00  0.00    +0.000 C 
ATOM     24  C   UNL     1       3.935   2.004  17.838  0.00  0.00    +0.000 C 
ENDBRANCH  22  24
ENDBRANCH  21  22
BRANCH  21  25
ATOM     25  C   UNL     1       5.878   5.031  18.899  0.00  0.00    +0.000 C 
BRANCH  25  26
ATOM     26  C   UNL     1       6.476   5.082  17.545  0.00  0.00    +0.000 A 
ATOM     27  N   UNL     1       7.539   4.430  17.139  0.00  0.00    +0.000 NA
ATOM     28  N   UNL     1       7.709   4.677  15.794  0.00  0.00    +0.000 NA
ATOM     29  C   UNL     1       6.734   5.466  15.410  0.00  0.00    +0.000 A 
ATOM     30  N   UNL     1       5.940   5.757  16.474  0.00  0.00    +0.000 N 
ATOM     31  C   UNL     1       4.781   6.601  16.468  0.00  0.00    +0.000 C 
ENDBRANCH  25  26
ENDBRANCH  21  25
ENDBRANCH   1  21
TORSDOF 7
ENDMDL
MODEL 5
REMARK VINA RESULT:      -8.1      2.894      4.236
REMARK  Name = 
REMARK  9 active torsions:
REMARK  status: ('A' for Active; 'I' for Inactive)
REMARK    1  A    between atoms: C_1  and  C_2
REMARK    2  A    between atoms: C_2  and  O_3
REMARK    3  A    between atoms: O_3  and  C_4
REMARK    4  A    between atoms: C_4  and  C_5
REMARK    5  A    between atoms: C_4  and  C_12
REMARK    6  A    between atoms: C_5  and  C_6
REMARK    7  A    between atoms: N_10  and  C_11
REMARK    8  A    between atoms: C_16  and  N_17
REMARK    9  A    between atoms: C_24  and  C_25
REMARK                            x       y       z     vdW  Elec       q    Type
REMARK                         _______ _______ _______ _____ _____    ______ ____
ROOT
ATOM      1  C   UNL     1       4.228   5.444  18.006  0.00  0.00    +0.000 A 
ATOM      2  C   UNL     1       3.526   4.323  18.450  0.00  0.00    +0.000 A 
ATOM      3  C   UNL     1       2.287   4.475  19.100  0.00  0.00    +0.000 A 
ATOM      4  C   UNL     1       1.717   5.746  19.303  0.00  0.00    +0.000 A 
ATOM      5  C   UNL     1       2.421   6.873  18.904  0.00  0.00    +0.000 A 
ATOM      6  C   UNL     1       3.665   6.695  18.283  0.00  0.00    +0.000 A 
ENDROOT
BRANCH   5   7
ATOM      7  N   UNL     1       2.008   8.198  19.142  0.00  0.00    +0.000 N 
ATOM      8  C   UNL     1       2.058   8.701  20.491  0.00  0.00    +0.000 C 
ATOM      9  C   UNL     1       1.046   9.777  20.443  0.00  0.00    +0.000 A 
ATOM     10  C   UNL     1       0.993  10.269  19.153  0.00  0.00    +0.000 A 
ATOM     11  C   UNL     1       0.396  11.480  18.874  0.00  0.00    +0.000 A 
ATOM     12  C   UNL     1      -0.249  12.132  19.932  0.00  0.00    +0.000 A 
ATOM     13  C   UNL     1      -0.444  11.467  21.159  0.00  0.00    +0.000 A 
ATOM     14  C   UNL     1       0.147  10.219  21.396  0.00  0.00    +0.000 A 
ATOM     15  C   UNL     1       1.451   9.148  18.281  0.00  0.00    +0.000 C 
ATOM     16  O   UNL     1       1.254   9.103  17.082  0.00  0.00    +0.000 OA
BRANCH  14  17
ATOM     17  C   UNL     1      -0.392   9.285  22.450  0.00  0.00    +0.000 C 
ATOM     18  F   UNL     1      -1.375   9.831  23.228  0.00  0.00    +0.000 F 
ATOM     19  F   UNL     1      -0.911   8.134  21.958  0.00  0.00    +0.000 F 
ATOM     20  F   UNL     1       0.578   8.921  23.339  0.00  0.00    +0.000 F 
ENDBRANCH  14  17
ENDBRANCH   5   7
BRANCH   1  21
ATOM     21  C   UNL     1       5.543   5.385  17.226  0.00  0.00    +0.000 C 
BRANCH  21  22
ATOM     22  O   UNL     1       6.484   4.770  18.141  0.00  0.00    +0.000 OA
BRANCH  22  24
ATOM     23  C   UNL     1       7.868   6.657  18.491  0.00  0.00    +0.000 C 
ATOM     24  C   UNL     1       7.042   5.574  19.166  0.00  0.00    +0.000 C 
ENDBRANCH  22  24
ENDBRANCH  21  22
BRANCH  21  25
ATOM     25  C   UNL     1       5.418   4.543  15.943  0.00  0.00    +0.000 C 
BRANCH  25  26
ATOM     26  C   UNL     1       6.410   4.871  14.892  0.00  0.00    +0.000 A 
ATOM     27  N   UNL     1       7.484   5.607  15.040  0.00  0.00    +0.000 NA
ATOM     28  N   UNL     1       8.184   5.592  13.853  0.00  0.00    +0.000 NA
ATOM     29  C   UNL     1       7.522   4.834  13.012  0.00  0.00    +0.000 A 
ATOM     30  N   UNL     1       6.395   4.366  13.614  0.00  0.00    +0.000 N 
ATOM     31  C   UNL     1       5.400   3.521  13.022  0.00  0.00    +0.000 C 
ENDBRANCH  25  26
ENDBRANCH  21  25
ENDBRANCH   1  21
TORSDOF 7
ENDMDL
MODEL 6
REMARK VINA RESULT:      -8.0      0.810      1.083
REMARK  Name = 
REMARK  9 active torsions:
REMARK  status: ('A' for Active; 'I' for Inactive)
REMARK    1  A    between atoms: C_1  and  C_2
REMARK    2  A    between atoms: C_2  and  O_3
REMARK    3  A    between atoms: O_3  and  C_4
REMARK    4  A    between atoms: C_4  and  C_5
REMARK    5  A    between atoms: C_4  and  C_12
REMARK    6  A    between atoms: C_5  and  C_6
REMARK    7  A    between atoms: N_10  and  C_11
REMARK    8  A    between atoms: C_16  and  N_17
REMARK    9  A    between atoms: C_24  and  C_25
REMARK                            x       y       z     vdW  Elec       q    Type
REMARK                         _______ _______ _______ _____ _____    ______ ____
ROOT
ATOM      1  C   UNL     1       2.784   6.803  18.774  0.00  0.00    +0.000 A 
ATOM      2  C   UNL     1       3.254   7.441  17.626  0.00  0.00    +0.000 A 
ATOM      3  C   UNL     1       2.866   8.764  17.343  0.00  0.00    +0.000 A 
ATOM      4  C   UNL     1       2.018   9.480  18.208  0.00  0.00    +0.000 A 
ATOM      5  C   UNL     1       1.511   8.847  19.333  0.00  0.00    +0.000 A 
ATOM      6  C   UNL     1       1.892   7.520  19.578  0.00  0.00    +0.000 A 
ENDROOT
BRANCH   5   7
ATOM      7  N   UNL     1       0.576   9.419  20.217  0.00  0.00    +0.000 N 
ATOM      8  C   UNL     1      -0.533  10.153  19.665  0.00  0.00    +0.000 C 
ATOM      9  C   UNL     1      -0.884  11.049  20.787  0.00  0.00    +0.000 A 
ATOM     10  C   UNL     1      -0.539  10.421  21.969  0.00  0.00    +0.000 A 
ATOM     11  C   UNL     1      -1.039  10.855  23.178  0.00  0.00    +0.000 A 
ATOM     12  C   UNL     1      -1.816  12.020  23.168  0.00  0.00    +0.000 A 
ATOM     13  C   UNL     1      -1.896  12.806  22.001  0.00  0.00    +0.000 A 
ATOM     14  C   UNL     1      -1.344  12.352  20.796  0.00  0.00    +0.000 A 
ATOM     15  C   UNL     1       0.562   9.480  21.614  0.00  0.00    +0.000 C 
ATOM     16  O   UNL     1       1.315   8.984  22.430  0.00  0.00    +0.000 OA
BRANCH  14  17
ATOM     17  C   UNL     1      -0.991  13.310  19.687  0.00  0.00    +0.000 C 
ATOM     18  F   UNL     1      -1.434  12.922  18.453  0.00  0.00    +0.000 F 
ATOM     19  F   UNL     1      -1.464  14.566  19.868  0.00  0.00    +0.000 F 
ATOM     20  F   UNL     1       0.361  13.426  19.537  0.00  0.00    +0.000 F 
ENDBRANCH  14  17
ENDBRANCH   5   7
BRANCH   1  21
ATOM     21  C   UNL     1       3.202   5.397  19.211  0.00  0.00    +0.000 C 
BRANCH  21  22
ATOM     22  O   UNL     1       2.014   4.588  19.027  0.00  0.00    +0.000 OA
BRANCH  22  24
ATOM     23  C   UNL     1       2.326   4.238  21.345  0.00  0.00    +0.000 C 
ATOM     24  C   UNL     1       1.591   3.767  20.101  0.00  0.00    +0.000 C 
ENDBRANCH  22  24
ENDBRANCH  21  22
BRANCH  21  25
ATOM     25  C   UNL     1       4.361   4.846  18.360  0.00  0.00    +0.000 C 
BRANCH  25  26
ATOM     26  C   UNL     1       5.711   5.209  18.848  0.00  0.00    +0.000 A 
ATOM     27  N   UNL     1       6.225   4.902  20.015  0.00  0.00    +0.000 NA
ATOM     28  N   UNL     1       7.530   5.344  20.042  0.00  0.00    +0.000 NA
ATOM     29  C   UNL     1       7.783   5.901  18.882  0.00  0.00    +0.000 A 
ATOM     30  N   UNL     1       6.670   5.850  18.102  0.00  0.00    +0.000 N 
ATOM     31  C   UNL     1       6.537   6.368  16.771  0.00  0.00    +0.000 C 
ENDBRANCH  25  26
ENDBRANCH  21  25
ENDBRANCH   1  21
TORSDOF 7
ENDMDL
MODEL 7
REMARK VINA RESULT:      -7.9      1.615      2.046
REMARK  Name = 
REMARK  9 active torsions:
REMARK  status: ('A' for Active; 'I' for Inactive)
REMARK    1  A    between atoms: C_1  and  C_2
REMARK    2  A    between atoms: C_2  and  O_3
REMARK    3  A    between atoms: O_3  and  C_4
REMARK    4  A    between atoms: C_4  and  C_5
REMARK    5  A    between atoms: C_4  and  C_12
REMARK    6  A    between atoms: C_5  and  C_6
REMARK    7  A    between atoms: N_10  and  C_11
REMARK    8  A    between atoms: C_16  and  N_17
REMARK    9  A    between atoms: C_24  and  C_25
REMARK                            x       y       z     vdW  Elec       q    Type
REMARK                         _______ _______ _______ _____ _____    ______ ____
ROOT
ATOM      1  C   UNL     1       2.669   6.945  19.362  0.00  0.00    +0.000 A 
ATOM      2  C   UNL     1       3.007   7.321  18.061  0.00  0.00    +0.000 A 
ATOM      3  C   UNL     1       2.507   8.520  17.519  0.00  0.00    +0.000 A 
ATOM      4  C   UNL     1       1.677   9.374  18.269  0.00  0.00    +0.000 A 
ATOM      5  C   UNL     1       1.300   8.995  19.549  0.00  0.00    +0.000 A 
ATOM      6  C   UNL     1       1.790   7.783  20.056  0.00  0.00    +0.000 A 
ENDROOT
BRANCH   5   7
ATOM      7  N   UNL     1       0.396   9.709  20.359  0.00  0.00    +0.000 N 
ATOM      8  C   UNL     1      -0.625  10.499  19.718  0.00  0.00    +0.000 C 
ATOM      9  C   UNL     1      -0.925  11.499  20.764  0.00  0.00    +0.000 A 
ATOM     10  C   UNL     1      -0.675  10.928  21.997  0.00  0.00    +0.000 A 
ATOM     11  C   UNL     1      -1.169  11.489  23.156  0.00  0.00    +0.000 A 
ATOM     12  C   UNL     1      -1.835  12.715  23.039  0.00  0.00    +0.000 A 
ATOM     13  C   UNL     1      -1.808  13.421  21.820  0.00  0.00    +0.000 A 
ATOM     14  C   UNL     1      -1.264  12.836  20.668  0.00  0.00    +0.000 A 
ATOM     15  C   UNL     1       0.346   9.870  21.747  0.00  0.00    +0.000 C 
ATOM     16  O   UNL     1       1.025   9.367  22.621  0.00  0.00    +0.000 OA
BRANCH  14  17
ATOM     17  C   UNL     1      -0.791  13.678  19.511  0.00  0.00    +0.000 C 
ATOM     18  F   UNL     1       0.569  13.784  19.418  0.00  0.00    +0.000 F 
ATOM     19  F   UNL     1      -1.209  13.238  18.299  0.00  0.00    +0.000 F 
ATOM     20  F   UNL     1      -1.223  14.968  19.622  0.00  0.00    +0.000 F 
ENDBRANCH  14  17
ENDBRANCH   5   7
BRANCH   1  21
ATOM     21  C   UNL     1       3.216   5.703  20.070  0.00  0.00    +0.000 C 
BRANCH  21  22
ATOM     22  O   UNL     1       2.043   4.907  20.370  0.00  0.00    +0.000 OA
BRANCH  22  24
ATOM     23  C   UNL     1       1.205   2.878  21.250  0.00  0.00    +0.000 C 
ATOM     24  C   UNL     1       2.063   4.100  21.534  0.00  0.00    +0.000 C 
ENDBRANCH  22  24
ENDBRANCH  21  22
BRANCH  21  25
ATOM     25  C   UNL     1       4.187   4.908  19.178  0.00  0.00    +0.000 C 
BRANCH  25  26
ATOM     26  C   UNL     1       3.595   3.709  18.540  0.00  0.00    +0.000 A 
ATOM     27  N   UNL     1       2.828   3.693  17.476  0.00  0.00    +0.000 NA
ATOM     28  N   UNL     1       2.566   2.380  17.152  0.00  0.00    +0.000 NA
ATOM     29  C   UNL     1       3.194   1.625  18.022  0.00  0.00    +0.000 A 
ATOM     30  N   UNL     1       3.845   2.412  18.919  0.00  0.00    +0.000 N 
ATOM     31  C   UNL     1       4.629   1.967  20.034  0.00  0.00    +0.000 C 
ENDBRANCH  25  26
ENDBRANCH  21  25
ENDBRANCH   1  21
TORSDOF 7
ENDMDL
MODEL 8
REMARK VINA RESULT:      -7.9      3.347      8.747
REMARK  Name = 
REMARK  9 active torsions:
REMARK  status: ('A' for Active; 'I' for Inactive)
REMARK    1  A    between atoms: C_1  and  C_2
REMARK    2  A    between atoms: C_2  and  O_3
REMARK    3  A    between atoms: O_3  and  C_4
REMARK    4  A    between atoms: C_4  and  C_5
REMARK    5  A    between atoms: C_4  and  C_12
REMARK    6  A    between atoms: C_5  and  C_6
REMARK    7  A    between atoms: N_10  and  C_11
REMARK    8  A    between atoms: C_16  and  N_17
REMARK    9  A    between atoms: C_24  and  C_25
REMARK                            x       y       z     vdW  Elec       q    Type
REMARK                         _______ _______ _______ _____ _____    ______ ____
ROOT
ATOM      1  C   UNL     1       1.754   6.006  20.519  0.00  0.00    +0.000 A 
ATOM      2  C   UNL     1       1.011   4.980  21.102  0.00  0.00    +0.000 A 
ATOM      3  C   UNL     1       1.268   3.638  20.762  0.00  0.00    +0.000 A 
ATOM      4  C   UNL     1       2.283   3.295  19.849  0.00  0.00    +0.000 A 
ATOM      5  C   UNL     1       3.004   4.305  19.231  0.00  0.00    +0.000 A 
ATOM      6  C   UNL     1       2.710   5.634  19.566  0.00  0.00    +0.000 A 
ENDROOT
BRANCH   5   7
ATOM      7  N   UNL     1       3.969   4.097  18.227  0.00  0.00    +0.000 N 
ATOM      8  C   UNL     1       5.350   4.367  18.535  0.00  0.00    +0.000 C 
ATOM      9  C   UNL     1       5.908   4.628  17.191  0.00  0.00    +0.000 A 
ATOM     10  C   UNL     1       5.171   3.911  16.268  0.00  0.00    +0.000 A 
ATOM     11  C   UNL     1       5.647   3.691  14.992  0.00  0.00    +0.000 A 
ATOM     12  C   UNL     1       6.850   4.315  14.643  0.00  0.00    +0.000 A 
ATOM     13  C   UNL     1       7.420   5.281  15.496  0.00  0.00    +0.000 A 
ATOM     14  C   UNL     1       6.888   5.508  16.772  0.00  0.00    +0.000 A 
ATOM     15  C   UNL     1       3.825   3.731  16.885  0.00  0.00    +0.000 C 
ATOM     16  O   UNL     1       2.832   3.419  16.258  0.00  0.00    +0.000 OA
BRANCH  14  17
ATOM     17  C   UNL     1       7.141   6.800  17.507  0.00  0.00    +0.000 C 
ATOM     18  F   UNL     1       7.624   6.634  18.776  0.00  0.00    +0.000 F 
ATOM     19  F   UNL     1       8.015   7.628  16.887  0.00  0.00    +0.000 F 
ATOM     20  F   UNL     1       5.988   7.512  17.677  0.00  0.00    +0.000 F 
ENDBRANCH  14  17
ENDBRANCH   5   7
BRANCH   1  21
ATOM     21  C   UNL     1       1.605   7.488  20.872  0.00  0.00    +0.000 C 
BRANCH  21  22
ATOM     22  O   UNL     1       2.339   8.186  19.836  0.00  0.00    +0.000 OA
BRANCH  22  24
ATOM     23  C   UNL     1       2.478   8.656  17.522  0.00  0.00    +0.000 C 
ATOM     24  C   UNL     1       1.606   8.750  18.763  0.00  0.00    +0.000 C 
ENDBRANCH  22  24
ENDBRANCH  21  22
BRANCH  21  25
ATOM     25  C   UNL     1       0.132   7.936  20.878  0.00  0.00    +0.000 C 
BRANCH  25  26
ATOM     26  C   UNL     1      -0.153   9.101  21.748  0.00  0.00    +0.000 A 
ATOM     27  N   UNL     1       0.032   9.167  23.044  0.00  0.00    +0.000 NA
ATOM     28  N   UNL     1      -0.268  10.447  23.458  0.00  0.00    +0.000 NA
ATOM     29  C   UNL     1      -0.617  11.135  22.397  0.00  0.00    +0.000 A 
ATOM     30  N   UNL     1      -0.571  10.332  21.301  0.00  0.00    +0.000 N 
ATOM     31  C   UNL     1      -0.898  10.705  19.956  0.00  0.00    +0.000 C 
ENDBRANCH  25  26
ENDBRANCH  21  25
ENDBRANCH   1  21
TORSDOF 7
ENDMDL
MODEL 9
REMARK VINA RESULT:      -7.8      4.609      7.457
REMARK  Name = 
REMARK  9 active torsions:
REMARK  status: ('A' for Active; 'I' for Inactive)
REMARK    1  A    between atoms: C_1  and  C_2
REMARK    2  A    between atoms: C_2  and  O_3
REMARK    3  A    between atoms: O_3  and  C_4
REMARK    4  A    between atoms: C_4  and  C_5
REMARK    5  A    between atoms: C_4  and  C_12
REMARK    6  A    between atoms: C_5  and  C_6
REMARK    7  A    between atoms: N_10  and  C_11
REMARK    8  A    between atoms: C_16  and  N_17
REMARK    9  A    between atoms: C_24  and  C_25
REMARK                            x       y       z     vdW  Elec       q    Type
REMARK                         _______ _______ _______ _____ _____    ______ ____
ROOT
ATOM      1  C   UNL     1      -2.046  11.423  17.997  0.00  0.00    +0.000 A 
ATOM      2  C   UNL     1      -2.466  11.060  16.717  0.00  0.00    +0.000 A 
ATOM      3  C   UNL     1      -3.833  11.096  16.384  0.00  0.00    +0.000 A 
ATOM      4  C   UNL     1      -4.804  11.510  17.315  0.00  0.00    +0.000 A 
ATOM      5  C   UNL     1      -4.407  11.836  18.603  0.00  0.00    +0.000 A 
ATOM      6  C   UNL     1      -3.043  11.766  18.917  0.00  0.00    +0.000 A 
ENDROOT
BRANCH   5   7
ATOM      7  N   UNL     1      -5.290  12.165  19.650  0.00  0.00    +0.000 N 
ATOM      8  C   UNL     1      -4.910  13.209  20.567  0.00  0.00    +0.000 C 
ATOM      9  C   UNL     1      -5.697  12.852  21.766  0.00  0.00    +0.000 A 
ATOM     10  C   UNL     1      -6.843  12.197  21.355  0.00  0.00    +0.000 A 
ATOM     11  C   UNL     1      -7.917  12.037  22.205  0.00  0.00    +0.000 A 
ATOM     12  C   UNL     1      -7.754  12.467  23.527  0.00  0.00    +0.000 A 
ATOM     13  C   UNL     1      -6.481  12.848  23.996  0.00  0.00    +0.000 A 
ATOM     14  C   UNL     1      -5.400  12.963  23.111  0.00  0.00    +0.000 A 
ATOM     15  C   UNL     1      -6.500  11.583  20.040  0.00  0.00    +0.000 C 
ATOM     16  O   UNL     1      -7.145  10.691  19.523  0.00  0.00    +0.000 OA
BRANCH  14  17
ATOM     17  C   UNL     1      -3.976  12.899  23.602  0.00  0.00    +0.000 C 
ATOM     18  F   UNL     1      -3.860  12.773  24.959  0.00  0.00    +0.000 F 
ATOM     19  F   UNL     1      -3.254  11.881  23.075  0.00  0.00    +0.000 F 
ATOM     20  F   UNL     1      -3.295  14.046  23.312  0.00  0.00    +0.000 F 
ENDBRANCH  14  17
ENDBRANCH   5   7
BRANCH   1  21
ATOM     21  C   UNL     1      -0.582  11.489  18.438  0.00  0.00    +0.000 C 
BRANCH  21  22
ATOM     22  O   UNL     1      -0.187  12.860  18.186  0.00  0.00    +0.000 OA
BRANCH  22  24
ATOM     23  C   UNL     1       0.018  15.074  18.994  0.00  0.00    +0.000 C 
ATOM     24  C   UNL     1       0.337  13.613  19.266  0.00  0.00    +0.000 C 
ENDBRANCH  22  24
ENDBRANCH  21  22
BRANCH  21  25
ATOM     25  C   UNL     1      -0.411  11.150  19.930  0.00  0.00    +0.000 C 
BRANCH  25  26
ATOM     26  C   UNL     1       0.341   9.901  20.195  0.00  0.00    +0.000 A 
ATOM     27  N   UNL     1       1.155   9.294  19.367  0.00  0.00    +0.000 NA
ATOM     28  N   UNL     1       1.722   8.224  20.025  0.00  0.00    +0.000 NA
ATOM     29  C   UNL     1       1.245   8.214  21.247  0.00  0.00    +0.000 A 
ATOM     30  N   UNL     1       0.367   9.241  21.400  0.00  0.00    +0.000 N 
ATOM     31  C   UNL     1      -0.378   9.558  22.584  0.00  0.00    +0.000 C 
ENDBRANCH  25  26
ENDBRANCH  21  25
ENDBRANCH   1  21
TORSDOF 7
ENDMDL
