MODEL 1
REMARK VINA RESULT:      -7.9      0.000      0.000
REMARK  Name = 
REMARK  9 active torsions:
REMARK  status: ('A' for Active; 'I' for Inactive)
REMARK    1  A    between atoms: C_1  and  N_2
REMARK    2  A    between atoms: N_2  and  C_3
REMARK    3  A    between atoms: C_7  and  C_8
REMARK    4  A    between atoms: N_10  and  C_11
REMARK    5  A    between atoms: C_15  and  C_16
REMARK    6  A    between atoms: C_16  and  C_17
REMARK    7  A    between atoms: C_16  and  S_18
REMARK    8  A    between atoms: S_18  and  C_19
REMARK    9  A    between atoms: N_23  and  C_24
REMARK                            x       y       z     vdW  Elec       q    Type
REMARK                         _______ _______ _______ _____ _____    ______ ____
ROOT
ATOM      1  C   UNL     1       7.948   7.930  17.998  0.00  0.00    +0.000 A 
ATOM      2  C   UNL     1       8.410   7.129  19.045  0.00  0.00    +0.000 A 
ATOM      3  C   UNL     1       7.887   5.853  19.251  0.00  0.00    +0.000 A 
ATOM      4  C   UNL     1       6.905   5.349  18.402  0.00  0.00    +0.000 A 
ATOM      5  C   UNL     1       6.418   6.118  17.333  0.00  0.00    +0.000 A 
ATOM      6  C   UNL     1       6.934   7.427  17.164  0.00  0.00    +0.000 A 
ENDROOT
BRANCH   1   9
ATOM      7  C   UNL     1       9.042  10.072  18.691  0.00  0.00    +0.000 C 
ATOM      8  O   UNL     1       9.238   9.818  19.877  0.00  0.00    +0.000 OA
ATOM      9  N   UNL     1       8.463   9.225  17.753  0.00  0.00    +0.000 N 
ATOM     10  H   UNL     1       8.497   9.562  16.794  0.00  0.00    +0.000 HD
BRANCH   7  15
ATOM     11  C   UNL     1       8.973  13.664  17.504  0.00  0.00    +0.000 A 
ATOM     12  C   UNL     1      10.326  13.812  17.211  0.00  0.00    +0.000 A 
ATOM     13  C   UNL     1      11.188  12.733  17.383  0.00  0.00    +0.000 A 
ATOM     14  N   UNL     1      10.815  11.524  17.855  0.00  0.00    +0.000 NA
ATOM     15  C   UNL     1       9.496  11.399  18.156  0.00  0.00    +0.000 A 
ATOM     16  C   UNL     1       8.563  12.425  18.002  0.00  0.00    +0.000 A 
BRANCH  11  18
ATOM     17  C   UNL     1       8.348  16.012  18.013  0.00  0.00    +0.000 C 
ATOM     18  N   UNL     1       8.049  14.705  17.461  0.00  0.00    +0.000 N 
ATOM     19  H   UNL     1       7.500  14.731  16.604  0.00  0.00    +0.000 HD
ENDBRANCH  11  18
ENDBRANCH   7  15
ENDBRANCH   1   9
BRANCH   5  20
ATOM     20  C   UNL     1       5.347   5.573  16.386  0.00  0.00    +0.000 C 
ATOM     21  C   UNL     1       4.019   5.367  17.123  0.00  0.00    +0.000 C 
BRANCH  20  22
ATOM     22  S   UNL     1       5.873   3.986  15.595  0.00  0.00    +0.000 S 
BRANCH  22  23
ATOM     23  C   UNL     1       6.786   4.568  14.243  0.00  0.00    +0.000 A 
ATOM     24  N   UNL     1       7.745   5.464  14.284  0.00  0.00    +0.000 NA
ATOM     25  N   UNL     1       8.191   5.667  12.999  0.00  0.00    +0.000 NA
ATOM     26  C   UNL     1       7.493   4.878  12.212  0.00  0.00    +0.000 A 
ATOM     27  N   UNL     1       6.597   4.164  12.953  0.00  0.00    +0.000 N 
ATOM     28  C   UNL     1       5.654   3.219  12.425  0.00  0.00    +0.000 C 
ENDBRANCH  22  23
ENDBRANCH  20  22
ENDBRANCH   5  20
TORSDOF 6
ENDMDL
MODEL 2
REMARK VINA RESULT:      -7.9      5.388      8.779
REMARK  Name = 
REMARK  9 active torsions:
REMARK  status: ('A' for Active; 'I' for Inactive)
REMARK    1  A    between atoms: C_1  and  N_2
REMARK    2  A    between atoms: N_2  and  C_3
REMARK    3  A    between atoms: C_7  and  C_8
REMARK    4  A    between atoms: N_10  and  C_11
REMARK    5  A    between atoms: C_15  and  C_16
REMARK    6  A    between atoms: C_16  and  C_17
REMARK    7  A    between atoms: C_16  and  S_18
REMARK    8  A    between atoms: S_18  and  C_19
REMARK    9  A    between atoms: N_23  and  C_24
REMARK                            x       y       z     vdW  Elec       q    Type
REMARK                         _______ _______ _______ _____ _____    ______ ____
ROOT
ATOM      1  C   UNL     1       4.066   5.078  17.493  0.00  0.00    +0.000 A 
ATOM      2  C   UNL     1       3.841   4.053  18.416  0.00  0.00    +0.000 A 
ATOM      3  C   UNL     1       3.171   4.306  19.613  0.00  0.00    +0.000 A 
ATOM      4  C   UNL     1       2.700   5.584  19.900  0.00  0.00    +0.000 A 
ATOM      5  C   UNL     1       2.899   6.641  18.997  0.00  0.00    +0.000 A 
ATOM      6  C   UNL     1       3.615   6.373  17.804  0.00  0.00    +0.000 A 
ENDROOT
BRANCH   1   9
ATOM      7  C   UNL     1       6.060   5.159  15.983  0.00  0.00    +0.000 C 
ATOM      8  O   UNL     1       6.881   5.633  16.765  0.00  0.00    +0.000 OA
ATOM      9  N   UNL     1       4.733   4.856  16.265  0.00  0.00    +0.000 N 
ATOM     10  H   UNL     1       4.242   4.357  15.528  0.00  0.00    +0.000 HD
BRANCH   7  15
ATOM     11  C   UNL     1       6.195   3.561  12.556  0.00  0.00    +0.000 A 
ATOM     12  C   UNL     1       7.302   4.241  12.053  0.00  0.00    +0.000 A 
ATOM     13  C   UNL     1       7.967   5.160  12.858  0.00  0.00    +0.000 A 
ATOM     14  N   UNL     1       7.599   5.481  14.118  0.00  0.00    +0.000 NA
ATOM     15  C   UNL     1       6.506   4.825  14.590  0.00  0.00    +0.000 A 
ATOM     16  C   UNL     1       5.789   3.881  13.853  0.00  0.00    +0.000 A 
BRANCH  11  18
ATOM     17  C   UNL     1       4.115   3.111  11.278  0.00  0.00    +0.000 C 
ATOM     18  N   UNL     1       5.402   2.699  11.802  0.00  0.00    +0.000 N 
ATOM     19  H   UNL     1       5.934   2.097  11.175  0.00  0.00    +0.000 HD
ENDBRANCH  11  18
ENDBRANCH   7  15
ENDBRANCH   1   9
BRANCH   5  20
ATOM     20  C   UNL     1       2.377   8.048  19.295  0.00  0.00    +0.000 C 
ATOM     21  C   UNL     1       1.477   8.047  20.534  0.00  0.00    +0.000 C 
BRANCH  20  22
ATOM     22  S   UNL     1       1.456   8.758  17.856  0.00  0.00    +0.000 S 
BRANCH  22  23
ATOM     23  C   UNL     1       1.412  10.437  18.277  0.00  0.00    +0.000 A 
ATOM     24  N   UNL     1       2.400  11.293  18.154  0.00  0.00    +0.000 NA
ATOM     25  N   UNL     1       1.968  12.510  18.625  0.00  0.00    +0.000 NA
ATOM     26  C   UNL     1       0.721  12.361  19.014  0.00  0.00    +0.000 A 
ATOM     27  N   UNL     1       0.327  11.071  18.811  0.00  0.00    +0.000 N 
ATOM     28  C   UNL     1      -0.966  10.539  19.138  0.00  0.00    +0.000 C 
ENDBRANCH  22  23
ENDBRANCH  20  22
ENDBRANCH   5  20
TORSDOF 6
ENDMDL
MODEL 3
REMARK VINA RESULT:      -7.8      7.264      9.841
REMARK  Name = 
REMARK  9 active torsions:
REMARK  status: ('A' for Active; 'I' for Inactive)
REMARK    1  A    between atoms: C_1  and  N_2
REMARK    2  A    between atoms: N_2  and  C_3
REMARK    3  A    between atoms: C_7  and  C_8
REMARK    4  A    between atoms: N_10  and  C_11
REMARK    5  A    between atoms: C_15  and  C_16
REMARK    6  A    between atoms: C_16  and  C_17
REMARK    7  A    between atoms: C_16  and  S_18
REMARK    8  A    between atoms: S_18  and  C_19
REMARK    9  A    between atoms: N_23  and  C_24
REMARK                            x       y       z     vdW  Elec       q    Type
REMARK                         _______ _______ _______ _____ _____    ______ ____
ROOT
ATOM      1  C   UNL     1       1.964   8.232  19.250  0.00  0.00    +0.000 A 
ATOM      2  C   UNL     1       1.553   7.863  20.533  0.00  0.00    +0.000 A 
ATOM      3  C   UNL     1       0.582   8.599  21.210  0.00  0.00    +0.000 A 
ATOM      4  C   UNL     1      -0.007   9.708  20.609  0.00  0.00    +0.000 A 
ATOM      5  C   UNL     1       0.371  10.109  19.318  0.00  0.00    +0.000 A 
ATOM      6  C   UNL     1       1.387   9.371  18.662  0.00  0.00    +0.000 A 
ENDROOT
BRANCH   1   9
ATOM      7  C   UNL     1       2.935   6.132  18.296  0.00  0.00    +0.000 C 
ATOM      8  O   UNL     1       2.067   5.337  18.643  0.00  0.00    +0.000 OA
ATOM      9  N   UNL     1       2.939   7.503  18.529  0.00  0.00    +0.000 N 
ATOM     10  H   UNL     1       3.680   8.015  18.059  0.00  0.00    +0.000 HD
BRANCH   7  15
ATOM     11  C   UNL     1       6.313   5.972  16.597  0.00  0.00    +0.000 A 
ATOM     12  C   UNL     1       6.231   4.676  16.093  0.00  0.00    +0.000 A 
ATOM     13  C   UNL     1       5.075   3.930  16.302  0.00  0.00    +0.000 A 
ATOM     14  N   UNL     1       4.003   4.360  17.002  0.00  0.00    +0.000 NA
ATOM     15  C   UNL     1       4.103   5.619  17.505  0.00  0.00    +0.000 A 
ATOM     16  C   UNL     1       5.221   6.438  17.332  0.00  0.00    +0.000 A 
BRANCH  11  18
ATOM     17  C   UNL     1       7.766   7.745  17.550  0.00  0.00    +0.000 C 
ATOM     18  N   UNL     1       7.458   6.762  16.530  0.00  0.00    +0.000 N 
ATOM     19  H   UNL     1       8.273   6.272  16.164  0.00  0.00    +0.000 HD
ENDBRANCH  11  18
ENDBRANCH   7  15
ENDBRANCH   1   9
BRANCH   5  20
ATOM     20  C   UNL     1      -0.276  11.320  18.641  0.00  0.00    +0.000 C 
ATOM     21  C   UNL     1       0.645  12.543  18.713  0.00  0.00    +0.000 C 
BRANCH  20  22
ATOM     22  S   UNL     1      -1.916  11.729  19.390  0.00  0.00    +0.000 S 
BRANCH  22  23
ATOM     23  C   UNL     1      -2.969  11.528  18.030  0.00  0.00    +0.000 A 
ATOM     24  N   UNL     1      -2.606  11.205  16.811  0.00  0.00    +0.000 NA
ATOM     25  N   UNL     1      -3.735  11.176  16.026  0.00  0.00    +0.000 NA
ATOM     26  C   UNL     1      -4.757  11.476  16.796  0.00  0.00    +0.000 A 
ATOM     27  N   UNL     1      -4.323  11.703  18.069  0.00  0.00    +0.000 N 
ATOM     28  C   UNL     1      -5.159  12.076  19.175  0.00  0.00    +0.000 C 
ENDBRANCH  22  23
ENDBRANCH  20  22
ENDBRANCH   5  20
TORSDOF 6
ENDMDL
MODEL 4
REMARK VINA RESULT:      -7.6      7.438     10.152
REMARK  Name = 
REMARK  9 active torsions:
REMARK  status: ('A' for Active; 'I' for Inactive)
REMARK    1  A    between atoms: C_1  and  N_2
REMARK    2  A    between atoms: N_2  and  C_3
REMARK    3  A    between atoms: C_7  and  C_8
REMARK    4  A    between atoms: N_10  and  C_11
REMARK    5  A    between atoms: C_15  and  C_16
REMARK    6  A    between atoms: C_16  and  C_17
REMARK    7  A    between atoms: C_16  and  S_18
REMARK    8  A    between atoms: S_18  and  C_19
REMARK    9  A    between atoms: N_23  and  C_24
REMARK                            x       y       z     vdW  Elec       q    Type
REMARK                         _______ _______ _______ _____ _____    ______ ____
ROOT
ATOM      1  C   UNL     1       1.462   8.578  19.998  0.00  0.00    +0.000 A 
ATOM      2  C   UNL     1       1.276   8.634  21.381  0.00  0.00    +0.000 A 
ATOM      3  C   UNL     1       0.530   9.660  21.960  0.00  0.00    +0.000 A 
ATOM      4  C   UNL     1      -0.057  10.639  21.163  0.00  0.00    +0.000 A 
ATOM      5  C   UNL     1       0.099  10.616  19.768  0.00  0.00    +0.000 A 
ATOM      6  C   UNL     1       0.892   9.587  19.202  0.00  0.00    +0.000 A 
ENDROOT
BRANCH   1   9
ATOM      7  C   UNL     1       2.249   6.213  19.769  0.00  0.00    +0.000 C 
ATOM      8  O   UNL     1       1.624   5.706  20.696  0.00  0.00    +0.000 OA
ATOM      9  N   UNL     1       2.204   7.546  19.375  0.00  0.00    +0.000 N 
ATOM     10  H   UNL     1       2.695   7.754  18.510  0.00  0.00    +0.000 HD
BRANCH   7  15
ATOM     11  C   UNL     1       5.336   4.528  18.371  0.00  0.00    +0.000 A 
ATOM     12  C   UNL     1       4.718   3.715  17.424  0.00  0.00    +0.000 A 
ATOM     13  C   UNL     1       3.337   3.775  17.263  0.00  0.00    +0.000 A 
ATOM     14  N   UNL     1       2.516   4.559  17.995  0.00  0.00    +0.000 NA
ATOM     15  C   UNL     1       3.129   5.333  18.929  0.00  0.00    +0.000 A 
ATOM     16  C   UNL     1       4.507   5.342  19.147  0.00  0.00    +0.000 A 
BRANCH  11  18
ATOM     17  C   UNL     1       7.397   5.611  19.233  0.00  0.00    +0.000 C 
ATOM     18  N   UNL     1       6.694   4.472  18.679  0.00  0.00    +0.000 N 
ATOM     19  H   UNL     1       6.990   3.574  19.059  0.00  0.00    +0.000 HD
ENDBRANCH  11  18
ENDBRANCH   7  15
ENDBRANCH   1   9
BRANCH   5  20
ATOM     20  C   UNL     1      -0.550  11.680  18.879  0.00  0.00    +0.000 C 
ATOM     21  C   UNL     1      -0.075  13.083  19.270  0.00  0.00    +0.000 C 
BRANCH  20  22
ATOM     22  S   UNL     1      -2.396  11.603  18.954  0.00  0.00    +0.000 S 
BRANCH  22  23
ATOM     23  C   UNL     1      -2.774  10.985  17.381  0.00  0.00    +0.000 A 
ATOM     24  N   UNL     1      -1.997  10.233  16.637  0.00  0.00    +0.000 NA
ATOM     25  N   UNL     1      -2.653   9.983  15.454  0.00  0.00    +0.000 NA
ATOM     26  C   UNL     1      -3.819  10.588  15.517  0.00  0.00    +0.000 A 
ATOM     27  N   UNL     1      -3.941  11.229  16.714  0.00  0.00    +0.000 N 
ATOM     28  C   UNL     1      -5.074  12.011  17.124  0.00  0.00    +0.000 C 
ENDBRANCH  22  23
ENDBRANCH  20  22
ENDBRANCH   5  20
TORSDOF 6
ENDMDL
MODEL 5
REMARK VINA RESULT:      -7.5      7.321      9.818
REMARK  Name = 
REMARK  9 active torsions:
REMARK  status: ('A' for Active; 'I' for Inactive)
REMARK    1  A    between atoms: C_1  and  N_2
REMARK    2  A    between atoms: N_2  and  C_3
REMARK    3  A    between atoms: C_7  and  C_8
REMARK    4  A    between atoms: N_10  and  C_11
REMARK    5  A    between atoms: C_15  and  C_16
REMARK    6  A    between atoms: C_16  and  C_17
REMARK    7  A    between atoms: C_16  and  S_18
REMARK    8  A    between atoms: S_18  and  C_19
REMARK    9  A    between atoms: N_23  and  C_24
REMARK                            x       y       z     vdW  Elec       q    Type
REMARK                         _______ _______ _______ _____ _____    ______ ____
ROOT
ATOM      1  C   UNL     1       1.495   8.626  19.613  0.00  0.00    +0.000 A 
ATOM      2  C   UNL     1       1.219   8.398  20.963  0.00  0.00    +0.000 A 
ATOM      3  C   UNL     1       0.367   9.245  21.670  0.00  0.00    +0.000 A 
ATOM      4  C   UNL     1      -0.237  10.327  21.034  0.00  0.00    +0.000 A 
ATOM      5  C   UNL     1       0.008  10.588  19.676  0.00  0.00    +0.000 A 
ATOM      6  C   UNL     1       0.907   9.738  18.985  0.00  0.00    +0.000 A 
ENDROOT
BRANCH   1   9
ATOM      7  C   UNL     1       2.497   6.409  19.025  0.00  0.00    +0.000 C 
ATOM      8  O   UNL     1       1.889   5.700  19.822  0.00  0.00    +0.000 OA
ATOM      9  N   UNL     1       2.347   7.782  18.861  0.00  0.00    +0.000 N 
ATOM     10  H   UNL     1       2.847   8.175  18.068  0.00  0.00    +0.000 HD
BRANCH   7  15
ATOM     11  C   UNL     1       5.505   5.902  16.785  0.00  0.00    +0.000 A 
ATOM     12  C   UNL     1       5.274   4.577  16.423  0.00  0.00    +0.000 A 
ATOM     13  C   UNL     1       4.140   3.923  16.898  0.00  0.00    +0.000 A 
ATOM     14  N   UNL     1       3.232   4.475  17.732  0.00  0.00    +0.000 NA
ATOM     15  C   UNL     1       3.480   5.762  18.093  0.00  0.00    +0.000 A 
ATOM     16  C   UNL     1       4.585   6.493  17.653  0.00  0.00    +0.000 A 
BRANCH  11  18
ATOM     17  C   UNL     1       7.492   7.231  17.455  0.00  0.00    +0.000 C 
ATOM     18  N   UNL     1       6.655   6.612  16.447  0.00  0.00    +0.000 N 
ATOM     19  H   UNL     1       7.172   6.206  15.668  0.00  0.00    +0.000 HD
ENDBRANCH  11  18
ENDBRANCH   7  15
ENDBRANCH   1   9
BRANCH   5  20
ATOM     20  C   UNL     1      -0.657  11.767  18.962  0.00  0.00    +0.000 C 
ATOM     21  C   UNL     1      -0.221  13.098  19.582  0.00  0.00    +0.000 C 
BRANCH  20  22
ATOM     22  S   UNL     1      -2.502  11.638  18.998  0.00  0.00    +0.000 S 
BRANCH  22  23
ATOM     23  C   UNL     1      -2.831  11.051  17.402  0.00  0.00    +0.000 A 
ATOM     24  N   UNL     1      -2.022  10.334  16.658  0.00  0.00    +0.000 NA
ATOM     25  N   UNL     1      -2.646  10.100  15.455  0.00  0.00    +0.000 NA
ATOM     26  C   UNL     1      -3.827  10.677  15.507  0.00  0.00    +0.000 A 
ATOM     27  N   UNL     1      -3.989  11.286  16.716  0.00  0.00    +0.000 N 
ATOM     28  C   UNL     1      -5.147  12.033  17.119  0.00  0.00    +0.000 C 
ENDBRANCH  22  23
ENDBRANCH  20  22
ENDBRANCH   5  20
TORSDOF 6
ENDMDL
MODEL 6
REMARK VINA RESULT:      -7.5      5.411      9.209
REMARK  Name = 
REMARK  9 active torsions:
REMARK  status: ('A' for Active; 'I' for Inactive)
REMARK    1  A    between atoms: C_1  and  N_2
REMARK    2  A    between atoms: N_2  and  C_3
REMARK    3  A    between atoms: C_7  and  C_8
REMARK    4  A    between atoms: N_10  and  C_11
REMARK    5  A    between atoms: C_15  and  C_16
REMARK    6  A    between atoms: C_16  and  C_17
REMARK    7  A    between atoms: C_16  and  S_18
REMARK    8  A    between atoms: S_18  and  C_19
REMARK    9  A    between atoms: N_23  and  C_24
REMARK                            x       y       z     vdW  Elec       q    Type
REMARK                         _______ _______ _______ _____ _____    ______ ____
ROOT
ATOM      1  C   UNL     1       4.041   5.642  17.423  0.00  0.00    +0.000 A 
ATOM      2  C   UNL     1       4.139   4.913  18.611  0.00  0.00    +0.000 A 
ATOM      3  C   UNL     1       3.454   5.318  19.755  0.00  0.00    +0.000 A 
ATOM      4  C   UNL     1       2.645   6.451  19.727  0.00  0.00    +0.000 A 
ATOM      5  C   UNL     1       2.512   7.208  18.552  0.00  0.00    +0.000 A 
ATOM      6  C   UNL     1       3.247   6.802  17.411  0.00  0.00    +0.000 A 
ENDROOT
BRANCH   1   9
ATOM      7  C   UNL     1       6.005   5.616  15.872  0.00  0.00    +0.000 C 
ATOM      8  O   UNL     1       6.786   6.298  16.531  0.00  0.00    +0.000 OA
ATOM      9  N   UNL     1       4.714   5.255  16.240  0.00  0.00    +0.000 N 
ATOM     10  H   UNL     1       4.264   4.585  15.621  0.00  0.00    +0.000 HD
BRANCH   7  15
ATOM     11  C   UNL     1       6.104   3.598  12.673  0.00  0.00    +0.000 A 
ATOM     12  C   UNL     1       7.294   4.096  12.149  0.00  0.00    +0.000 A 
ATOM     13  C   UNL     1       8.021   5.038  12.872  0.00  0.00    +0.000 A 
ATOM     14  N   UNL     1       7.641   5.548  14.063  0.00  0.00    +0.000 NA
ATOM     15  C   UNL     1       6.467   5.068  14.554  0.00  0.00    +0.000 A 
ATOM     16  C   UNL     1       5.683   4.117  13.900  0.00  0.00    +0.000 A 
BRANCH  11  18
ATOM     17  C   UNL     1       4.077   3.214  11.291  0.00  0.00    +0.000 C 
ATOM     18  N   UNL     1       5.254   2.733  11.987  0.00  0.00    +0.000 N 
ATOM     19  H   UNL     1       5.740   1.976  11.510  0.00  0.00    +0.000 HD
ENDBRANCH  11  18
ENDBRANCH   7  15
ENDBRANCH   1   9
BRANCH   5  20
ATOM     20  C   UNL     1       1.618   8.449  18.504  0.00  0.00    +0.000 C 
ATOM     21  C   UNL     1       2.302   9.587  17.740  0.00  0.00    +0.000 C 
BRANCH  20  22
ATOM     22  S   UNL     1       1.154   9.026  20.199  0.00  0.00    +0.000 S 
BRANCH  22  23
ATOM     23  C   UNL     1       0.043  10.302  19.830  0.00  0.00    +0.000 A 
ATOM     24  N   UNL     1      -1.135  10.165  19.266  0.00  0.00    +0.000 NA
ATOM     25  N   UNL     1      -1.685  11.417  19.123  0.00  0.00    +0.000 NA
ATOM     26  C   UNL     1      -0.825  12.283  19.613  0.00  0.00    +0.000 A 
ATOM     27  N   UNL     1       0.278  11.625  20.073  0.00  0.00    +0.000 N 
ATOM     28  C   UNL     1       1.431  12.251  20.656  0.00  0.00    +0.000 C 
ENDBRANCH  22  23
ENDBRANCH  20  22
ENDBRANCH   5  20
TORSDOF 6
ENDMDL
MODEL 7
REMARK VINA RESULT:      -7.5      7.866      9.194
REMARK  Name = 
REMARK  9 active torsions:
REMARK  status: ('A' for Active; 'I' for Inactive)
REMARK    1  A    between atoms: C_1  and  N_2
REMARK    2  A    between atoms: N_2  and  C_3
REMARK    3  A    between atoms: C_7  and  C_8
REMARK    4  A    between atoms: N_10  and  C_11
REMARK    5  A    between atoms: C_15  and  C_16
REMARK    6  A    between atoms: C_16  and  C_17
REMARK    7  A    between atoms: C_16  and  S_18
REMARK    8  A    between atoms: S_18  and  C_19
REMARK    9  A    between atoms: N_23  and  C_24
REMARK                            x       y       z     vdW  Elec       q    Type
REMARK                         _______ _______ _______ _____ _____    ______ ____
ROOT
ATOM      1  C   UNL     1       0.926   9.556  19.847  0.00  0.00    +0.000 A 
ATOM      2  C   UNL     1       1.054   9.775  18.474  0.00  0.00    +0.000 A 
ATOM      3  C   UNL     1       1.731   8.864  17.665  0.00  0.00    +0.000 A 
ATOM      4  C   UNL     1       2.280   7.708  18.215  0.00  0.00    +0.000 A 
ATOM      5  C   UNL     1       2.168   7.445  19.589  0.00  0.00    +0.000 A 
ATOM      6  C   UNL     1       1.509   8.402  20.400  0.00  0.00    +0.000 A 
ENDROOT
BRANCH   1   9
ATOM      7  C   UNL     1       0.622  11.753  21.005  0.00  0.00    +0.000 C 
ATOM      8  O   UNL     1       1.601  12.347  20.563  0.00  0.00    +0.000 OA
ATOM      9  N   UNL     1       0.237  10.453  20.696  0.00  0.00    +0.000 N 
ATOM     10  H   UNL     1      -0.669  10.176  21.065  0.00  0.00    +0.000 HD
BRANCH   7  15
ATOM     11  C   UNL     1      -2.336  12.529  23.235  0.00  0.00    +0.000 A 
ATOM     12  C   UNL     1      -1.944  13.793  23.668  0.00  0.00    +0.000 A 
ATOM     13  C   UNL     1      -0.758  14.344  23.193  0.00  0.00    +0.000 A 
ATOM     14  N   UNL     1       0.088  13.722  22.343  0.00  0.00    +0.000 NA
ATOM     15  C   UNL     1      -0.296  12.481  21.944  0.00  0.00    +0.000 A 
ATOM     16  C   UNL     1      -1.474  11.861  22.363  0.00  0.00    +0.000 A 
BRANCH  11  18
ATOM     17  C   UNL     1      -4.398  12.485  24.616  0.00  0.00    +0.000 C 
ATOM     18  N   UNL     1      -3.449  11.849  23.725  0.00  0.00    +0.000 N 
ATOM     19  H   UNL     1      -3.873  11.216  23.048  0.00  0.00    +0.000 HD
ENDBRANCH  11  18
ENDBRANCH   7  15
ENDBRANCH   1   9
BRANCH   5  20
ATOM     20  C   UNL     1       2.757   6.173  20.204  0.00  0.00    +0.000 C 
ATOM     21  C   UNL     1       3.954   5.674  19.388  0.00  0.00    +0.000 C 
BRANCH  20  22
ATOM     22  S   UNL     1       1.493   4.829  20.343  0.00  0.00    +0.000 S 
BRANCH  22  23
ATOM     23  C   UNL     1       1.947   3.800  19.026  0.00  0.00    +0.000 A 
ATOM     24  N   UNL     1       1.504   3.880  17.792  0.00  0.00    +0.000 NA
ATOM     25  N   UNL     1       2.086   2.867  17.066  0.00  0.00    +0.000 NA
ATOM     26  C   UNL     1       2.876   2.203  17.881  0.00  0.00    +0.000 A 
ATOM     27  N   UNL     1       2.823   2.758  19.127  0.00  0.00    +0.000 N 
ATOM     28  C   UNL     1       3.540   2.282  20.276  0.00  0.00    +0.000 C 
ENDBRANCH  22  23
ENDBRANCH  20  22
ENDBRANCH   5  20
TORSDOF 6
ENDMDL
MODEL 8
REMARK VINA RESULT:      -7.5      4.719      6.848
REMARK  Name = 
REMARK  9 active torsions:
REMARK  status: ('A' for Active; 'I' for Inactive)
REMARK    1  A    between atoms: C_1  and  N_2
REMARK    2  A    between atoms: N_2  and  C_3
REMARK    3  A    between atoms: C_7  and  C_8
REMARK    4  A    between atoms: N_10  and  C_11
REMARK    5  A    between atoms: C_15  and  C_16
REMARK    6  A    between atoms: C_16  and  C_17
REMARK    7  A    between atoms: C_16  and  S_18
REMARK    8  A    between atoms: S_18  and  C_19
REMARK    9  A    between atoms: N_23  and  C_24
REMARK                            x       y       z     vdW  Elec       q    Type
REMARK                         _______ _______ _______ _____ _____    ______ ____
ROOT
ATOM      1  C   UNL     1       2.589   5.832  18.224  0.00  0.00    +0.000 A 
ATOM      2  C   UNL     1       1.922   4.607  18.294  0.00  0.00    +0.000 A 
ATOM      3  C   UNL     1       2.409   3.490  17.615  0.00  0.00    +0.000 A 
ATOM      4  C   UNL     1       3.580   3.577  16.868  0.00  0.00    +0.000 A 
ATOM      5  C   UNL     1       4.285   4.787  16.777  0.00  0.00    +0.000 A 
ATOM      6  C   UNL     1       3.754   5.920  17.442  0.00  0.00    +0.000 A 
ENDROOT
BRANCH   1   9
ATOM      7  C   UNL     1       1.989   8.258  18.370  0.00  0.00    +0.000 C 
ATOM      8  O   UNL     1       2.203   8.585  17.206  0.00  0.00    +0.000 OA
ATOM      9  N   UNL     1       2.130   6.983  18.908  0.00  0.00    +0.000 N 
ATOM     10  H   UNL     1       1.788   6.880  19.860  0.00  0.00    +0.000 HD
BRANCH   7  15
ATOM     11  C   UNL     1       0.822  11.581  19.753  0.00  0.00    +0.000 A 
ATOM     12  C   UNL     1       0.551  11.179  21.059  0.00  0.00    +0.000 A 
ATOM     13  C   UNL     1       0.788   9.860  21.435  0.00  0.00    +0.000 A 
ATOM     14  N   UNL     1       1.245   8.899  20.603  0.00  0.00    +0.000 NA
ATOM     15  C   UNL     1       1.487   9.299  19.327  0.00  0.00    +0.000 A 
ATOM     16  C   UNL     1       1.287  10.603  18.872  0.00  0.00    +0.000 A 
BRANCH  11  18
ATOM     17  C   UNL     1       1.051  14.051  19.865  0.00  0.00    +0.000 C 
ATOM     18  N   UNL     1       0.526  12.847  19.252  0.00  0.00    +0.000 N 
ATOM     19  H   UNL     1       0.480  12.883  18.235  0.00  0.00    +0.000 HD
ENDBRANCH  11  18
ENDBRANCH   7  15
ENDBRANCH   1   9
BRANCH   5  20
ATOM     20  C   UNL     1       5.580   4.893  15.968  0.00  0.00    +0.000 C 
ATOM     21  C   UNL     1       5.557   3.937  14.771  0.00  0.00    +0.000 C 
BRANCH  20  22
ATOM     22  S   UNL     1       7.070   4.551  17.010  0.00  0.00    +0.000 S 
BRANCH  22  23
ATOM     23  C   UNL     1       7.533   6.154  17.474  0.00  0.00    +0.000 A 
ATOM     24  N   UNL     1       7.549   7.212  16.697  0.00  0.00    +0.000 NA
ATOM     25  N   UNL     1       8.004   8.277  17.439  0.00  0.00    +0.000 NA
ATOM     26  C   UNL     1       8.244   7.835  18.654  0.00  0.00    +0.000 A 
ATOM     27  N   UNL     1       7.959   6.503  18.724  0.00  0.00    +0.000 N 
ATOM     28  C   UNL     1       8.121   5.682  19.891  0.00  0.00    +0.000 C 
ENDBRANCH  22  23
ENDBRANCH  20  22
ENDBRANCH   5  20
TORSDOF 6
ENDMDL
MODEL 9
REMARK VINA RESULT:      -7.5      7.718     10.534
REMARK  Name = 
REMARK  9 active torsions:
REMARK  status: ('A' for Active; 'I' for Inactive)
REMARK    1  A    between atoms: C_1  and  N_2
REMARK    2  A    between atoms: N_2  and  C_3
REMARK    3  A    between atoms: C_7  and  C_8
REMARK    4  A    between atoms: N_10  and  C_11
REMARK    5  A    between atoms: C_15  and  C_16
REMARK    6  A    between atoms: C_16  and  C_17
REMARK    7  A    between atoms: C_16  and  S_18
REMARK    8  A    between atoms: S_18  and  C_19
REMARK    9  A    between atoms: N_23  and  C_24
REMARK                            x       y       z     vdW  Elec       q    Type
REMARK                         _______ _______ _______ _____ _____    ______ ____
ROOT
ATOM      1  C   UNL     1       1.482   8.301  20.716  0.00  0.00    +0.000 A 
ATOM      2  C   UNL     1       1.042   8.495  22.028  0.00  0.00    +0.000 A 
ATOM      3  C   UNL     1       0.223   9.574  22.354  0.00  0.00    +0.000 A 
ATOM      4  C   UNL     1      -0.185  10.471  21.370  0.00  0.00    +0.000 A 
ATOM      5  C   UNL     1       0.228  10.310  20.038  0.00  0.00    +0.000 A 
ATOM      6  C   UNL     1       1.092   9.228  19.734  0.00  0.00    +0.000 A 
ENDROOT
BRANCH   1   9
ATOM      7  C   UNL     1       1.939   5.870  20.335  0.00  0.00    +0.000 C 
ATOM      8  O   UNL     1       0.831   5.416  20.606  0.00  0.00    +0.000 OA
ATOM      9  N   UNL     1       2.305   7.212  20.347  0.00  0.00    +0.000 N 
ATOM     10  H   UNL     1       3.231   7.406  19.975  0.00  0.00    +0.000 HD
BRANCH   7  15
ATOM     11  C   UNL     1       5.281   4.554  19.147  0.00  0.00    +0.000 A 
ATOM     12  C   UNL     1       4.984   3.193  19.157  0.00  0.00    +0.000 A 
ATOM     13  C   UNL     1       3.708   2.771  19.518  0.00  0.00    +0.000 A 
ATOM     14  N   UNL     1       2.710   3.597  19.902  0.00  0.00    +0.000 NA
ATOM     15  C   UNL     1       3.019   4.920  19.907  0.00  0.00    +0.000 A 
ATOM     16  C   UNL     1       4.269   5.427  19.548  0.00  0.00    +0.000 A 
BRANCH  11  18
ATOM     17  C   UNL     1       7.323   4.671  17.739  0.00  0.00    +0.000 C 
ATOM     18  N   UNL     1       6.551   5.071  18.899  0.00  0.00    +0.000 N 
ATOM     19  H   UNL     1       6.646   6.055  19.144  0.00  0.00    +0.000 HD
ENDBRANCH  11  18
ENDBRANCH   7  15
ENDBRANCH   1   9
BRANCH   5  20
ATOM     20  C   UNL     1      -0.221  11.282  18.945  0.00  0.00    +0.000 C 
ATOM     21  C   UNL     1       0.818  12.389  18.737  0.00  0.00    +0.000 C 
BRANCH  20  22
ATOM     22  S   UNL     1      -1.866  12.035  19.329  0.00  0.00    +0.000 S 
BRANCH  22  23
ATOM     23  C   UNL     1      -2.775  11.599  17.921  0.00  0.00    +0.000 A 
ATOM     24  N   UNL     1      -2.281  11.199  16.773  0.00  0.00    +0.000 NA
ATOM     25  N   UNL     1      -3.331  10.981  15.912  0.00  0.00    +0.000 NA
ATOM     26  C   UNL     1      -4.439  11.248  16.568  0.00  0.00    +0.000 A 
ATOM     27  N   UNL     1      -4.138  11.639  17.840  0.00  0.00    +0.000 N 
ATOM     28  C   UNL     1      -5.097  12.029  18.835  0.00  0.00    +0.000 C 
ENDBRANCH  22  23
ENDBRANCH  20  22
ENDBRANCH   5  20
TORSDOF 6
ENDMDL
