MODEL 1
REMARK VINA RESULT:      -9.3      0.000      0.000
REMARK  Name = 
REMARK  6 active torsions:
REMARK  status: ('A' for Active; 'I' for Inactive)
REMARK    1  A    between atoms: C_1  and  C_2
REMARK    2  A    between atoms: C_2  and  C_3
REMARK    3  A    between atoms: C_2  and  C_10
REMARK    4  A    between atoms: C_3  and  C_4
REMARK    5  A    between atoms: N_8  and  C_9
REMARK    6  A    between atoms: C_22  and  C_23
REMARK                            x       y       z     vdW  Elec       q    Type
REMARK                         _______ _______ _______ _____ _____    ______ ____
ROOT
ATOM      1  C   UNL     1       4.354   5.170  17.371  0.00  0.00    +0.000 A 
ATOM      2  C   UNL     1       3.509   4.059  17.423  0.00  0.00    +0.000 A 
ATOM      3  C   UNL     1       2.265   4.192  18.024  0.00  0.00    +0.000 A 
ATOM      4  N   UNL     1       1.810   5.339  18.571  0.00  0.00    +0.000 NA
ATOM      5  C   UNL     1       2.574   6.435  18.401  0.00  0.00    +0.000 A 
ATOM      6  N   UNL     1       2.097   7.648  18.896  0.00  0.00    +0.000 N 
ATOM      7  C   UNL     1       1.477   7.747  20.196  0.00  0.00    +0.000 C 
ATOM      8  C   UNL     1       1.045   9.184  20.236  0.00  0.00    +0.000 A 
ATOM      9  C   UNL     1       1.270   9.769  18.986  0.00  0.00    +0.000 A 
ATOM     10  C   UNL     1       0.890  11.060  18.679  0.00  0.00    +0.000 A 
ATOM     11  C   UNL     1       0.297  11.812  19.691  0.00  0.00    +0.000 A 
ATOM     12  C   UNL     1       0.122  11.263  20.975  0.00  0.00    +0.000 A 
ATOM     13  C   UNL     1       0.502   9.937  21.274  0.00  0.00    +0.000 A 
ATOM     14  C   UNL     1       1.977   8.799  18.138  0.00  0.00    +0.000 C 
ATOM     15  O   UNL     1       2.344   9.031  17.002  0.00  0.00    +0.000 OA
ATOM     16  C   UNL     1       3.835   6.394  17.808  0.00  0.00    +0.000 A 
ENDROOT
BRANCH  13  17
ATOM     17  C   UNL     1       0.347   9.414  22.677  0.00  0.00    +0.000 C 
ATOM     18  F   UNL     1       1.525   9.086  23.275  0.00  0.00    +0.000 F 
ATOM     19  F   UNL     1      -0.242  10.324  23.501  0.00  0.00    +0.000 F 
ATOM     20  F   UNL     1      -0.428   8.298  22.737  0.00  0.00    +0.000 F 
ENDBRANCH  13  17
BRANCH   1  22
ATOM     21  C   UNL     1       6.776   4.857  18.087  0.00  0.00    +0.000 C 
ATOM     22  C   UNL     1       5.807   5.091  16.913  0.00  0.00    +0.000 C 
BRANCH  22  23
ATOM     23  C   UNL     1       5.978   4.053  15.787  0.00  0.00    +0.000 C 
BRANCH  23  24
ATOM     24  C   UNL     1       6.784   4.573  14.641  0.00  0.00    +0.000 A 
ATOM     25  N   UNL     1       7.771   5.442  14.721  0.00  0.00    +0.000 NA
ATOM     26  N   UNL     1       8.241   5.686  13.453  0.00  0.00    +0.000 NA
ATOM     27  C   UNL     1       7.537   4.955  12.624  0.00  0.00    +0.000 A 
ATOM     28  N   UNL     1       6.618   4.234  13.321  0.00  0.00    +0.000 N 
ATOM     29  C   UNL     1       5.677   3.303  12.761  0.00  0.00    +0.000 C 
ENDBRANCH  23  24
ENDBRANCH  22  23
ENDBRANCH   1  22
TORSDOF 4
ENDMDL
MODEL 2
REMARK VINA RESULT:      -8.9      4.011      8.538
REMARK  Name = 
REMARK  6 active torsions:
REMARK  status: ('A' for Active; 'I' for Inactive)
REMARK    1  A    between atoms: C_1  and  C_2
REMARK    2  A    between atoms: C_2  and  C_3
REMARK    3  A    between atoms: C_2  and  C_10
REMARK    4  A    between atoms: C_3  and  C_4
REMARK    5  A    between atoms: N_8  and  C_9
REMARK    6  A    between atoms: C_22  and  C_23
REMARK                            x       y       z     vdW  Elec       q    Type
REMARK                         _______ _______ _______ _____ _____    ______ ____
ROOT
ATOM      1  C   UNL     1       0.229  10.428  20.047  0.00  0.00    +0.000 A 
ATOM      2  C   UNL     1       0.475  10.565  21.416  0.00  0.00    +0.000 A 
ATOM      3  C   UNL     1       1.134   9.542  22.083  0.00  0.00    +0.000 A 
ATOM      4  N   UNL     1       1.557   8.405  21.492  0.00  0.00    +0.000 NA
ATOM      5  C   UNL     1       1.433   8.337  20.152  0.00  0.00    +0.000 A 
ATOM      6  N   UNL     1       1.925   7.204  19.506  0.00  0.00    +0.000 N 
ATOM      7  C   UNL     1       1.708   5.876  20.031  0.00  0.00    +0.000 C 
ATOM      8  C   UNL     1       2.491   5.023  19.077  0.00  0.00    +0.000 A 
ATOM      9  C   UNL     1       3.209   5.846  18.204  0.00  0.00    +0.000 A 
ATOM     10  C   UNL     1       4.099   5.357  17.268  0.00  0.00    +0.000 A 
ATOM     11  C   UNL     1       4.238   3.974  17.177  0.00  0.00    +0.000 A 
ATOM     12  C   UNL     1       3.475   3.126  18.001  0.00  0.00    +0.000 A 
ATOM     13  C   UNL     1       2.579   3.638  18.964  0.00  0.00    +0.000 A 
ATOM     14  C   UNL     1       2.820   7.241  18.452  0.00  0.00    +0.000 C 
ATOM     15  O   UNL     1       3.248   8.188  17.822  0.00  0.00    +0.000 OA
ATOM     16  C   UNL     1       0.789   9.319  19.401  0.00  0.00    +0.000 A 
ENDROOT
BRANCH  13  17
ATOM     17  C   UNL     1       1.743   2.691  19.784  0.00  0.00    +0.000 C 
ATOM     18  F   UNL     1       2.043   2.699  21.112  0.00  0.00    +0.000 F 
ATOM     19  F   UNL     1       0.415   2.982  19.706  0.00  0.00    +0.000 F 
ATOM     20  F   UNL     1       1.867   1.398  19.380  0.00  0.00    +0.000 F 
ENDBRANCH  13  17
BRANCH   1  22
ATOM     21  C   UNL     1       0.112  12.660  18.830  0.00  0.00    +0.000 C 
ATOM     22  C   UNL     1      -0.650  11.392  19.257  0.00  0.00    +0.000 C 
BRANCH  22  23
ATOM     23  C   UNL     1      -1.326  10.678  18.070  0.00  0.00    +0.000 C 
BRANCH  23  24
ATOM     24  C   UNL     1      -2.721  11.157  17.827  0.00  0.00    +0.000 A 
ATOM     25  N   UNL     1      -3.526  11.682  18.729  0.00  0.00    +0.000 NA
ATOM     26  N   UNL     1      -4.725  11.971  18.125  0.00  0.00    +0.000 NA
ATOM     27  C   UNL     1      -4.627  11.625  16.865  0.00  0.00    +0.000 A 
ATOM     28  N   UNL     1      -3.387  11.118  16.628  0.00  0.00    +0.000 N 
ATOM     29  C   UNL     1      -2.898  10.649  15.360  0.00  0.00    +0.000 C 
ENDBRANCH  23  24
ENDBRANCH  22  23
ENDBRANCH   1  22
TORSDOF 4
ENDMDL
MODEL 3
REMARK VINA RESULT:      -8.8      1.160      1.406
REMARK  Name = 
REMARK  6 active torsions:
REMARK  status: ('A' for Active; 'I' for Inactive)
REMARK    1  A    between atoms: C_1  and  C_2
REMARK    2  A    between atoms: C_2  and  C_3
REMARK    3  A    between atoms: C_2  and  C_10
REMARK    4  A    between atoms: C_3  and  C_4
REMARK    5  A    between atoms: N_8  and  C_9
REMARK    6  A    between atoms: C_22  and  C_23
REMARK                            x       y       z     vdW  Elec       q    Type
REMARK                         _______ _______ _______ _____ _____    ______ ____
ROOT
ATOM      1  C   UNL     1       5.383   5.414  18.663  0.00  0.00    +0.000 A 
ATOM      2  C   UNL     1       4.837   4.166  18.974  0.00  0.00    +0.000 A 
ATOM      3  C   UNL     1       3.541   4.106  19.467  0.00  0.00    +0.000 A 
ATOM      4  N   UNL     1       2.760   5.187  19.671  0.00  0.00    +0.000 NA
ATOM      5  C   UNL     1       3.243   6.371  19.248  0.00  0.00    +0.000 A 
ATOM      6  N   UNL     1       2.430   7.496  19.384  0.00  0.00    +0.000 N 
ATOM      7  C   UNL     1       1.667   7.741  20.585  0.00  0.00    +0.000 C 
ATOM      8  C   UNL     1       0.892   8.974  20.226  0.00  0.00    +0.000 A 
ATOM      9  C   UNL     1       1.099   9.273  18.876  0.00  0.00    +0.000 A 
ATOM     10  C   UNL     1       0.447  10.300  18.222  0.00  0.00    +0.000 A 
ATOM     11  C   UNL     1      -0.420  11.089  18.974  0.00  0.00    +0.000 A 
ATOM     12  C   UNL     1      -0.592  10.847  20.349  0.00  0.00    +0.000 A 
ATOM     13  C   UNL     1       0.069   9.786  21.003  0.00  0.00    +0.000 A 
ATOM     14  C   UNL     1       2.112   8.350  18.344  0.00  0.00    +0.000 C 
ATOM     15  O   UNL     1       2.531   8.386  17.204  0.00  0.00    +0.000 OA
ATOM     16  C   UNL     1       4.532   6.524  18.739  0.00  0.00    +0.000 A 
ENDROOT
BRANCH  13  17
ATOM     17  C   UNL     1      -0.102   9.600  22.488  0.00  0.00    +0.000 C 
ATOM     18  F   UNL     1       1.062   9.368  23.152  0.00  0.00    +0.000 F 
ATOM     19  F   UNL     1      -0.651  10.697  23.081  0.00  0.00    +0.000 F 
ATOM     20  F   UNL     1      -0.922   8.560  22.794  0.00  0.00    +0.000 F 
ENDBRANCH  13  17
BRANCH   1  22
ATOM     21  C   UNL     1       7.725   5.881  19.542  0.00  0.00    +0.000 C 
ATOM     22  C   UNL     1       6.850   5.618  18.303  0.00  0.00    +0.000 C 
BRANCH  22  23
ATOM     23  C   UNL     1       7.376   4.451  17.443  0.00  0.00    +0.000 C 
BRANCH  23  24
ATOM     24  C   UNL     1       7.038   4.603  15.995  0.00  0.00    +0.000 A 
ATOM     25  N   UNL     1       7.641   5.405  15.141  0.00  0.00    +0.000 NA
ATOM     26  N   UNL     1       7.028   5.278  13.918  0.00  0.00    +0.000 NA
ATOM     27  C   UNL     1       6.069   4.395  14.047  0.00  0.00    +0.000 A 
ATOM     28  N   UNL     1       6.041   3.937  15.328  0.00  0.00    +0.000 N 
ATOM     29  C   UNL     1       5.139   2.946  15.848  0.00  0.00    +0.000 C 
ENDBRANCH  23  24
ENDBRANCH  22  23
ENDBRANCH   1  22
TORSDOF 4
ENDMDL
MODEL 4
REMARK VINA RESULT:      -8.8      4.030      8.694
REMARK  Name = 
REMARK  6 active torsions:
REMARK  status: ('A' for Active; 'I' for Inactive)
REMARK    1  A    between atoms: C_1  and  C_2
REMARK    2  A    between atoms: C_2  and  C_3
REMARK    3  A    between atoms: C_2  and  C_10
REMARK    4  A    between atoms: C_3  and  C_4
REMARK    5  A    between atoms: N_8  and  C_9
REMARK    6  A    between atoms: C_22  and  C_23
REMARK                            x       y       z     vdW  Elec       q    Type
REMARK                         _______ _______ _______ _____ _____    ______ ____
ROOT
ATOM      1  C   UNL     1       0.094  10.042  19.839  0.00  0.00    +0.000 A 
ATOM      2  C   UNL     1       0.265   9.949  21.223  0.00  0.00    +0.000 A 
ATOM      3  C   UNL     1       1.060   8.932  21.733  0.00  0.00    +0.000 A 
ATOM      4  N   UNL     1       1.688   8.011  20.971  0.00  0.00    +0.000 NA
ATOM      5  C   UNL     1       1.625   8.185  19.637  0.00  0.00    +0.000 A 
ATOM      6  N   UNL     1       2.321   7.288  18.828  0.00  0.00    +0.000 N 
ATOM      7  C   UNL     1       2.310   5.867  19.083  0.00  0.00    +0.000 C 
ATOM      8  C   UNL     1       3.258   5.347  18.043  0.00  0.00    +0.000 A 
ATOM      9  C   UNL     1       3.860   6.425  17.386  0.00  0.00    +0.000 A 
ATOM     10  C   UNL     1       4.851   6.272  16.438  0.00  0.00    +0.000 A 
ATOM     11  C   UNL     1       5.222   4.972  16.103  0.00  0.00    +0.000 A 
ATOM     12  C   UNL     1       4.582   3.872  16.704  0.00  0.00    +0.000 A 
ATOM     13  C   UNL     1       3.580   4.041  17.683  0.00  0.00    +0.000 A 
ATOM     14  C   UNL     1       3.235   7.668  17.861  0.00  0.00    +0.000 C 
ATOM     15  O   UNL     1       3.522   8.774  17.446  0.00  0.00    +0.000 OA
ATOM     16  C   UNL     1       0.854   9.180  19.039  0.00  0.00    +0.000 A 
ENDROOT
BRANCH  13  17
ATOM     17  C   UNL     1       2.884   2.835  18.256  0.00  0.00    +0.000 C 
ATOM     18  F   UNL     1       1.536   2.836  18.070  0.00  0.00    +0.000 F 
ATOM     19  F   UNL     1       3.330   1.674  17.700  0.00  0.00    +0.000 F 
ATOM     20  F   UNL     1       3.077   2.706  19.596  0.00  0.00    +0.000 F 
ENDBRANCH  13  17
BRANCH   1  22
ATOM     21  C   UNL     1      -0.243  12.298  18.711  0.00  0.00    +0.000 C 
ATOM     22  C   UNL     1      -0.904  10.990  19.183  0.00  0.00    +0.000 C 
BRANCH  22  23
ATOM     23  C   UNL     1      -1.685  10.280  18.059  0.00  0.00    +0.000 C 
BRANCH  23  24
ATOM     24  C   UNL     1      -2.994  10.938  17.762  0.00  0.00    +0.000 A 
ATOM     25  N   UNL     1      -3.808  11.476  18.648  0.00  0.00    +0.000 NA
ATOM     26  N   UNL     1      -4.914  11.954  17.989  0.00  0.00    +0.000 NA
ATOM     27  C   UNL     1      -4.751  11.706  16.713  0.00  0.00    +0.000 A 
ATOM     28  N   UNL     1      -3.559  11.079  16.520  0.00  0.00    +0.000 N 
ATOM     29  C   UNL     1      -3.022  10.664  15.253  0.00  0.00    +0.000 C 
ENDBRANCH  23  24
ENDBRANCH  22  23
ENDBRANCH   1  22
TORSDOF 4
ENDMDL
MODEL 5
REMARK VINA RESULT:      -8.4      4.049      8.272
REMARK  Name = 
REMARK  6 active torsions:
REMARK  status: ('A' for Active; 'I' for Inactive)
REMARK    1  A    between atoms: C_1  and  C_2
REMARK    2  A    between atoms: C_2  and  C_3
REMARK    3  A    between atoms: C_2  and  C_10
REMARK    4  A    between atoms: C_3  and  C_4
REMARK    5  A    between atoms: N_8  and  C_9
REMARK    6  A    between atoms: C_22  and  C_23
REMARK                            x       y       z     vdW  Elec       q    Type
REMARK                         _______ _______ _______ _____ _____    ______ ____
ROOT
ATOM      1  C   UNL     1      -0.628  11.079  19.979  0.00  0.00    +0.000 A 
ATOM      2  C   UNL     1      -0.314  11.463  21.285  0.00  0.00    +0.000 A 
ATOM      3  C   UNL     1       0.541  10.664  22.031  0.00  0.00    +0.000 A 
ATOM      4  N   UNL     1       1.099   9.523  21.574  0.00  0.00    +0.000 NA
ATOM      5  C   UNL     1       0.896   9.229  20.275  0.00  0.00    +0.000 A 
ATOM      6  N   UNL     1       1.517   8.092  19.757  0.00  0.00    +0.000 N 
ATOM      7  C   UNL     1       1.548   6.846  20.486  0.00  0.00    +0.000 C 
ATOM      8  C   UNL     1       2.391   5.977  19.598  0.00  0.00    +0.000 A 
ATOM      9  C   UNL     1       2.909   6.749  18.554  0.00  0.00    +0.000 A 
ATOM     10  C   UNL     1       3.799   6.255  17.621  0.00  0.00    +0.000 A 
ATOM     11  C   UNL     1       4.149   4.911  17.719  0.00  0.00    +0.000 A 
ATOM     12  C   UNL     1       3.587   4.100  18.723  0.00  0.00    +0.000 A 
ATOM     13  C   UNL     1       2.689   4.619  19.680  0.00  0.00    +0.000 A 
ATOM     14  C   UNL     1       2.322   8.094  18.632  0.00  0.00    +0.000 C 
ATOM     15  O   UNL     1       2.551   8.983  17.836  0.00  0.00    +0.000 OA
ATOM     16  C   UNL     1       0.056   9.976  19.451  0.00  0.00    +0.000 A 
ENDROOT
BRANCH  13  17
ATOM     17  C   UNL     1       2.071   3.701  20.700  0.00  0.00    +0.000 C 
ATOM     18  F   UNL     1       2.445   2.399  20.568  0.00  0.00    +0.000 F 
ATOM     19  F   UNL     1       2.404   4.052  21.973  0.00  0.00    +0.000 F 
ATOM     20  F   UNL     1       0.712   3.707  20.654  0.00  0.00    +0.000 F 
ENDBRANCH  13  17
BRANCH   1  22
ATOM     21  C   UNL     1      -1.110  12.473  17.905  0.00  0.00    +0.000 C 
ATOM     22  C   UNL     1      -1.699  11.767  19.141  0.00  0.00    +0.000 C 
BRANCH  22  23
ATOM     23  C   UNL     1      -2.834  10.788  18.779  0.00  0.00    +0.000 C 
BRANCH  23  24
ATOM     24  C   UNL     1      -2.980  10.593  17.305  0.00  0.00    +0.000 A 
ATOM     25  N   UNL     1      -2.180   9.881  16.537  0.00  0.00    +0.000 NA
ATOM     26  N   UNL     1      -2.630   9.966  15.242  0.00  0.00    +0.000 NA
ATOM     27  C   UNL     1      -3.701  10.722  15.245  0.00  0.00    +0.000 A 
ATOM     28  N   UNL     1      -3.965  11.131  16.516  0.00  0.00    +0.000 N 
ATOM     29  C   UNL     1      -5.068  11.958  16.922  0.00  0.00    +0.000 C 
ENDBRANCH  23  24
ENDBRANCH  22  23
ENDBRANCH   1  22
TORSDOF 4
ENDMDL
MODEL 6
REMARK VINA RESULT:      -8.4      3.283      4.506
REMARK  Name = 
REMARK  6 active torsions:
REMARK  status: ('A' for Active; 'I' for Inactive)
REMARK    1  A    between atoms: C_1  and  C_2
REMARK    2  A    between atoms: C_2  and  C_3
REMARK    3  A    between atoms: C_2  and  C_10
REMARK    4  A    between atoms: C_3  and  C_4
REMARK    5  A    between atoms: N_8  and  C_9
REMARK    6  A    between atoms: C_22  and  C_23
REMARK                            x       y       z     vdW  Elec       q    Type
REMARK                         _______ _______ _______ _____ _____    ______ ____
ROOT
ATOM      1  C   UNL     1       3.007   6.728  19.112  0.00  0.00    +0.000 A 
ATOM      2  C   UNL     1       3.708   7.073  17.953  0.00  0.00    +0.000 A 
ATOM      3  C   UNL     1       3.289   8.176  17.221  0.00  0.00    +0.000 A 
ATOM      4  N   UNL     1       2.234   8.948  17.557  0.00  0.00    +0.000 NA
ATOM      5  C   UNL     1       1.647   8.688  18.741  0.00  0.00    +0.000 A 
ATOM      6  N   UNL     1       0.598   9.514  19.145  0.00  0.00    +0.000 N 
ATOM      7  C   UNL     1      -0.435   9.934  18.229  0.00  0.00    +0.000 C 
ATOM      8  C   UNL     1      -1.253  10.867  19.073  0.00  0.00    +0.000 A 
ATOM      9  C   UNL     1      -0.611  11.061  20.300  0.00  0.00    +0.000 A 
ATOM     10  C   UNL     1      -1.070  11.941  21.260  0.00  0.00    +0.000 A 
ATOM     11  C   UNL     1      -2.253  12.624  20.989  0.00  0.00    +0.000 A 
ATOM     12  C   UNL     1      -2.950  12.393  19.788  0.00  0.00    +0.000 A 
ATOM     13  C   UNL     1      -2.464  11.502  18.809  0.00  0.00    +0.000 A 
ATOM     14  C   UNL     1       0.554  10.168  20.364  0.00  0.00    +0.000 C 
ATOM     15  O   UNL     1       1.293  10.081  21.325  0.00  0.00    +0.000 OA
ATOM     16  C   UNL     1       2.003   7.605  19.541  0.00  0.00    +0.000 A 
ENDROOT
BRANCH  13  17
ATOM     17  C   UNL     1      -3.273  11.245  17.565  0.00  0.00    +0.000 C 
ATOM     18  F   UNL     1      -3.700   9.959  17.442  0.00  0.00    +0.000 F 
ATOM     19  F   UNL     1      -4.397  12.012  17.518  0.00  0.00    +0.000 F 
ATOM     20  F   UNL     1      -2.584  11.522  16.426  0.00  0.00    +0.000 F 
ENDBRANCH  13  17
BRANCH   1  22
ATOM     21  C   UNL     1       1.987   4.933  20.600  0.00  0.00    +0.000 C 
ATOM     22  C   UNL     1       3.253   5.435  19.882  0.00  0.00    +0.000 C 
BRANCH  22  23
ATOM     23  C   UNL     1       3.885   4.361  18.973  0.00  0.00    +0.000 C 
BRANCH  23  24
ATOM     24  C   UNL     1       5.349   4.572  18.762  0.00  0.00    +0.000 A 
ATOM     25  N   UNL     1       6.217   4.946  19.680  0.00  0.00    +0.000 NA
ATOM     26  N   UNL     1       7.453   5.055  19.092  0.00  0.00    +0.000 NA
ATOM     27  C   UNL     1       7.319   4.738  17.828  0.00  0.00    +0.000 A 
ATOM     28  N   UNL     1       6.021   4.419  17.575  0.00  0.00    +0.000 N 
ATOM     29  C   UNL     1       5.488   4.002  16.306  0.00  0.00    +0.000 C 
ENDBRANCH  23  24
ENDBRANCH  22  23
ENDBRANCH   1  22
TORSDOF 4
ENDMDL
MODEL 7
REMARK VINA RESULT:      -8.1      4.011      8.443
REMARK  Name = 
REMARK  6 active torsions:
REMARK  status: ('A' for Active; 'I' for Inactive)
REMARK    1  A    between atoms: C_1  and  C_2
REMARK    2  A    between atoms: C_2  and  C_3
REMARK    3  A    between atoms: C_2  and  C_10
REMARK    4  A    between atoms: C_3  and  C_4
REMARK    5  A    between atoms: N_8  and  C_9
REMARK    6  A    between atoms: C_22  and  C_23
REMARK                            x       y       z     vdW  Elec       q    Type
REMARK                         _______ _______ _______ _____ _____    ______ ____
ROOT
ATOM      1  C   UNL     1      -0.295  10.295  20.017  0.00  0.00    +0.000 A 
ATOM      2  C   UNL     1       0.002  10.736  21.309  0.00  0.00    +0.000 A 
ATOM      3  C   UNL     1       0.870   9.984  22.090  0.00  0.00    +0.000 A 
ATOM      4  N   UNL     1       1.453   8.838  21.680  0.00  0.00    +0.000 NA
ATOM      5  C   UNL     1       1.266   8.490  20.392  0.00  0.00    +0.000 A 
ATOM      6  N   UNL     1       1.913   7.348  19.922  0.00  0.00    +0.000 N 
ATOM      7  C   UNL     1       1.966   6.132  20.699  0.00  0.00    +0.000 C 
ATOM      8  C   UNL     1       2.832   5.248  19.850  0.00  0.00    +0.000 A 
ATOM      9  C   UNL     1       3.341   5.990  18.779  0.00  0.00    +0.000 A 
ATOM     10  C   UNL     1       4.247   5.480  17.871  0.00  0.00    +0.000 A 
ATOM     11  C   UNL     1       4.624   4.148  18.022  0.00  0.00    +0.000 A 
ATOM     12  C   UNL     1       4.073   3.364  19.054  0.00  0.00    +0.000 A 
ATOM     13  C   UNL     1       3.159   3.901  19.985  0.00  0.00    +0.000 A 
ATOM     14  C   UNL     1       2.725   7.324  18.802  0.00  0.00    +0.000 C 
ATOM     15  O   UNL     1       2.940   8.187  17.973  0.00  0.00    +0.000 OA
ATOM     16  C   UNL     1       0.414   9.187  19.536  0.00  0.00    +0.000 A 
ENDROOT
BRANCH  13  17
ATOM     17  C   UNL     1       2.553   3.009  21.037  0.00  0.00    +0.000 C 
ATOM     18  F   UNL     1       1.501   2.270  20.593  0.00  0.00    +0.000 F 
ATOM     19  F   UNL     1       3.453   2.111  21.525  0.00  0.00    +0.000 F 
ATOM     20  F   UNL     1       2.097   3.704  22.113  0.00  0.00    +0.000 F 
ENDBRANCH  13  17
BRANCH   1  22
ATOM     21  C   UNL     1      -0.856  12.149  18.367  0.00  0.00    +0.000 C 
ATOM     22  C   UNL     1      -1.376  10.928  19.148  0.00  0.00    +0.000 C 
BRANCH  22  23
ATOM     23  C   UNL     1      -2.038   9.877  18.233  0.00  0.00    +0.000 C 
BRANCH  23  24
ATOM     24  C   UNL     1      -2.822  10.493  17.121  0.00  0.00    +0.000 A 
ATOM     25  N   UNL     1      -2.484  10.499  15.847  0.00  0.00    +0.000 NA
ATOM     26  N   UNL     1      -3.446  11.183  15.144  0.00  0.00    +0.000 NA
ATOM     27  C   UNL     1      -4.358  11.574  16.001  0.00  0.00    +0.000 A 
ATOM     28  N   UNL     1      -4.016  11.158  17.250  0.00  0.00    +0.000 N 
ATOM     29  C   UNL     1      -4.777  11.380  18.449  0.00  0.00    +0.000 C 
ENDBRANCH  23  24
ENDBRANCH  22  23
ENDBRANCH   1  22
TORSDOF 4
ENDMDL
MODEL 8
REMARK VINA RESULT:      -8.1      4.111      5.281
REMARK  Name = 
REMARK  6 active torsions:
REMARK  status: ('A' for Active; 'I' for Inactive)
REMARK    1  A    between atoms: C_1  and  C_2
REMARK    2  A    between atoms: C_2  and  C_3
REMARK    3  A    between atoms: C_2  and  C_10
REMARK    4  A    between atoms: C_3  and  C_4
REMARK    5  A    between atoms: N_8  and  C_9
REMARK    6  A    between atoms: C_22  and  C_23
REMARK                            x       y       z     vdW  Elec       q    Type
REMARK                         _______ _______ _______ _____ _____    ______ ____
ROOT
ATOM      1  C   UNL     1       2.497   7.183  19.418  0.00  0.00    +0.000 A 
ATOM      2  C   UNL     1       3.081   7.470  18.182  0.00  0.00    +0.000 A 
ATOM      3  C   UNL     1       2.595   8.542  17.445  0.00  0.00    +0.000 A 
ATOM      4  N   UNL     1       1.581   9.336  17.847  0.00  0.00    +0.000 NA
ATOM      5  C   UNL     1       1.112   9.134  19.093  0.00  0.00    +0.000 A 
ATOM      6  N   UNL     1       0.111   9.985  19.561  0.00  0.00    +0.000 N 
ATOM      7  C   UNL     1      -1.007  10.371  18.732  0.00  0.00    +0.000 C 
ATOM      8  C   UNL     1      -1.734  11.347  19.610  0.00  0.00    +0.000 A 
ATOM      9  C   UNL     1      -0.974  11.592  20.757  0.00  0.00    +0.000 A 
ATOM     10  C   UNL     1      -1.333  12.518  21.716  0.00  0.00    +0.000 A 
ATOM     11  C   UNL     1      -2.535  13.197  21.533  0.00  0.00    +0.000 A 
ATOM     12  C   UNL     1      -3.348  12.917  20.418  0.00  0.00    +0.000 A 
ATOM     13  C   UNL     1      -2.963  11.978  19.437  0.00  0.00    +0.000 A 
ATOM     14  C   UNL     1       0.190  10.694  20.747  0.00  0.00    +0.000 C 
ATOM     15  O   UNL     1       1.019  10.645  21.634  0.00  0.00    +0.000 OA
ATOM     16  C   UNL     1       1.543   8.086  19.904  0.00  0.00    +0.000 A 
ENDROOT
BRANCH  13  17
ATOM     17  C   UNL     1      -3.892  11.671  18.292  0.00  0.00    +0.000 C 
ATOM     18  F   UNL     1      -4.339  10.386  18.275  0.00  0.00    +0.000 F 
ATOM     19  F   UNL     1      -5.010  12.449  18.317  0.00  0.00    +0.000 F 
ATOM     20  F   UNL     1      -3.315  11.884  17.079  0.00  0.00    +0.000 F 
ENDBRANCH  13  17
BRANCH   1  22
ATOM     21  C   UNL     1       1.556   5.085  20.509  0.00  0.00    +0.000 C 
ATOM     22  C   UNL     1       2.815   5.924  20.218  0.00  0.00    +0.000 C 
BRANCH  22  23
ATOM     23  C   UNL     1       3.931   5.104  19.541  0.00  0.00    +0.000 C 
BRANCH  23  24
ATOM     24  C   UNL     1       3.405   3.928  18.784  0.00  0.00    +0.000 A 
ATOM     25  N   UNL     1       2.653   3.978  17.703  0.00  0.00    +0.000 NA
ATOM     26  N   UNL     1       2.355   2.692  17.321  0.00  0.00    +0.000 NA
ATOM     27  C   UNL     1       2.937   1.882  18.171  0.00  0.00    +0.000 A 
ATOM     28  N   UNL     1       3.614   2.609  19.101  0.00  0.00    +0.000 N 
ATOM     29  C   UNL     1       4.392   2.074  20.185  0.00  0.00    +0.000 C 
ENDBRANCH  23  24
ENDBRANCH  22  23
ENDBRANCH   1  22
TORSDOF 4
ENDMDL
MODEL 9
REMARK VINA RESULT:      -8.1      4.153      8.386
REMARK  Name = 
REMARK  6 active torsions:
REMARK  status: ('A' for Active; 'I' for Inactive)
REMARK    1  A    between atoms: C_1  and  C_2
REMARK    2  A    between atoms: C_2  and  C_3
REMARK    3  A    between atoms: C_2  and  C_10
REMARK    4  A    between atoms: C_3  and  C_4
REMARK    5  A    between atoms: N_8  and  C_9
REMARK    6  A    between atoms: C_22  and  C_23
REMARK                            x       y       z     vdW  Elec       q    Type
REMARK                         _______ _______ _______ _____ _____    ______ ____
ROOT
ATOM      1  C   UNL     1      -0.393  10.501  20.904  0.00  0.00    +0.000 A 
ATOM      2  C   UNL     1      -0.015  10.608  22.245  0.00  0.00    +0.000 A 
ATOM      3  C   UNL     1       0.836   9.651  22.779  0.00  0.00    +0.000 A 
ATOM      4  N   UNL     1       1.330   8.606  22.081  0.00  0.00    +0.000 NA
ATOM      5  C   UNL     1       1.067   8.583  20.761  0.00  0.00    +0.000 A 
ATOM      6  N   UNL     1       1.622   7.553  20.002  0.00  0.00    +0.000 N 
ATOM      7  C   UNL     1       1.632   6.186  20.468  0.00  0.00    +0.000 C 
ATOM      8  C   UNL     1       2.406   5.486  19.390  0.00  0.00    +0.000 A 
ATOM      9  C   UNL     1       2.914   6.433  18.496  0.00  0.00    +0.000 A 
ATOM     10  C   UNL     1       3.748   6.107  17.445  0.00  0.00    +0.000 A 
ATOM     11  C   UNL     1       4.048   4.760  17.260  0.00  0.00    +0.000 A 
ATOM     12  C   UNL     1       3.493   3.784  18.109  0.00  0.00    +0.000 A 
ATOM     13  C   UNL     1       2.654   4.130  19.188  0.00  0.00    +0.000 A 
ATOM     14  C   UNL     1       2.383   7.753  18.864  0.00  0.00    +0.000 C 
ATOM     15  O   UNL     1       2.617   8.775  18.249  0.00  0.00    +0.000 OA
ATOM     16  C   UNL     1       0.226   9.504  20.139  0.00  0.00    +0.000 A 
ENDROOT
BRANCH  13  17
ATOM     17  C   UNL     1       2.039   3.047  20.034  0.00  0.00    +0.000 C 
ATOM     18  F   UNL     1       2.464   3.050  21.327  0.00  0.00    +0.000 F 
ATOM     19  F   UNL     1       0.682   3.152  20.094  0.00  0.00    +0.000 F 
ATOM     20  F   UNL     1       2.296   1.800  19.557  0.00  0.00    +0.000 F 
ENDBRANCH  13  17
BRANCH   1  22
ATOM     21  C   UNL     1      -1.744  12.650  21.086  0.00  0.00    +0.000 C 
ATOM     22  C   UNL     1      -1.468  11.375  20.267  0.00  0.00    +0.000 C 
BRANCH  22  23
ATOM     23  C   UNL     1      -1.134  11.678  18.793  0.00  0.00    +0.000 C 
BRANCH  23  24
ATOM     24  C   UNL     1      -2.042  10.973  17.839  0.00  0.00    +0.000 A 
ATOM     25  N   UNL     1      -1.682  10.062  16.958  0.00  0.00    +0.000 NA
ATOM     26  N   UNL     1      -2.795   9.673  16.253  0.00  0.00    +0.000 NA
ATOM     27  C   UNL     1      -3.815  10.347  16.723  0.00  0.00    +0.000 A 
ATOM     28  N   UNL     1      -3.396  11.168  17.724  0.00  0.00    +0.000 N 
ATOM     29  C   UNL     1      -4.230  12.050  18.495  0.00  0.00    +0.000 C 
ENDBRANCH  23  24
ENDBRANCH  22  23
ENDBRANCH   1  22
TORSDOF 4
ENDMDL
