MODEL 1
REMARK VINA RESULT:      -8.7      0.000      0.000
REMARK  Name = 
REMARK  9 active torsions:
REMARK  status: ('A' for Active; 'I' for Inactive)
REMARK    1  A    between atoms: C_1  and  C_2
REMARK    2  A    between atoms: C_2  and  C_3
REMARK    3  A    between atoms: C_2  and  C_10
REMARK    4  A    between atoms: C_3  and  C_4
REMARK    5  A    between atoms: N_8  and  C_9
REMARK    6  A    between atoms: C_14  and  N_15
REMARK    7  A    between atoms: C_16  and  C_18
REMARK    8  A    between atoms: C_20  and  C_21
REMARK    9  A    between atoms: C_25  and  C_26
REMARK                            x       y       z     vdW  Elec       q    Type
REMARK                         _______ _______ _______ _____ _____    ______ ____
ROOT
ATOM      1  N   UNL     1       2.059   7.925  19.046  0.00  0.00    +0.000 N 
ATOM      2  C   UNL     1       2.823   7.763  17.902  0.00  0.00    +0.000 C 
ATOM      3  O   UNL     1       2.934   8.560  16.972  0.00  0.00    +0.000 OA
ATOM      4  H   UNL     1       2.176   7.201  19.750  0.00  0.00    +0.000 HD
ENDROOT
BRANCH   1   9
ATOM      5  C   UNL     1       0.118  10.374  21.067  0.00  0.00    +0.000 A 
ATOM      6  C   UNL     1      -0.374  11.220  20.063  0.00  0.00    +0.000 A 
ATOM      7  C   UNL     1      -0.078  10.973  18.725  0.00  0.00    +0.000 A 
ATOM      8  C   UNL     1       0.724   9.888  18.372  0.00  0.00    +0.000 A 
ATOM      9  C   UNL     1       1.228   9.025  19.346  0.00  0.00    +0.000 A 
ATOM     10  C   UNL     1       0.894   9.259  20.688  0.00  0.00    +0.000 A 
BRANCH   5  12
ATOM     11  C   UNL     1      -0.106   9.428  23.413  0.00  0.00    +0.000 C 
ATOM     12  C   UNL     1      -0.227  10.674  22.524  0.00  0.00    +0.000 C 
BRANCH  12  13
ATOM     13  C   UNL     1      -1.601  11.370  22.594  0.00  0.00    +0.000 C 
BRANCH  13  14
ATOM     14  C   UNL     1      -1.546  12.743  23.175  0.00  0.00    +0.000 A 
ATOM     15  N   UNL     1      -0.454  13.467  23.334  0.00  0.00    +0.000 NA
ATOM     16  N   UNL     1      -0.812  14.668  23.895  0.00  0.00    +0.000 NA
ATOM     17  C   UNL     1      -2.111  14.651  24.078  0.00  0.00    +0.000 A 
ATOM     18  N   UNL     1      -2.614  13.463  23.643  0.00  0.00    +0.000 N 
ATOM     19  C   UNL     1      -3.994  13.068  23.688  0.00  0.00    +0.000 C 
ENDBRANCH  13  14
ENDBRANCH  12  13
ENDBRANCH   5  12
ENDBRANCH   1   9
BRANCH   2  20
ATOM     20  C   UNL     1       3.603   6.482  17.844  0.00  0.00    +0.000 A 
ATOM     21  C   UNL     1       2.909   5.277  17.823  0.00  0.00    +0.000 A 
ATOM     22  C   UNL     1       3.612   4.071  17.779  0.00  0.00    +0.000 A 
ATOM     23  C   UNL     1       5.010   4.156  17.745  0.00  0.00    +0.000 A 
ATOM     24  C   UNL     1       5.655   5.401  17.760  0.00  0.00    +0.000 A 
ATOM     25  N   UNL     1       4.957   6.576  17.814  0.00  0.00    +0.000 NA
BRANCH  24  26
ATOM     26  C   UNL     1       7.178   5.456  17.702  0.00  0.00    +0.000 C 
ATOM     27  F   UNL     1       7.742   4.331  17.170  0.00  0.00    +0.000 F 
ATOM     28  F   UNL     1       7.640   6.489  16.944  0.00  0.00    +0.000 F 
ATOM     29  F   UNL     1       7.749   5.603  18.932  0.00  0.00    +0.000 F 
ENDBRANCH  24  26
BRANCH  22  30
ATOM     30  C   UNL     1       2.889   2.747  17.720  0.00  0.00    +0.000 C 
ATOM     31  C   UNL     1       3.446   1.539  18.434  0.00  0.00    +0.000 C 
ATOM     32  C   UNL     1       2.207   2.201  18.955  0.00  0.00    +0.000 C 
ENDBRANCH  22  30
ENDBRANCH   2  20
TORSDOF 7
ENDMDL
MODEL 2
REMARK VINA RESULT:      -8.7      3.955      5.251
REMARK  Name = 
REMARK  9 active torsions:
REMARK  status: ('A' for Active; 'I' for Inactive)
REMARK    1  A    between atoms: C_1  and  C_2
REMARK    2  A    between atoms: C_2  and  C_3
REMARK    3  A    between atoms: C_2  and  C_10
REMARK    4  A    between atoms: C_3  and  C_4
REMARK    5  A    between atoms: N_8  and  C_9
REMARK    6  A    between atoms: C_14  and  N_15
REMARK    7  A    between atoms: C_16  and  C_18
REMARK    8  A    between atoms: C_20  and  C_21
REMARK    9  A    between atoms: C_25  and  C_26
REMARK                            x       y       z     vdW  Elec       q    Type
REMARK                         _______ _______ _______ _____ _____    ______ ____
ROOT
ATOM      1  N   UNL     1       1.857   8.563  18.354  0.00  0.00    +0.000 N 
ATOM      2  C   UNL     1       2.033   7.726  19.443  0.00  0.00    +0.000 C 
ATOM      3  O   UNL     1       1.836   8.003  20.624  0.00  0.00    +0.000 OA
ATOM      4  H   UNL     1       1.973   8.122  17.446  0.00  0.00    +0.000 HD
ENDROOT
BRANCH   1   9
ATOM      5  C   UNL     1      -0.389  11.520  18.612  0.00  0.00    +0.000 A 
ATOM      6  C   UNL     1       0.540  12.568  18.545  0.00  0.00    +0.000 A 
ATOM      7  C   UNL     1       1.898  12.299  18.400  0.00  0.00    +0.000 A 
ATOM      8  C   UNL     1       2.350  10.981  18.335  0.00  0.00    +0.000 A 
ATOM      9  C   UNL     1       1.452   9.914  18.396  0.00  0.00    +0.000 A 
ATOM     10  C   UNL     1       0.083  10.195  18.504  0.00  0.00    +0.000 A 
BRANCH   5  12
ATOM     11  C   UNL     1      -2.186  12.436  20.155  0.00  0.00    +0.000 C 
ATOM     12  C   UNL     1      -1.871  11.852  18.770  0.00  0.00    +0.000 C 
BRANCH  12  13
ATOM     13  C   UNL     1      -2.717  10.618  18.397  0.00  0.00    +0.000 C 
BRANCH  13  14
ATOM     14  C   UNL     1      -3.035  10.530  16.942  0.00  0.00    +0.000 A 
ATOM     15  N   UNL     1      -2.321   9.888  16.037  0.00  0.00    +0.000 NA
ATOM     16  N   UNL     1      -2.937  10.037  14.818  0.00  0.00    +0.000 NA
ATOM     17  C   UNL     1      -4.007  10.774  15.001  0.00  0.00    +0.000 A 
ATOM     18  N   UNL     1      -4.107  11.109  16.316  0.00  0.00    +0.000 N 
ATOM     19  C   UNL     1      -5.141  11.918  16.901  0.00  0.00    +0.000 C 
ENDBRANCH  13  14
ENDBRANCH  12  13
ENDBRANCH   5  12
ENDBRANCH   1   9
BRANCH   2  20
ATOM     20  C   UNL     1       2.484   6.336  19.099  0.00  0.00    +0.000 A 
ATOM     21  C   UNL     1       3.310   6.155  17.995  0.00  0.00    +0.000 A 
ATOM     22  C   UNL     1       3.736   4.871  17.649  0.00  0.00    +0.000 A 
ATOM     23  C   UNL     1       3.302   3.819  18.468  0.00  0.00    +0.000 A 
ATOM     24  C   UNL     1       2.477   4.064  19.574  0.00  0.00    +0.000 A 
ATOM     25  N   UNL     1       2.056   5.325  19.899  0.00  0.00    +0.000 NA
BRANCH  24  26
ATOM     26  C   UNL     1       2.039   2.898  20.455  0.00  0.00    +0.000 C 
ATOM     27  F   UNL     1       0.934   3.173  21.209  0.00  0.00    +0.000 F 
ATOM     28  F   UNL     1       1.723   1.785  19.735  0.00  0.00    +0.000 F 
ATOM     29  F   UNL     1       3.001   2.516  21.342  0.00  0.00    +0.000 F 
ENDBRANCH  24  26
BRANCH  22  30
ATOM     30  C   UNL     1       4.660   4.643  16.478  0.00  0.00    +0.000 C 
ATOM     31  C   UNL     1       5.415   5.797  15.862  0.00  0.00    +0.000 C 
ATOM     32  C   UNL     1       6.157   4.766  16.658  0.00  0.00    +0.000 C 
ENDBRANCH  22  30
ENDBRANCH   2  20
TORSDOF 7
ENDMDL
MODEL 3
REMARK VINA RESULT:      -8.7      2.799      3.756
REMARK  Name = 
REMARK  9 active torsions:
REMARK  status: ('A' for Active; 'I' for Inactive)
REMARK    1  A    between atoms: C_1  and  C_2
REMARK    2  A    between atoms: C_2  and  C_3
REMARK    3  A    between atoms: C_2  and  C_10
REMARK    4  A    between atoms: C_3  and  C_4
REMARK    5  A    between atoms: N_8  and  C_9
REMARK    6  A    between atoms: C_14  and  N_15
REMARK    7  A    between atoms: C_16  and  C_18
REMARK    8  A    between atoms: C_20  and  C_21
REMARK    9  A    between atoms: C_25  and  C_26
REMARK                            x       y       z     vdW  Elec       q    Type
REMARK                         _______ _______ _______ _____ _____    ______ ____
ROOT
ATOM      1  N   UNL     1       1.915   7.440  19.583  0.00  0.00    +0.000 N 
ATOM      2  C   UNL     1       2.727   7.413  18.461  0.00  0.00    +0.000 C 
ATOM      3  O   UNL     1       3.098   8.379  17.798  0.00  0.00    +0.000 OA
ATOM      4  H   UNL     1       1.802   6.547  20.056  0.00  0.00    +0.000 HD
ENDROOT
BRANCH   1   9
ATOM      5  C   UNL     1       0.191  10.730  19.812  0.00  0.00    +0.000 A 
ATOM      6  C   UNL     1       0.081  10.878  21.201  0.00  0.00    +0.000 A 
ATOM      7  C   UNL     1       0.587   9.904  22.057  0.00  0.00    +0.000 A 
ATOM      8  C   UNL     1       1.197   8.762  21.539  0.00  0.00    +0.000 A 
ATOM      9  C   UNL     1       1.325   8.584  20.160  0.00  0.00    +0.000 A 
ATOM     10  C   UNL     1       0.846   9.587  19.307  0.00  0.00    +0.000 A 
BRANCH   5  12
ATOM     11  C   UNL     1       0.438  13.119  18.987  0.00  0.00    +0.000 C 
ATOM     12  C   UNL     1      -0.375  11.819  18.903  0.00  0.00    +0.000 C 
BRANCH  12  13
ATOM     13  C   UNL     1      -1.880  11.994  19.185  0.00  0.00    +0.000 C 
BRANCH  13  14
ATOM     14  C   UNL     1      -2.750  11.634  18.029  0.00  0.00    +0.000 A 
ATOM     15  N   UNL     1      -2.328  11.256  16.838  0.00  0.00    +0.000 NA
ATOM     16  N   UNL     1      -3.426  11.009  16.050  0.00  0.00    +0.000 NA
ATOM     17  C   UNL     1      -4.495  11.251  16.770  0.00  0.00    +0.000 A 
ATOM     18  N   UNL     1      -4.120  11.648  18.017  0.00  0.00    +0.000 N 
ATOM     19  C   UNL     1      -5.010  12.010  19.086  0.00  0.00    +0.000 C 
ENDBRANCH  13  14
ENDBRANCH  12  13
ENDBRANCH   5  12
ENDBRANCH   1   9
BRANCH   2  20
ATOM     20  C   UNL     1       3.204   6.046  18.065  0.00  0.00    +0.000 A 
ATOM     21  C   UNL     1       2.601   4.933  18.642  0.00  0.00    +0.000 A 
ATOM     22  C   UNL     1       3.033   3.651  18.296  0.00  0.00    +0.000 A 
ATOM     23  C   UNL     1       4.066   3.566  17.353  0.00  0.00    +0.000 A 
ATOM     24  C   UNL     1       4.630   4.723  16.798  0.00  0.00    +0.000 A 
ATOM     25  N   UNL     1       4.207   5.975  17.152  0.00  0.00    +0.000 NA
BRANCH  24  26
ATOM     26  C   UNL     1       5.740   4.592  15.760  0.00  0.00    +0.000 C 
ATOM     27  F   UNL     1       6.003   3.299  15.408  0.00  0.00    +0.000 F 
ATOM     28  F   UNL     1       5.451   5.236  14.595  0.00  0.00    +0.000 F 
ATOM     29  F   UNL     1       6.929   5.101  16.191  0.00  0.00    +0.000 F 
ENDBRANCH  24  26
BRANCH  22  30
ATOM     30  C   UNL     1       2.378   2.423  18.878  0.00  0.00    +0.000 C 
ATOM     31  C   UNL     1       1.463   2.537  20.074  0.00  0.00    +0.000 C 
ATOM     32  C   UNL     1       0.887   2.215  18.728  0.00  0.00    +0.000 C 
ENDBRANCH  22  30
ENDBRANCH   2  20
TORSDOF 7
ENDMDL
MODEL 4
REMARK VINA RESULT:      -8.7      1.823      2.747
REMARK  Name = 
REMARK  9 active torsions:
REMARK  status: ('A' for Active; 'I' for Inactive)
REMARK    1  A    between atoms: C_1  and  C_2
REMARK    2  A    between atoms: C_2  and  C_3
REMARK    3  A    between atoms: C_2  and  C_10
REMARK    4  A    between atoms: C_3  and  C_4
REMARK    5  A    between atoms: N_8  and  C_9
REMARK    6  A    between atoms: C_14  and  N_15
REMARK    7  A    between atoms: C_16  and  C_18
REMARK    8  A    between atoms: C_20  and  C_21
REMARK    9  A    between atoms: C_25  and  C_26
REMARK                            x       y       z     vdW  Elec       q    Type
REMARK                         _______ _______ _______ _____ _____    ______ ____
ROOT
ATOM      1  N   UNL     1       2.011   8.659  17.929  0.00  0.00    +0.000 N 
ATOM      2  C   UNL     1       2.294   7.689  18.876  0.00  0.00    +0.000 C 
ATOM      3  O   UNL     1       2.108   7.770  20.089  0.00  0.00    +0.000 OA
ATOM      4  H   UNL     1       2.139   8.370  16.962  0.00  0.00    +0.000 HD
ENDROOT
BRANCH   1   9
ATOM      5  C   UNL     1      -0.469  11.316  18.734  0.00  0.00    +0.000 A 
ATOM      6  C   UNL     1       0.352  12.452  18.747  0.00  0.00    +0.000 A 
ATOM      7  C   UNL     1       1.713  12.343  18.476  0.00  0.00    +0.000 A 
ATOM      8  C   UNL     1       2.277  11.097  18.203  0.00  0.00    +0.000 A 
ATOM      9  C   UNL     1       1.488   9.946  18.180  0.00  0.00    +0.000 A 
ATOM     10  C   UNL     1       0.112  10.069  18.417  0.00  0.00    +0.000 A 
BRANCH   5  12
ATOM     11  C   UNL     1      -2.819  11.323  17.772  0.00  0.00    +0.000 C 
ATOM     12  C   UNL     1      -1.957  11.472  19.034  0.00  0.00    +0.000 C 
BRANCH  12  13
ATOM     13  C   UNL     1      -2.191  12.785  19.808  0.00  0.00    +0.000 C 
BRANCH  13  14
ATOM     14  C   UNL     1      -2.794  12.584  21.157  0.00  0.00    +0.000 A 
ATOM     15  N   UNL     1      -4.076  12.688  21.448  0.00  0.00    +0.000 NA
ATOM     16  N   UNL     1      -4.236  12.429  22.788  0.00  0.00    +0.000 NA
ATOM     17  C   UNL     1      -3.049  12.183  23.290  0.00  0.00    +0.000 A 
ATOM     18  N   UNL     1      -2.114  12.271  22.305  0.00  0.00    +0.000 N 
ATOM     19  C   UNL     1      -0.700  12.078  22.470  0.00  0.00    +0.000 C 
ENDBRANCH  13  14
ENDBRANCH  12  13
ENDBRANCH   5  12
ENDBRANCH   1   9
BRANCH   2  20
ATOM     20  C   UNL     1       2.857   6.414  18.320  0.00  0.00    +0.000 A 
ATOM     21  C   UNL     1       2.299   5.205  18.722  0.00  0.00    +0.000 A 
ATOM     22  C   UNL     1       2.811   4.005  18.225  0.00  0.00    +0.000 A 
ATOM     23  C   UNL     1       3.876   4.099  17.320  0.00  0.00    +0.000 A 
ATOM     24  C   UNL     1       4.393   5.347  16.945  0.00  0.00    +0.000 A 
ATOM     25  N   UNL     1       3.891   6.518  17.445  0.00  0.00    +0.000 NA
BRANCH  24  26
ATOM     26  C   UNL     1       5.540   5.412  15.943  0.00  0.00    +0.000 C 
ATOM     27  F   UNL     1       5.248   6.151  14.832  0.00  0.00    +0.000 F 
ATOM     28  F   UNL     1       6.667   5.972  16.467  0.00  0.00    +0.000 F 
ATOM     29  F   UNL     1       5.907   4.185  15.478  0.00  0.00    +0.000 F 
ENDBRANCH  24  26
BRANCH  22  30
ATOM     30  C   UNL     1       2.206   2.678  18.614  0.00  0.00    +0.000 C 
ATOM     31  C   UNL     1       1.600   2.484  19.983  0.00  0.00    +0.000 C 
ATOM     32  C   UNL     1       0.709   2.547  18.780  0.00  0.00    +0.000 C 
ENDBRANCH  22  30
ENDBRANCH   2  20
TORSDOF 7
ENDMDL
MODEL 5
REMARK VINA RESULT:      -8.6      2.902      4.148
REMARK  Name = 
REMARK  9 active torsions:
REMARK  status: ('A' for Active; 'I' for Inactive)
REMARK    1  A    between atoms: C_1  and  C_2
REMARK    2  A    between atoms: C_2  and  C_3
REMARK    3  A    between atoms: C_2  and  C_10
REMARK    4  A    between atoms: C_3  and  C_4
REMARK    5  A    between atoms: N_8  and  C_9
REMARK    6  A    between atoms: C_14  and  N_15
REMARK    7  A    between atoms: C_16  and  C_18
REMARK    8  A    between atoms: C_20  and  C_21
REMARK    9  A    between atoms: C_25  and  C_26
REMARK                            x       y       z     vdW  Elec       q    Type
REMARK                         _______ _______ _______ _____ _____    ______ ____
ROOT
ATOM      1  N   UNL     1       1.630   7.948  19.868  0.00  0.00    +0.000 N 
ATOM      2  C   UNL     1       2.337   7.924  18.677  0.00  0.00    +0.000 C 
ATOM      3  O   UNL     1       2.496   8.860  17.896  0.00  0.00    +0.000 OA
ATOM      4  H   UNL     1       1.698   7.102  20.428  0.00  0.00    +0.000 HD
ENDROOT
BRANCH   1   9
ATOM      5  C   UNL     1      -0.426  11.049  19.956  0.00  0.00    +0.000 A 
ATOM      6  C   UNL     1      -0.565  11.239  21.338  0.00  0.00    +0.000 A 
ATOM      7  C   UNL     1       0.031  10.355  22.234  0.00  0.00    +0.000 A 
ATOM      8  C   UNL     1       0.760   9.263  21.765  0.00  0.00    +0.000 A 
ATOM      9  C   UNL     1       0.919   9.047  20.396  0.00  0.00    +0.000 A 
ATOM     10  C   UNL     1       0.348   9.961  19.500  0.00  0.00    +0.000 A 
BRANCH   5  12
ATOM     11  C   UNL     1      -0.890  13.493  19.447  0.00  0.00    +0.000 C 
ATOM     12  C   UNL     1      -1.092  12.038  19.002  0.00  0.00    +0.000 C 
BRANCH  12  13
ATOM     13  C   UNL     1      -2.566  11.638  18.793  0.00  0.00    +0.000 C 
BRANCH  13  14
ATOM     14  C   UNL     1      -2.855  11.114  17.427  0.00  0.00    +0.000 A 
ATOM     15  N   UNL     1      -2.021  10.416  16.680  0.00  0.00    +0.000 NA
ATOM     16  N   UNL     1      -2.652  10.117  15.496  0.00  0.00    +0.000 NA
ATOM     17  C   UNL     1      -3.851  10.646  15.540  0.00  0.00    +0.000 A 
ATOM     18  N   UNL     1      -4.022  11.283  16.730  0.00  0.00    +0.000 N 
ATOM     19  C   UNL     1      -5.203  11.991  17.142  0.00  0.00    +0.000 C 
ENDBRANCH  13  14
ENDBRANCH  12  13
ENDBRANCH   5  12
ENDBRANCH   1   9
BRANCH   2  20
ATOM     20  C   UNL     1       2.986   6.608  18.359  0.00  0.00    +0.000 A 
ATOM     21  C   UNL     1       2.567   5.472  19.044  0.00  0.00    +0.000 A 
ATOM     22  C   UNL     1       3.162   4.239  18.773  0.00  0.00    +0.000 A 
ATOM     23  C   UNL     1       4.161   4.221  17.791  0.00  0.00    +0.000 A 
ATOM     24  C   UNL     1       4.536   5.398  17.127  0.00  0.00    +0.000 A 
ATOM     25  N   UNL     1       3.955   6.604  17.407  0.00  0.00    +0.000 NA
BRANCH  24  26
ATOM     26  C   UNL     1       5.615   5.338  16.050  0.00  0.00    +0.000 C 
ATOM     27  F   UNL     1       5.254   5.956  14.886  0.00  0.00    +0.000 F 
ATOM     28  F   UNL     1       6.777   5.936  16.435  0.00  0.00    +0.000 F 
ATOM     29  F   UNL     1       5.943   4.062  15.699  0.00  0.00    +0.000 F 
ENDBRANCH  24  26
BRANCH  22  30
ATOM     30  C   UNL     1       2.707   2.982  19.473  0.00  0.00    +0.000 C 
ATOM     31  C   UNL     1       1.256   2.795  19.846  0.00  0.00    +0.000 C 
ATOM     32  C   UNL     1       1.849   1.974  18.741  0.00  0.00    +0.000 C 
ENDBRANCH  22  30
ENDBRANCH   2  20
TORSDOF 7
ENDMDL
MODEL 6
REMARK VINA RESULT:      -8.6      3.432      4.701
REMARK  Name = 
REMARK  9 active torsions:
REMARK  status: ('A' for Active; 'I' for Inactive)
REMARK    1  A    between atoms: C_1  and  C_2
REMARK    2  A    between atoms: C_2  and  C_3
REMARK    3  A    between atoms: C_2  and  C_10
REMARK    4  A    between atoms: C_3  and  C_4
REMARK    5  A    between atoms: N_8  and  C_9
REMARK    6  A    between atoms: C_14  and  N_15
REMARK    7  A    between atoms: C_16  and  C_18
REMARK    8  A    between atoms: C_20  and  C_21
REMARK    9  A    between atoms: C_25  and  C_26
REMARK                            x       y       z     vdW  Elec       q    Type
REMARK                         _______ _______ _______ _____ _____    ______ ____
ROOT
ATOM      1  N   UNL     1       2.136   7.704  19.327  0.00  0.00    +0.000 N 
ATOM      2  C   UNL     1       2.191   6.401  19.793  0.00  0.00    +0.000 C 
ATOM      3  O   UNL     1       1.612   5.947  20.778  0.00  0.00    +0.000 OA
ATOM      4  H   UNL     1       2.601   7.864  18.437  0.00  0.00    +0.000 HD
ENDROOT
BRANCH   1   9
ATOM      5  C   UNL     1       0.156  10.844  19.597  0.00  0.00    +0.000 A 
ATOM      6  C   UNL     1      -0.036  10.921  20.984  0.00  0.00    +0.000 A 
ATOM      7  C   UNL     1       0.500   9.949  21.825  0.00  0.00    +0.000 A 
ATOM      8  C   UNL     1       1.221   8.879  21.293  0.00  0.00    +0.000 A 
ATOM      9  C   UNL     1       1.432   8.774  19.918  0.00  0.00    +0.000 A 
ATOM     10  C   UNL     1       0.921   9.777  19.082  0.00  0.00    +0.000 A 
BRANCH   5  12
ATOM     11  C   UNL     1       0.357  13.236  18.769  0.00  0.00    +0.000 C 
ATOM     12  C   UNL     1      -0.445  11.928  18.705  0.00  0.00    +0.000 C 
BRANCH  12  13
ATOM     13  C   UNL     1      -1.943  12.088  19.028  0.00  0.00    +0.000 C 
BRANCH  13  14
ATOM     14  C   UNL     1      -2.842  11.681  17.909  0.00  0.00    +0.000 A 
ATOM     15  N   UNL     1      -2.449  11.299  16.708  0.00  0.00    +0.000 NA
ATOM     16  N   UNL     1      -3.566  11.005  15.964  0.00  0.00    +0.000 NA
ATOM     17  C   UNL     1      -4.616  11.221  16.720  0.00  0.00    +0.000 A 
ATOM     18  N   UNL     1      -4.211  11.649  17.947  0.00  0.00    +0.000 N 
ATOM     19  C   UNL     1      -5.074  11.997  19.041  0.00  0.00    +0.000 C 
ENDBRANCH  13  14
ENDBRANCH  12  13
ENDBRANCH   5  12
ENDBRANCH   1   9
BRANCH   2  20
ATOM     20  C   UNL     1       3.032   5.473  18.966  0.00  0.00    +0.000 A 
ATOM     21  C   UNL     1       3.861   6.014  17.989  0.00  0.00    +0.000 A 
ATOM     22  C   UNL     1       4.646   5.171  17.200  0.00  0.00    +0.000 A 
ATOM     23  C   UNL     1       4.555   3.796  17.459  0.00  0.00    +0.000 A 
ATOM     24  C   UNL     1       3.707   3.310  18.464  0.00  0.00    +0.000 A 
ATOM     25  N   UNL     1       2.934   4.143  19.225  0.00  0.00    +0.000 NA
BRANCH  24  26
ATOM     26  C   UNL     1       3.647   1.809  18.732  0.00  0.00    +0.000 C 
ATOM     27  F   UNL     1       4.519   1.396  19.699  0.00  0.00    +0.000 F 
ATOM     28  F   UNL     1       2.417   1.397  19.149  0.00  0.00    +0.000 F 
ATOM     29  F   UNL     1       3.944   1.063  17.630  0.00  0.00    +0.000 F 
ENDBRANCH  24  26
BRANCH  22  30
ATOM     30  C   UNL     1       5.582   5.726  16.154  0.00  0.00    +0.000 C 
ATOM     31  C   UNL     1       6.810   4.954  15.738  0.00  0.00    +0.000 C 
ATOM     32  C   UNL     1       5.659   5.083  14.787  0.00  0.00    +0.000 C 
ENDBRANCH  22  30
ENDBRANCH   2  20
TORSDOF 7
ENDMDL
MODEL 7
REMARK VINA RESULT:      -8.6      3.353      4.590
REMARK  Name = 
REMARK  9 active torsions:
REMARK  status: ('A' for Active; 'I' for Inactive)
REMARK    1  A    between atoms: C_1  and  C_2
REMARK    2  A    between atoms: C_2  and  C_3
REMARK    3  A    between atoms: C_2  and  C_10
REMARK    4  A    between atoms: C_3  and  C_4
REMARK    5  A    between atoms: N_8  and  C_9
REMARK    6  A    between atoms: C_14  and  N_15
REMARK    7  A    between atoms: C_16  and  C_18
REMARK    8  A    between atoms: C_20  and  C_21
REMARK    9  A    between atoms: C_25  and  C_26
REMARK                            x       y       z     vdW  Elec       q    Type
REMARK                         _______ _______ _______ _____ _____    ______ ____
ROOT
ATOM      1  N   UNL     1       1.771   7.569  19.913  0.00  0.00    +0.000 N 
ATOM      2  C   UNL     1       2.437   7.610  18.698  0.00  0.00    +0.000 C 
ATOM      3  O   UNL     1       2.636   8.603  18.001  0.00  0.00    +0.000 OA
ATOM      4  H   UNL     1       1.797   6.672  20.390  0.00  0.00    +0.000 HD
ENDROOT
BRANCH   1   9
ATOM      5  C   UNL     1       0.002  10.813  20.366  0.00  0.00    +0.000 A 
ATOM      6  C   UNL     1      -0.129  10.853  21.761  0.00  0.00    +0.000 A 
ATOM      7  C   UNL     1       0.378   9.822  22.547  0.00  0.00    +0.000 A 
ATOM      8  C   UNL     1       1.010   8.730  21.953  0.00  0.00    +0.000 A 
ATOM      9  C   UNL     1       1.159   8.659  20.567  0.00  0.00    +0.000 A 
ATOM     10  C   UNL     1       0.678   9.719  19.785  0.00  0.00    +0.000 A 
BRANCH   5  12
ATOM     11  C   UNL     1       0.000  13.320  19.969  0.00  0.00    +0.000 C 
ATOM     12  C   UNL     1      -0.565  11.961  19.535  0.00  0.00    +0.000 C 
BRANCH  12  13
ATOM     13  C   UNL     1      -2.105  11.886  19.537  0.00  0.00    +0.000 C 
BRANCH  13  14
ATOM     14  C   UNL     1      -2.690  11.573  18.201  0.00  0.00    +0.000 A 
ATOM     15  N   UNL     1      -2.005  11.265  17.116  0.00  0.00    +0.000 NA
ATOM     16  N   UNL     1      -2.896  11.044  16.094  0.00  0.00    +0.000 NA
ATOM     17  C   UNL     1      -4.103  11.231  16.571  0.00  0.00    +0.000 A 
ATOM     18  N   UNL     1      -4.023  11.567  17.887  0.00  0.00    +0.000 N 
ATOM     19  C   UNL     1      -5.135  11.859  18.748  0.00  0.00    +0.000 C 
ENDBRANCH  13  14
ENDBRANCH  12  13
ENDBRANCH   5  12
ENDBRANCH   1   9
BRANCH   2  20
ATOM     20  C   UNL     1       2.979   6.289  18.236  0.00  0.00    +0.000 A 
ATOM     21  C   UNL     1       4.041   6.279  17.337  0.00  0.00    +0.000 A 
ATOM     22  C   UNL     1       4.557   5.063  16.885  0.00  0.00    +0.000 A 
ATOM     23  C   UNL     1       3.964   3.898  17.391  0.00  0.00    +0.000 A 
ATOM     24  C   UNL     1       2.901   3.970  18.302  0.00  0.00    +0.000 A 
ATOM     25  N   UNL     1       2.396   5.167  18.731  0.00  0.00    +0.000 NA
BRANCH  24  26
ATOM     26  C   UNL     1       2.293   2.681  18.846  0.00  0.00    +0.000 C 
ATOM     27  F   UNL     1       3.129   1.606  18.753  0.00  0.00    +0.000 F 
ATOM     28  F   UNL     1       1.959   2.772  20.164  0.00  0.00    +0.000 F 
ATOM     29  F   UNL     1       1.155   2.316  18.190  0.00  0.00    +0.000 F 
ENDBRANCH  24  26
BRANCH  22  30
ATOM     30  C   UNL     1       5.730   5.017  15.937  0.00  0.00    +0.000 C 
ATOM     31  C   UNL     1       6.265   3.693  15.445  0.00  0.00    +0.000 C 
ATOM     32  C   UNL     1       5.526   4.591  14.500  0.00  0.00    +0.000 C 
ENDBRANCH  22  30
ENDBRANCH   2  20
TORSDOF 7
ENDMDL
MODEL 8
REMARK VINA RESULT:      -8.6      0.798      1.021
REMARK  Name = 
REMARK  9 active torsions:
REMARK  status: ('A' for Active; 'I' for Inactive)
REMARK    1  A    between atoms: C_1  and  C_2
REMARK    2  A    between atoms: C_2  and  C_3
REMARK    3  A    between atoms: C_2  and  C_10
REMARK    4  A    between atoms: C_3  and  C_4
REMARK    5  A    between atoms: N_8  and  C_9
REMARK    6  A    between atoms: C_14  and  N_15
REMARK    7  A    between atoms: C_16  and  C_18
REMARK    8  A    between atoms: C_20  and  C_21
REMARK    9  A    between atoms: C_25  and  C_26
REMARK                            x       y       z     vdW  Elec       q    Type
REMARK                         _______ _______ _______ _____ _____    ______ ____
ROOT
ATOM      1  N   UNL     1       1.855   7.917  19.162  0.00  0.00    +0.000 N 
ATOM      2  C   UNL     1       2.663   7.645  18.070  0.00  0.00    +0.000 C 
ATOM      3  O   UNL     1       2.937   8.411  17.148  0.00  0.00    +0.000 OA
ATOM      4  H   UNL     1       1.830   7.191  19.873  0.00  0.00    +0.000 HD
ENDROOT
BRANCH   1   9
ATOM      5  C   UNL     1       0.088  10.600  21.043  0.00  0.00    +0.000 A 
ATOM      6  C   UNL     1      -0.189  11.510  20.014  0.00  0.00    +0.000 A 
ATOM      7  C   UNL     1       0.192  11.231  18.704  0.00  0.00    +0.000 A 
ATOM      8  C   UNL     1       0.867  10.048  18.405  0.00  0.00    +0.000 A 
ATOM      9  C   UNL     1       1.157   9.119  19.406  0.00  0.00    +0.000 A 
ATOM     10  C   UNL     1       0.737   9.390  20.716  0.00  0.00    +0.000 A 
BRANCH   5  12
ATOM     11  C   UNL     1      -0.434   9.686  23.354  0.00  0.00    +0.000 C 
ATOM     12  C   UNL     1      -0.344  10.937  22.468  0.00  0.00    +0.000 C 
BRANCH  12  13
ATOM     13  C   UNL     1      -1.636  11.778  22.428  0.00  0.00    +0.000 C 
BRANCH  13  14
ATOM     14  C   UNL     1      -1.546  13.048  23.205  0.00  0.00    +0.000 A 
ATOM     15  N   UNL     1      -0.454  13.768  23.375  0.00  0.00    +0.000 NA
ATOM     16  N   UNL     1      -0.775  14.861  24.144  0.00  0.00    +0.000 NA
ATOM     17  C   UNL     1      -2.052  14.780  24.435  0.00  0.00    +0.000 A 
ATOM     18  N   UNL     1      -2.576  13.659  23.870  0.00  0.00    +0.000 N 
ATOM     19  C   UNL     1      -3.941  13.224  23.976  0.00  0.00    +0.000 C 
ENDBRANCH  13  14
ENDBRANCH  12  13
ENDBRANCH   5  12
ENDBRANCH   1   9
BRANCH   2  20
ATOM     20  C   UNL     1       3.270   6.272  18.066  0.00  0.00    +0.000 A 
ATOM     21  C   UNL     1       2.573   5.230  18.669  0.00  0.00    +0.000 A 
ATOM     22  C   UNL     1       3.120   3.946  18.686  0.00  0.00    +0.000 A 
ATOM     23  C   UNL     1       4.367   3.783  18.066  0.00  0.00    +0.000 A 
ATOM     24  C   UNL     1       5.019   4.869  17.466  0.00  0.00    +0.000 A 
ATOM     25  N   UNL     1       4.478   6.126  17.464  0.00  0.00    +0.000 NA
BRANCH  24  26
ATOM     26  C   UNL     1       6.366   4.650  16.784  0.00  0.00    +0.000 C 
ATOM     27  F   UNL     1       6.322   3.723  15.783  0.00  0.00    +0.000 F 
ATOM     28  F   UNL     1       6.855   5.785  16.209  0.00  0.00    +0.000 F 
ATOM     29  F   UNL     1       7.329   4.214  17.643  0.00  0.00    +0.000 F 
ENDBRANCH  24  26
BRANCH  22  30
ATOM     30  C   UNL     1       2.375   2.787  19.301  0.00  0.00    +0.000 C 
ATOM     31  C   UNL     1       1.127   3.026  20.117  0.00  0.00    +0.000 C 
ATOM     32  C   UNL     1       1.018   2.388  18.765  0.00  0.00    +0.000 C 
ENDBRANCH  22  30
ENDBRANCH   2  20
TORSDOF 7
ENDMDL
MODEL 9
REMARK VINA RESULT:      -8.6      2.983      3.936
REMARK  Name = 
REMARK  9 active torsions:
REMARK  status: ('A' for Active; 'I' for Inactive)
REMARK    1  A    between atoms: C_1  and  C_2
REMARK    2  A    between atoms: C_2  and  C_3
REMARK    3  A    between atoms: C_2  and  C_10
REMARK    4  A    between atoms: C_3  and  C_4
REMARK    5  A    between atoms: N_8  and  C_9
REMARK    6  A    between atoms: C_14  and  N_15
REMARK    7  A    between atoms: C_16  and  C_18
REMARK    8  A    between atoms: C_20  and  C_21
REMARK    9  A    between atoms: C_25  and  C_26
REMARK                            x       y       z     vdW  Elec       q    Type
REMARK                         _______ _______ _______ _____ _____    ______ ____
ROOT
ATOM      1  N   UNL     1       2.057   8.521  17.831  0.00  0.00    +0.000 N 
ATOM      2  C   UNL     1       2.392   7.533  18.742  0.00  0.00    +0.000 C 
ATOM      3  O   UNL     1       2.231   7.572  19.961  0.00  0.00    +0.000 OA
ATOM      4  H   UNL     1       2.172   8.265  16.854  0.00  0.00    +0.000 HD
ENDROOT
BRANCH   1   9
ATOM      5  C   UNL     1      -0.507  11.083  18.679  0.00  0.00    +0.000 A 
ATOM      6  C   UNL     1       0.289  12.231  18.792  0.00  0.00    +0.000 A 
ATOM      7  C   UNL     1       1.662  12.161  18.574  0.00  0.00    +0.000 A 
ATOM      8  C   UNL     1       2.262  10.943  18.254  0.00  0.00    +0.000 A 
ATOM      9  C   UNL     1       1.498   9.782  18.132  0.00  0.00    +0.000 A 
ATOM     10  C   UNL     1       0.111   9.867  18.317  0.00  0.00    +0.000 A 
BRANCH   5  12
ATOM     11  C   UNL     1      -2.827  10.792  17.688  0.00  0.00    +0.000 C 
ATOM     12  C   UNL     1      -2.010  11.195  18.924  0.00  0.00    +0.000 C 
BRANCH  12  13
ATOM     13  C   UNL     1      -2.338  12.600  19.469  0.00  0.00    +0.000 C 
BRANCH  13  14
ATOM     14  C   UNL     1      -3.326  12.590  20.587  0.00  0.00    +0.000 A 
ATOM     15  N   UNL     1      -3.036  12.473  21.868  0.00  0.00    +0.000 NA
ATOM     16  N   UNL     1      -4.210  12.511  22.581  0.00  0.00    +0.000 NA
ATOM     17  C   UNL     1      -5.192  12.638  21.721  0.00  0.00    +0.000 A 
ATOM     18  N   UNL     1      -4.687  12.690  20.459  0.00  0.00    +0.000 N 
ATOM     19  C   UNL     1      -5.455  12.816  19.251  0.00  0.00    +0.000 C 
ENDBRANCH  13  14
ENDBRANCH  12  13
ENDBRANCH   5  12
ENDBRANCH   1   9
BRANCH   2  20
ATOM     20  C   UNL     1       2.984   6.295  18.136  0.00  0.00    +0.000 A 
ATOM     21  C   UNL     1       4.023   6.428  17.221  0.00  0.00    +0.000 A 
ATOM     22  C   UNL     1       4.584   5.291  16.636  0.00  0.00    +0.000 A 
ATOM     23  C   UNL     1       4.057   4.053  17.030  0.00  0.00    +0.000 A 
ATOM     24  C   UNL     1       3.014   3.980  17.963  0.00  0.00    +0.000 A 
ATOM     25  N   UNL     1       2.464   5.101  18.523  0.00  0.00    +0.000 NA
BRANCH  24  26
ATOM     26  C   UNL     1       2.478   2.615  18.383  0.00  0.00    +0.000 C 
ATOM     27  F   UNL     1       2.670   2.341  19.707  0.00  0.00    +0.000 F 
ATOM     28  F   UNL     1       1.138   2.488  18.173  0.00  0.00    +0.000 F 
ATOM     29  F   UNL     1       3.067   1.586  17.709  0.00  0.00    +0.000 F 
ENDBRANCH  24  26
BRANCH  22  30
ATOM     30  C   UNL     1       5.734   5.398  15.666  0.00  0.00    +0.000 C 
ATOM     31  C   UNL     1       6.951   4.517  15.820  0.00  0.00    +0.000 C 
ATOM     32  C   UNL     1       6.004   4.281  14.683  0.00  0.00    +0.000 C 
ENDBRANCH  22  30
ENDBRANCH   2  20
TORSDOF 7
ENDMDL
