MODEL 1
REMARK VINA RESULT:      -9.0      0.000      0.000
REMARK  Name = 
REMARK  8 active torsions:
REMARK  status: ('A' for Active; 'I' for Inactive)
REMARK    1  A    between atoms: C_1  and  C_2
REMARK    2  A    between atoms: C_2  and  S_3
REMARK    3  A    between atoms: C_2  and  C_10
REMARK    4  A    between atoms: S_3  and  C_4
REMARK    5  A    between atoms: N_8  and  C_9
REMARK    6  A    between atoms: C_12  and  N_13
REMARK    7  A    between atoms: N_13  and  C_14
REMARK    8  A    between atoms: C_28  and  C_29
REMARK                            x       y       z     vdW  Elec       q    Type
REMARK                         _______ _______ _______ _____ _____    ______ ____
ROOT
ATOM      1  C   UNL     1       0.036  10.031  21.033  0.00  0.00    +0.000 A 
ATOM      2  C   UNL     1       0.177  11.074  20.112  0.00  0.00    +0.000 A 
ATOM      3  C   UNL     1       1.103  10.980  19.073  0.00  0.00    +0.000 A 
ATOM      4  N   UNL     1       1.790   9.841  18.851  0.00  0.00    +0.000 NA
ATOM      5  C   UNL     1       1.565   8.766  19.651  0.00  0.00    +0.000 A 
ATOM      6  N   UNL     1       2.144   7.515  19.329  0.00  0.00    +0.000 N 
ATOM      7  C   UNL     1       1.838   6.285  20.046  0.00  0.00    +0.000 C 
ATOM      8  C   UNL     1       2.544   5.229  19.257  0.00  0.00    +0.000 A 
ATOM      9  C   UNL     1       3.212   5.831  18.194  0.00  0.00    +0.000 A 
ATOM     10  C   UNL     1       3.962   5.115  17.281  0.00  0.00    +0.000 A 
ATOM     11  C   UNL     1       4.042   3.734  17.452  0.00  0.00    +0.000 A 
ATOM     12  C   UNL     1       3.365   3.105  18.517  0.00  0.00    +0.000 A 
ATOM     13  C   UNL     1       2.598   3.847  19.435  0.00  0.00    +0.000 A 
ATOM     14  C   UNL     1       2.958   7.280  18.223  0.00  0.00    +0.000 C 
ATOM     15  O   UNL     1       3.410   8.023  17.377  0.00  0.00    +0.000 OA
ATOM     16  C   UNL     1       0.742   8.854  20.774  0.00  0.00    +0.000 A 
ENDROOT
BRANCH  13  17
ATOM     17  C   UNL     1       1.866   3.130  20.547  0.00  0.00    +0.000 C 
ATOM     18  F   UNL     1       0.548   3.454  20.628  0.00  0.00    +0.000 F 
ATOM     19  F   UNL     1       1.909   1.775  20.406  0.00  0.00    +0.000 F 
ATOM     20  F   UNL     1       2.392   3.396  21.775  0.00  0.00    +0.000 F 
ENDBRANCH  13  17
BRANCH   1  22
ATOM     21  C   UNL     1      -0.148   9.602  23.555  0.00  0.00    +0.000 C 
ATOM     22  C   UNL     1      -0.767  10.250  22.308  0.00  0.00    +0.000 C 
BRANCH  22  23
ATOM     23  S   UNL     1      -0.937  12.073  22.561  0.00  0.00    +0.000 S 
BRANCH  23  24
ATOM     24  C   UNL     1      -2.647  12.252  22.662  0.00  0.00    +0.000 A 
ATOM     25  N   UNL     1      -3.403  12.025  23.710  0.00  0.00    +0.000 NA
ATOM     26  N   UNL     1      -4.692  12.381  23.378  0.00  0.00    +0.000 NA
ATOM     27  C   UNL     1      -4.680  12.805  22.134  0.00  0.00    +0.000 A 
ATOM     28  N   UNL     1      -3.416  12.715  21.633  0.00  0.00    +0.000 N 
ATOM     29  C   UNL     1      -3.007  13.076  20.302  0.00  0.00    +0.000 C 
ENDBRANCH  23  24
ENDBRANCH  22  23
ENDBRANCH   1  22
BRANCH   3  30
ATOM     30  N   UNL     1       1.287  12.130  18.300  0.00  0.00    +0.000 N 
ATOM     31  H   UNL     1       1.023  11.974  17.332  0.00  0.00    +0.000 HD
BRANCH  30  32
ATOM     32  C   UNL     1       2.469  12.973  18.502  0.00  0.00    +0.000 C 
ATOM     33  C   UNL     1       2.505  13.378  19.972  0.00  0.00    +0.000 C 
ATOM     34  C   UNL     1       1.717  14.669  20.007  0.00  0.00    +0.000 C 
ATOM     35  O   UNL     1       1.881  15.298  18.735  0.00  0.00    +0.000 OA
ATOM     36  C   UNL     1       2.427  14.332  17.810  0.00  0.00    +0.000 C 
ENDBRANCH  30  32
ENDBRANCH   3  30
TORSDOF 6
ENDMDL
MODEL 2
REMARK VINA RESULT:      -8.9      0.558      1.079
REMARK  Name = 
REMARK  8 active torsions:
REMARK  status: ('A' for Active; 'I' for Inactive)
REMARK    1  A    between atoms: C_1  and  C_2
REMARK    2  A    between atoms: C_2  and  S_3
REMARK    3  A    between atoms: C_2  and  C_10
REMARK    4  A    between atoms: S_3  and  C_4
REMARK    5  A    between atoms: N_8  and  C_9
REMARK    6  A    between atoms: C_12  and  N_13
REMARK    7  A    between atoms: N_13  and  C_14
REMARK    8  A    between atoms: C_28  and  C_29
REMARK                            x       y       z     vdW  Elec       q    Type
REMARK                         _______ _______ _______ _____ _____    ______ ____
ROOT
ATOM      1  C   UNL     1      -0.068  10.084  21.101  0.00  0.00    +0.000 A 
ATOM      2  C   UNL     1       0.022  11.119  20.164  0.00  0.00    +0.000 A 
ATOM      3  C   UNL     1       0.927  11.038  19.105  0.00  0.00    +0.000 A 
ATOM      4  N   UNL     1       1.641   9.917  18.882  0.00  0.00    +0.000 NA
ATOM      5  C   UNL     1       1.467   8.846  19.700  0.00  0.00    +0.000 A 
ATOM      6  N   UNL     1       2.075   7.609  19.381  0.00  0.00    +0.000 N 
ATOM      7  C   UNL     1       1.822   6.380  20.120  0.00  0.00    +0.000 C 
ATOM      8  C   UNL     1       2.541   5.335  19.328  0.00  0.00    +0.000 A 
ATOM      9  C   UNL     1       3.167   5.942  18.243  0.00  0.00    +0.000 A 
ATOM     10  C   UNL     1       3.917   5.237  17.322  0.00  0.00    +0.000 A 
ATOM     11  C   UNL     1       4.042   3.861  17.509  0.00  0.00    +0.000 A 
ATOM     12  C   UNL     1       3.408   3.226  18.597  0.00  0.00    +0.000 A 
ATOM     13  C   UNL     1       2.640   3.958  19.523  0.00  0.00    +0.000 A 
ATOM     14  C   UNL     1       2.871   7.384  18.260  0.00  0.00    +0.000 C 
ATOM     15  O   UNL     1       3.281   8.129  17.395  0.00  0.00    +0.000 OA
ATOM     16  C   UNL     1       0.667   8.925  20.841  0.00  0.00    +0.000 A 
ENDROOT
BRANCH  13  17
ATOM     17  C   UNL     1       1.955   3.234  20.659  0.00  0.00    +0.000 C 
ATOM     18  F   UNL     1       2.108   1.884  20.616  0.00  0.00    +0.000 F 
ATOM     19  F   UNL     1       2.422   3.624  21.879  0.00  0.00    +0.000 F 
ATOM     20  F   UNL     1       0.611   3.456  20.685  0.00  0.00    +0.000 F 
ENDBRANCH  13  17
BRANCH   1  22
ATOM     21  C   UNL     1      -0.197   9.659  23.627  0.00  0.00    +0.000 C 
ATOM     22  C   UNL     1      -0.849  10.297  22.391  0.00  0.00    +0.000 C 
BRANCH  22  23
ATOM     23  S   UNL     1      -1.035  12.118  22.644  0.00  0.00    +0.000 S 
BRANCH  23  24
ATOM     24  C   UNL     1      -2.746  12.280  22.754  0.00  0.00    +0.000 A 
ATOM     25  N   UNL     1      -3.492  12.062  23.811  0.00  0.00    +0.000 NA
ATOM     26  N   UNL     1      -4.787  12.398  23.483  0.00  0.00    +0.000 NA
ATOM     27  C   UNL     1      -4.789  12.801  22.232  0.00  0.00    +0.000 A 
ATOM     28  N   UNL     1      -3.528  12.717  21.723  0.00  0.00    +0.000 N 
ATOM     29  C   UNL     1      -3.132  13.061  20.384  0.00  0.00    +0.000 C 
ENDBRANCH  23  24
ENDBRANCH  22  23
ENDBRANCH   1  22
BRANCH   3  30
ATOM     30  N   UNL     1       1.058  12.183  18.314  0.00  0.00    +0.000 N 
ATOM     31  H   UNL     1       1.675  12.020  17.524  0.00  0.00    +0.000 HD
BRANCH  30  32
ATOM     32  C   UNL     1       1.176  13.503  18.941  0.00  0.00    +0.000 C 
ATOM     33  C   UNL     1       2.046  14.370  18.038  0.00  0.00    +0.000 C 
ATOM     34  C   UNL     1       3.449  14.126  18.552  0.00  0.00    +0.000 C 
ATOM     35  O   UNL     1       3.342  13.828  19.945  0.00  0.00    +0.000 OA
ATOM     36  C   UNL     1       1.960  13.537  20.249  0.00  0.00    +0.000 C 
ENDBRANCH  30  32
ENDBRANCH   3  30
TORSDOF 6
ENDMDL
MODEL 3
REMARK VINA RESULT:      -8.6      0.506      1.196
REMARK  Name = 
REMARK  8 active torsions:
REMARK  status: ('A' for Active; 'I' for Inactive)
REMARK    1  A    between atoms: C_1  and  C_2
REMARK    2  A    between atoms: C_2  and  S_3
REMARK    3  A    between atoms: C_2  and  C_10
REMARK    4  A    between atoms: S_3  and  C_4
REMARK    5  A    between atoms: N_8  and  C_9
REMARK    6  A    between atoms: C_12  and  N_13
REMARK    7  A    between atoms: N_13  and  C_14
REMARK    8  A    between atoms: C_28  and  C_29
REMARK                            x       y       z     vdW  Elec       q    Type
REMARK                         _______ _______ _______ _____ _____    ______ ____
ROOT
ATOM      1  C   UNL     1       0.051  10.125  20.886  0.00  0.00    +0.000 A 
ATOM      2  C   UNL     1       0.248  11.160  19.967  0.00  0.00    +0.000 A 
ATOM      3  C   UNL     1       1.205  11.039  18.959  0.00  0.00    +0.000 A 
ATOM      4  N   UNL     1       1.871   9.883  18.764  0.00  0.00    +0.000 NA
ATOM      5  C   UNL     1       1.595   8.817  19.560  0.00  0.00    +0.000 A 
ATOM      6  N   UNL     1       2.153   7.552  19.263  0.00  0.00    +0.000 N 
ATOM      7  C   UNL     1       1.795   6.333  19.974  0.00  0.00    +0.000 C 
ATOM      8  C   UNL     1       2.502   5.257  19.212  0.00  0.00    +0.000 A 
ATOM      9  C   UNL     1       3.218   5.838  18.170  0.00  0.00    +0.000 A 
ATOM     10  C   UNL     1       3.980   5.100  17.285  0.00  0.00    +0.000 A 
ATOM     11  C   UNL     1       4.022   3.719  17.464  0.00  0.00    +0.000 A 
ATOM     12  C   UNL     1       3.295   3.110  18.508  0.00  0.00    +0.000 A 
ATOM     13  C   UNL     1       2.516   3.875  19.398  0.00  0.00    +0.000 A 
ATOM     14  C   UNL     1       2.998   7.293  18.185  0.00  0.00    +0.000 C 
ATOM     15  O   UNL     1       3.495   8.021  17.352  0.00  0.00    +0.000 OA
ATOM     16  C   UNL     1       0.738   8.930  20.656  0.00  0.00    +0.000 A 
ENDROOT
BRANCH  13  17
ATOM     17  C   UNL     1       1.731   3.180  20.487  0.00  0.00    +0.000 C 
ATOM     18  F   UNL     1       2.139   3.505  21.743  0.00  0.00    +0.000 F 
ATOM     19  F   UNL     1       0.402   3.477  20.438  0.00  0.00    +0.000 F 
ATOM     20  F   UNL     1       1.816   1.823  20.407  0.00  0.00    +0.000 F 
ENDBRANCH  13  17
BRANCH   1  22
ATOM     21  C   UNL     1      -0.227   9.711  23.402  0.00  0.00    +0.000 C 
ATOM     22  C   UNL     1      -0.788  10.369  22.134  0.00  0.00    +0.000 C 
BRANCH  22  23
ATOM     23  S   UNL     1      -0.919  12.196  22.376  0.00  0.00    +0.000 S 
BRANCH  23  24
ATOM     24  C   UNL     1      -2.510  12.510  21.794  0.00  0.00    +0.000 A 
ATOM     25  N   UNL     1      -2.873  12.675  20.544  0.00  0.00    +0.000 NA
ATOM     26  N   UNL     1      -4.244  12.812  20.524  0.00  0.00    +0.000 NA
ATOM     27  C   UNL     1      -4.670  12.734  21.765  0.00  0.00    +0.000 A 
ATOM     28  N   UNL     1      -3.608  12.572  22.603  0.00  0.00    +0.000 N 
ATOM     29  C   UNL     1      -3.671  12.456  24.035  0.00  0.00    +0.000 C 
ENDBRANCH  23  24
ENDBRANCH  22  23
ENDBRANCH   1  22
BRANCH   3  30
ATOM     30  N   UNL     1       1.441  12.182  18.189  0.00  0.00    +0.000 N 
ATOM     31  H   UNL     1       1.266  12.008  17.203  0.00  0.00    +0.000 HD
BRANCH  30  32
ATOM     32  C   UNL     1       2.590  13.043  18.480  0.00  0.00    +0.000 C 
ATOM     33  C   UNL     1       2.529  13.415  19.958  0.00  0.00    +0.000 C 
ATOM     34  C   UNL     1       1.713  14.689  19.973  0.00  0.00    +0.000 C 
ATOM     35  O   UNL     1       1.940  15.350  18.727  0.00  0.00    +0.000 OA
ATOM     36  C   UNL     1       2.562  14.416  17.817  0.00  0.00    +0.000 C 
ENDBRANCH  30  32
ENDBRANCH   3  30
TORSDOF 6
ENDMDL
MODEL 4
REMARK VINA RESULT:      -8.5      0.736      1.344
REMARK  Name = 
REMARK  8 active torsions:
REMARK  status: ('A' for Active; 'I' for Inactive)
REMARK    1  A    between atoms: C_1  and  C_2
REMARK    2  A    between atoms: C_2  and  S_3
REMARK    3  A    between atoms: C_2  and  C_10
REMARK    4  A    between atoms: S_3  and  C_4
REMARK    5  A    between atoms: N_8  and  C_9
REMARK    6  A    between atoms: C_12  and  N_13
REMARK    7  A    between atoms: N_13  and  C_14
REMARK    8  A    between atoms: C_28  and  C_29
REMARK                            x       y       z     vdW  Elec       q    Type
REMARK                         _______ _______ _______ _____ _____    ______ ____
ROOT
ATOM      1  C   UNL     1       0.125  10.117  20.820  0.00  0.00    +0.000 A 
ATOM      2  C   UNL     1       0.359  11.161  19.920  0.00  0.00    +0.000 A 
ATOM      3  C   UNL     1       1.332  11.036  18.928  0.00  0.00    +0.000 A 
ATOM      4  N   UNL     1       1.978   9.870  18.728  0.00  0.00    +0.000 NA
ATOM      5  C   UNL     1       1.667   8.798  19.504  0.00  0.00    +0.000 A 
ATOM      6  N   UNL     1       2.206   7.526  19.198  0.00  0.00    +0.000 N 
ATOM      7  C   UNL     1       1.810   6.305  19.884  0.00  0.00    +0.000 C 
ATOM      8  C   UNL     1       2.510   5.225  19.120  0.00  0.00    +0.000 A 
ATOM      9  C   UNL     1       3.256   5.807  18.100  0.00  0.00    +0.000 A 
ATOM     10  C   UNL     1       4.020   5.067  17.218  0.00  0.00    +0.000 A 
ATOM     11  C   UNL     1       4.032   3.683  17.378  0.00  0.00    +0.000 A 
ATOM     12  C   UNL     1       3.274   3.074  18.399  0.00  0.00    +0.000 A 
ATOM     13  C   UNL     1       2.494   3.841  19.285  0.00  0.00    +0.000 A 
ATOM     14  C   UNL     1       3.065   7.266  18.132  0.00  0.00    +0.000 C 
ATOM     15  O   UNL     1       3.591   7.996  17.319  0.00  0.00    +0.000 OA
ATOM     16  C   UNL     1       0.792   8.913  20.584  0.00  0.00    +0.000 A 
ENDROOT
BRANCH  13  17
ATOM     17  C   UNL     1       1.675   3.147  20.350  0.00  0.00    +0.000 C 
ATOM     18  F   UNL     1       0.354   3.467  20.315  0.00  0.00    +0.000 F 
ATOM     19  F   UNL     1       1.733   1.789  20.246  0.00  0.00    +0.000 F 
ATOM     20  F   UNL     1       2.098   3.445  21.611  0.00  0.00    +0.000 F 
ENDBRANCH  13  17
BRANCH   1  22
ATOM     21  C   UNL     1      -0.201   9.684  23.327  0.00  0.00    +0.000 C 
ATOM     22  C   UNL     1      -0.732  10.360  22.055  0.00  0.00    +0.000 C 
BRANCH  22  23
ATOM     23  S   UNL     1      -0.846  12.187  22.312  0.00  0.00    +0.000 S 
BRANCH  23  24
ATOM     24  C   UNL     1      -2.439  12.518  21.746  0.00  0.00    +0.000 A 
ATOM     25  N   UNL     1      -2.806  12.726  20.504  0.00  0.00    +0.000 NA
ATOM     26  N   UNL     1      -4.177  12.861  20.492  0.00  0.00    +0.000 NA
ATOM     27  C   UNL     1      -4.599  12.741  21.731  0.00  0.00    +0.000 A 
ATOM     28  N   UNL     1      -3.535  12.551  22.560  0.00  0.00    +0.000 N 
ATOM     29  C   UNL     1      -3.593  12.386  23.987  0.00  0.00    +0.000 C 
ENDBRANCH  23  24
ENDBRANCH  22  23
ENDBRANCH   1  22
BRANCH   3  30
ATOM     30  N   UNL     1       1.605  12.184  18.179  0.00  0.00    +0.000 N 
ATOM     31  H   UNL     1       2.357  12.025  17.515  0.00  0.00    +0.000 HD
BRANCH  30  32
ATOM     32  C   UNL     1       1.601  13.502  18.821  0.00  0.00    +0.000 C 
ATOM     33  C   UNL     1       2.331  14.471  17.896  0.00  0.00    +0.000 C 
ATOM     34  C   UNL     1       3.772  14.379  18.347  0.00  0.00    +0.000 C 
ATOM     35  O   UNL     1       3.759  14.056  19.738  0.00  0.00    +0.000 OA
ATOM     36  C   UNL     1       2.432  13.609  20.095  0.00  0.00    +0.000 C 
ENDBRANCH  30  32
ENDBRANCH   3  30
TORSDOF 6
ENDMDL
MODEL 5
REMARK VINA RESULT:      -8.3      4.658      9.819
REMARK  Name = 
REMARK  8 active torsions:
REMARK  status: ('A' for Active; 'I' for Inactive)
REMARK    1  A    between atoms: C_1  and  C_2
REMARK    2  A    between atoms: C_2  and  S_3
REMARK    3  A    between atoms: C_2  and  C_10
REMARK    4  A    between atoms: S_3  and  C_4
REMARK    5  A    between atoms: N_8  and  C_9
REMARK    6  A    between atoms: C_12  and  N_13
REMARK    7  A    between atoms: N_13  and  C_14
REMARK    8  A    between atoms: C_28  and  C_29
REMARK                            x       y       z     vdW  Elec       q    Type
REMARK                         _______ _______ _______ _____ _____    ______ ____
ROOT
ATOM      1  C   UNL     1       2.840   6.721  18.420  0.00  0.00    +0.000 A 
ATOM      2  C   UNL     1       2.691   5.633  19.285  0.00  0.00    +0.000 A 
ATOM      3  C   UNL     1       2.163   5.812  20.563  0.00  0.00    +0.000 A 
ATOM      4  N   UNL     1       1.666   7.004  20.952  0.00  0.00    +0.000 NA
ATOM      5  C   UNL     1       1.674   8.043  20.076  0.00  0.00    +0.000 A 
ATOM      6  N   UNL     1       1.004   9.245  20.403  0.00  0.00    +0.000 N 
ATOM      7  C   UNL     1       0.839  10.348  19.467  0.00  0.00    +0.000 C 
ATOM      8  C   UNL     1      -0.055  11.301  20.195  0.00  0.00    +0.000 A 
ATOM      9  C   UNL     1      -0.346  10.777  21.450  0.00  0.00    +0.000 A 
ATOM     10  C   UNL     1      -1.151  11.430  22.365  0.00  0.00    +0.000 A 
ATOM     11  C   UNL     1      -1.679  12.665  21.994  0.00  0.00    +0.000 A 
ATOM     12  C   UNL     1      -1.403  13.208  20.722  0.00  0.00    +0.000 A 
ATOM     13  C   UNL     1      -0.588  12.527  19.798  0.00  0.00    +0.000 A 
ATOM     14  C   UNL     1       0.312   9.468  21.592  0.00  0.00    +0.000 C 
ATOM     15  O   UNL     1       0.184   8.795  22.593  0.00  0.00    +0.000 OA
ATOM     16  C   UNL     1       2.303   7.942  18.835  0.00  0.00    +0.000 A 
ENDROOT
BRANCH  13  17
ATOM     17  C   UNL     1      -0.339  13.132  18.435  0.00  0.00    +0.000 C 
ATOM     18  F   UNL     1       0.953  13.036  18.024  0.00  0.00    +0.000 F 
ATOM     19  F   UNL     1      -1.086  12.540  17.461  0.00  0.00    +0.000 F 
ATOM     20  F   UNL     1      -0.648  14.459  18.389  0.00  0.00    +0.000 F 
ENDBRANCH  13  17
BRANCH   1  22
ATOM     21  C   UNL     1       4.935   7.426  17.119  0.00  0.00    +0.000 C 
ATOM     22  C   UNL     1       3.661   6.570  17.146  0.00  0.00    +0.000 C 
BRANCH  22  23
ATOM     23  S   UNL     1       4.097   4.783  16.965  0.00  0.00    +0.000 S 
BRANCH  23  24
ATOM     24  C   UNL     1       5.721   4.762  17.540  0.00  0.00    +0.000 A 
ATOM     25  N   UNL     1       6.115   4.818  18.789  0.00  0.00    +0.000 NA
ATOM     26  N   UNL     1       7.486   4.682  18.800  0.00  0.00    +0.000 NA
ATOM     27  C   UNL     1       7.883   4.556  17.553  0.00  0.00    +0.000 A 
ATOM     28  N   UNL     1       6.806   4.629  16.722  0.00  0.00    +0.000 N 
ATOM     29  C   UNL     1       6.838   4.543  15.286  0.00  0.00    +0.000 C 
ENDBRANCH  23  24
ENDBRANCH  22  23
ENDBRANCH   1  22
BRANCH   3  30
ATOM     30  N   UNL     1       2.199   4.701  21.410  0.00  0.00    +0.000 N 
ATOM     31  H   UNL     1       3.152   4.456  21.662  0.00  0.00    +0.000 HD
BRANCH  30  32
ATOM     32  C   UNL     1       1.300   3.567  21.177  0.00  0.00    +0.000 C 
ATOM     33  C   UNL     1       2.123   2.289  21.304  0.00  0.00    +0.000 C 
ATOM     34  C   UNL     1       2.618   2.041  19.896  0.00  0.00    +0.000 C 
ATOM     35  O   UNL     1       1.643   2.584  19.004  0.00  0.00    +0.000 OA
ATOM     36  C   UNL     1       0.759   3.444  19.757  0.00  0.00    +0.000 C 
ENDBRANCH  30  32
ENDBRANCH   3  30
TORSDOF 6
ENDMDL
MODEL 6
REMARK VINA RESULT:      -8.1      1.047      1.454
REMARK  Name = 
REMARK  8 active torsions:
REMARK  status: ('A' for Active; 'I' for Inactive)
REMARK    1  A    between atoms: C_1  and  C_2
REMARK    2  A    between atoms: C_2  and  S_3
REMARK    3  A    between atoms: C_2  and  C_10
REMARK    4  A    between atoms: S_3  and  C_4
REMARK    5  A    between atoms: N_8  and  C_9
REMARK    6  A    between atoms: C_12  and  N_13
REMARK    7  A    between atoms: N_13  and  C_14
REMARK    8  A    between atoms: C_28  and  C_29
REMARK                            x       y       z     vdW  Elec       q    Type
REMARK                         _______ _______ _______ _____ _____    ______ ____
ROOT
ATOM      1  C   UNL     1       0.228  10.304  20.588  0.00  0.00    +0.000 A 
ATOM      2  C   UNL     1       0.570  11.340  19.713  0.00  0.00    +0.000 A 
ATOM      3  C   UNL     1       1.583  11.164  18.769  0.00  0.00    +0.000 A 
ATOM      4  N   UNL     1       2.166   9.961  18.588  0.00  0.00    +0.000 NA
ATOM      5  C   UNL     1       1.751   8.905  19.334  0.00  0.00    +0.000 A 
ATOM      6  N   UNL     1       2.226   7.604  19.041  0.00  0.00    +0.000 N 
ATOM      7  C   UNL     1       1.722   6.403  19.692  0.00  0.00    +0.000 C 
ATOM      8  C   UNL     1       2.392   5.290  18.950  0.00  0.00    +0.000 A 
ATOM      9  C   UNL     1       3.223   5.833  17.976  0.00  0.00    +0.000 A 
ATOM     10  C   UNL     1       3.984   5.056  17.124  0.00  0.00    +0.000 A 
ATOM     11  C   UNL     1       3.902   3.672  17.267  0.00  0.00    +0.000 A 
ATOM     12  C   UNL     1       3.058   3.102  18.243  0.00  0.00    +0.000 A 
ATOM     13  C   UNL     1       2.283   3.908  19.098  0.00  0.00    +0.000 A 
ATOM     14  C   UNL     1       3.120   7.301  18.015  0.00  0.00    +0.000 C 
ATOM     15  O   UNL     1       3.730   8.004  17.238  0.00  0.00    +0.000 OA
ATOM     16  C   UNL     1       0.831   9.063  20.372  0.00  0.00    +0.000 A 
ENDROOT
BRANCH  13  17
ATOM     17  C   UNL     1       1.371   3.256  20.112  0.00  0.00    +0.000 C 
ATOM     18  F   UNL     1       0.803   4.137  20.979  0.00  0.00    +0.000 F 
ATOM     19  F   UNL     1       0.336   2.590  19.527  0.00  0.00    +0.000 F 
ATOM     20  F   UNL     1       2.019   2.339  20.884  0.00  0.00    +0.000 F 
ENDBRANCH  13  17
BRANCH   1  22
ATOM     21  C   UNL     1      -0.282   9.827  23.056  0.00  0.00    +0.000 C 
ATOM     22  C   UNL     1      -0.674  10.589  21.782  0.00  0.00    +0.000 C 
BRANCH  22  23
ATOM     23  S   UNL     1      -0.634  12.409  22.097  0.00  0.00    +0.000 S 
BRANCH  23  24
ATOM     24  C   UNL     1      -2.159  12.663  22.857  0.00  0.00    +0.000 A 
ATOM     25  N   UNL     1      -3.255  11.965  22.677  0.00  0.00    +0.000 NA
ATOM     26  N   UNL     1      -4.207  12.452  23.545  0.00  0.00    +0.000 NA
ATOM     27  C   UNL     1      -3.661  13.440  24.220  0.00  0.00    +0.000 A 
ATOM     28  N   UNL     1      -2.379  13.626  23.800  0.00  0.00    +0.000 N 
ATOM     29  C   UNL     1      -1.462  14.618  24.295  0.00  0.00    +0.000 C 
ENDBRANCH  23  24
ENDBRANCH  22  23
ENDBRANCH   1  22
BRANCH   3  30
ATOM     30  N   UNL     1       1.962  12.299  18.048  0.00  0.00    +0.000 N 
ATOM     31  H   UNL     1       2.778  12.118  17.471  0.00  0.00    +0.000 HD
BRANCH  30  32
ATOM     32  C   UNL     1       1.921  13.621  18.680  0.00  0.00    +0.000 C 
ATOM     33  C   UNL     1       2.580  14.612  17.726  0.00  0.00    +0.000 C 
ATOM     34  C   UNL     1       4.037  14.587  18.135  0.00  0.00    +0.000 C 
ATOM     35  O   UNL     1       4.078  14.277  19.529  0.00  0.00    +0.000 OA
ATOM     36  C   UNL     1       2.783  13.777  19.928  0.00  0.00    +0.000 C 
ENDBRANCH  30  32
ENDBRANCH   3  30
TORSDOF 6
ENDMDL
MODEL 7
REMARK VINA RESULT:      -8.0      4.663      9.847
REMARK  Name = 
REMARK  8 active torsions:
REMARK  status: ('A' for Active; 'I' for Inactive)
REMARK    1  A    between atoms: C_1  and  C_2
REMARK    2  A    between atoms: C_2  and  S_3
REMARK    3  A    between atoms: C_2  and  C_10
REMARK    4  A    between atoms: S_3  and  C_4
REMARK    5  A    between atoms: N_8  and  C_9
REMARK    6  A    between atoms: C_12  and  N_13
REMARK    7  A    between atoms: N_13  and  C_14
REMARK    8  A    between atoms: C_28  and  C_29
REMARK                            x       y       z     vdW  Elec       q    Type
REMARK                         _______ _______ _______ _____ _____    ______ ____
ROOT
ATOM      1  C   UNL     1       2.887   6.748  18.344  0.00  0.00    +0.000 A 
ATOM      2  C   UNL     1       2.725   5.656  19.202  0.00  0.00    +0.000 A 
ATOM      3  C   UNL     1       2.188   5.831  20.477  0.00  0.00    +0.000 A 
ATOM      4  N   UNL     1       1.694   7.023  20.868  0.00  0.00    +0.000 NA
ATOM      5  C   UNL     1       1.714   8.067  19.998  0.00  0.00    +0.000 A 
ATOM      6  N   UNL     1       1.048   9.271  20.325  0.00  0.00    +0.000 N 
ATOM      7  C   UNL     1       0.897  10.380  19.394  0.00  0.00    +0.000 C 
ATOM      8  C   UNL     1       0.002  11.334  20.120  0.00  0.00    +0.000 A 
ATOM      9  C   UNL     1      -0.302  10.805  21.370  0.00  0.00    +0.000 A 
ATOM     10  C   UNL     1      -1.111  11.456  22.281  0.00  0.00    +0.000 A 
ATOM     11  C   UNL     1      -1.630  12.696  21.912  0.00  0.00    +0.000 A 
ATOM     12  C   UNL     1      -1.341  13.245  20.646  0.00  0.00    +0.000 A 
ATOM     13  C   UNL     1      -0.522  12.565  19.725  0.00  0.00    +0.000 A 
ATOM     14  C   UNL     1       0.347   9.491  21.510  0.00  0.00    +0.000 C 
ATOM     15  O   UNL     1       0.208   8.814  22.506  0.00  0.00    +0.000 OA
ATOM     16  C   UNL     1       2.353   7.970  18.761  0.00  0.00    +0.000 A 
ENDROOT
BRANCH  13  17
ATOM     17  C   UNL     1      -0.259  13.176  18.367  0.00  0.00    +0.000 C 
ATOM     18  F   UNL     1       1.033  13.061  17.960  0.00  0.00    +0.000 F 
ATOM     19  F   UNL     1      -1.012  12.603  17.387  0.00  0.00    +0.000 F 
ATOM     20  F   UNL     1      -0.545  14.508  18.330  0.00  0.00    +0.000 F 
ENDBRANCH  13  17
BRANCH   1  22
ATOM     21  C   UNL     1       5.074   7.315  17.130  0.00  0.00    +0.000 C 
ATOM     22  C   UNL     1       3.718   6.599  17.075  0.00  0.00    +0.000 C 
BRANCH  22  23
ATOM     23  S   UNL     1       3.968   4.793  16.775  0.00  0.00    +0.000 S 
BRANCH  23  24
ATOM     24  C   UNL     1       5.682   4.659  16.872  0.00  0.00    +0.000 A 
ATOM     25  N   UNL     1       6.529   4.640  15.870  0.00  0.00    +0.000 NA
ATOM     26  N   UNL     1       7.800   4.612  16.400  0.00  0.00    +0.000 NA
ATOM     27  C   UNL     1       7.685   4.607  17.710  0.00  0.00    +0.000 A 
ATOM     28  N   UNL     1       6.367   4.608  18.052  0.00  0.00    +0.000 N 
ATOM     29  C   UNL     1       5.841   4.594  19.391  0.00  0.00    +0.000 C 
ENDBRANCH  23  24
ENDBRANCH  22  23
ENDBRANCH   1  22
BRANCH   3  30
ATOM     30  N   UNL     1       2.211   4.715  21.318  0.00  0.00    +0.000 N 
ATOM     31  H   UNL     1       3.162   4.445  21.551  0.00  0.00    +0.000 HD
BRANCH  30  32
ATOM     32  C   UNL     1       1.280   3.606  21.097  0.00  0.00    +0.000 C 
ATOM     33  C   UNL     1       2.074   2.307  21.190  0.00  0.00    +0.000 C 
ATOM     34  C   UNL     1       2.527   2.062  19.767  0.00  0.00    +0.000 C 
ATOM     35  O   UNL     1       1.543   2.638  18.906  0.00  0.00    +0.000 OA
ATOM     36  C   UNL     1       0.699   3.511  19.690  0.00  0.00    +0.000 C 
ENDBRANCH  30  32
ENDBRANCH   3  30
TORSDOF 6
ENDMDL
MODEL 8
REMARK VINA RESULT:      -7.8      1.178      1.594
REMARK  Name = 
REMARK  8 active torsions:
REMARK  status: ('A' for Active; 'I' for Inactive)
REMARK    1  A    between atoms: C_1  and  C_2
REMARK    2  A    between atoms: C_2  and  S_3
REMARK    3  A    between atoms: C_2  and  C_10
REMARK    4  A    between atoms: S_3  and  C_4
REMARK    5  A    between atoms: N_8  and  C_9
REMARK    6  A    between atoms: C_12  and  N_13
REMARK    7  A    between atoms: N_13  and  C_14
REMARK    8  A    between atoms: C_28  and  C_29
REMARK                            x       y       z     vdW  Elec       q    Type
REMARK                         _______ _______ _______ _____ _____    ______ ____
ROOT
ATOM      1  C   UNL     1       0.303  10.348  20.036  0.00  0.00    +0.000 A 
ATOM      2  C   UNL     1       0.812  11.358  19.213  0.00  0.00    +0.000 A 
ATOM      3  C   UNL     1       1.932  11.124  18.416  0.00  0.00    +0.000 A 
ATOM      4  N   UNL     1       2.474   9.894  18.317  0.00  0.00    +0.000 NA
ATOM      5  C   UNL     1       1.910   8.865  19.002  0.00  0.00    +0.000 A 
ATOM      6  N   UNL     1       2.355   7.540  18.777  0.00  0.00    +0.000 N 
ATOM      7  C   UNL     1       1.709   6.371  19.356  0.00  0.00    +0.000 C 
ATOM      8  C   UNL     1       2.417   5.220  18.714  0.00  0.00    +0.000 A 
ATOM      9  C   UNL     1       3.398   5.714  17.860  0.00  0.00    +0.000 A 
ATOM     10  C   UNL     1       4.227   4.893  17.120  0.00  0.00    +0.000 A 
ATOM     11  C   UNL     1       4.059   3.516  17.254  0.00  0.00    +0.000 A 
ATOM     12  C   UNL     1       3.064   2.996  18.107  0.00  0.00    +0.000 A 
ATOM     13  C   UNL     1       2.221   3.846  18.848  0.00  0.00    +0.000 A 
ATOM     14  C   UNL     1       3.363   7.185  17.883  0.00  0.00    +0.000 C 
ATOM     15  O   UNL     1       4.107   7.851  17.195  0.00  0.00    +0.000 OA
ATOM     16  C   UNL     1       0.867   9.077  19.905  0.00  0.00    +0.000 A 
ENDROOT
BRANCH  13  17
ATOM     17  C   UNL     1       1.148   3.248  19.731  0.00  0.00    +0.000 C 
ATOM     18  F   UNL     1       0.159   2.624  19.038  0.00  0.00    +0.000 F 
ATOM     19  F   UNL     1       1.646   2.317  20.593  0.00  0.00    +0.000 F 
ATOM     20  F   UNL     1       0.529   4.183  20.505  0.00  0.00    +0.000 F 
ENDBRANCH  13  17
BRANCH   1  22
ATOM     21  C   UNL     1      -0.302  10.344  22.528  0.00  0.00    +0.000 C 
ATOM     22  C   UNL     1      -0.737  10.686  21.096  0.00  0.00    +0.000 C 
BRANCH  22  23
ATOM     23  S   UNL     1      -1.111  12.491  20.963  0.00  0.00    +0.000 S 
BRANCH  23  24
ATOM     24  C   UNL     1      -2.817  12.475  20.728  0.00  0.00    +0.000 A 
ATOM     25  N   UNL     1      -3.736  12.799  21.606  0.00  0.00    +0.000 NA
ATOM     26  N   UNL     1      -4.958  12.732  20.974  0.00  0.00    +0.000 NA
ATOM     27  C   UNL     1      -4.743  12.360  19.731  0.00  0.00    +0.000 A 
ATOM     28  N   UNL     1      -3.409  12.160  19.539  0.00  0.00    +0.000 N 
ATOM     29  C   UNL     1      -2.785  11.740  18.313  0.00  0.00    +0.000 C 
ENDBRANCH  23  24
ENDBRANCH  22  23
ENDBRANCH   1  22
BRANCH   3  30
ATOM     30  N   UNL     1       2.462  12.234  17.751  0.00  0.00    +0.000 N 
ATOM     31  H   UNL     1       3.392  12.043  17.392  0.00  0.00    +0.000 HD
BRANCH  30  32
ATOM     32  C   UNL     1       2.261  13.582  18.290  0.00  0.00    +0.000 C 
ATOM     33  C   UNL     1       3.054  14.553  17.422  0.00  0.00    +0.000 C 
ATOM     34  C   UNL     1       4.410  14.607  18.092  0.00  0.00    +0.000 C 
ATOM     35  O   UNL     1       4.201  14.366  19.485  0.00  0.00    +0.000 OA
ATOM     36  C   UNL     1       2.871  13.832  19.666  0.00  0.00    +0.000 C 
ENDBRANCH  30  32
ENDBRANCH   3  30
TORSDOF 6
ENDMDL
MODEL 9
REMARK VINA RESULT:      -7.6      1.486      2.058
REMARK  Name = 
REMARK  8 active torsions:
REMARK  status: ('A' for Active; 'I' for Inactive)
REMARK    1  A    between atoms: C_1  and  C_2
REMARK    2  A    between atoms: C_2  and  S_3
REMARK    3  A    between atoms: C_2  and  C_10
REMARK    4  A    between atoms: S_3  and  C_4
REMARK    5  A    between atoms: N_8  and  C_9
REMARK    6  A    between atoms: C_12  and  N_13
REMARK    7  A    between atoms: N_13  and  C_14
REMARK    8  A    between atoms: C_28  and  C_29
REMARK                            x       y       z     vdW  Elec       q    Type
REMARK                         _______ _______ _______ _____ _____    ______ ____
ROOT
ATOM      1  C   UNL     1       0.268  10.217  19.993  0.00  0.00    +0.000 A 
ATOM      2  C   UNL     1       0.781  11.248  19.200  0.00  0.00    +0.000 A 
ATOM      3  C   UNL     1       1.918  11.040  18.419  0.00  0.00    +0.000 A 
ATOM      4  N   UNL     1       2.474   9.817  18.307  0.00  0.00    +0.000 NA
ATOM      5  C   UNL     1       1.908   8.770  18.961  0.00  0.00    +0.000 A 
ATOM      6  N   UNL     1       2.370   7.454  18.720  0.00  0.00    +0.000 N 
ATOM      7  C   UNL     1       1.725   6.268  19.264  0.00  0.00    +0.000 C 
ATOM      8  C   UNL     1       2.456   5.136  18.613  0.00  0.00    +0.000 A 
ATOM      9  C   UNL     1       3.448   5.656  17.787  0.00  0.00    +0.000 A 
ATOM     10  C   UNL     1       4.299   4.857  17.047  0.00  0.00    +0.000 A 
ATOM     11  C   UNL     1       4.141   3.476  17.152  0.00  0.00    +0.000 A 
ATOM     12  C   UNL     1       3.136   2.931  17.976  0.00  0.00    +0.000 A 
ATOM     13  C   UNL     1       2.271   3.758  18.717  0.00  0.00    +0.000 A 
ATOM     14  C   UNL     1       3.398   7.126  17.838  0.00  0.00    +0.000 C 
ATOM     15  O   UNL     1       4.148   7.812  17.176  0.00  0.00    +0.000 OA
ATOM     16  C   UNL     1       0.847   8.954  19.848  0.00  0.00    +0.000 A 
ENDROOT
BRANCH  13  17
ATOM     17  C   UNL     1       1.189   3.133  19.568  0.00  0.00    +0.000 C 
ATOM     18  F   UNL     1       1.664   2.271  20.507  0.00  0.00    +0.000 F 
ATOM     19  F   UNL     1       0.463   4.064  20.250  0.00  0.00    +0.000 F 
ATOM     20  F   UNL     1       0.290   2.423  18.830  0.00  0.00    +0.000 F 
ENDBRANCH  13  17
BRANCH   1  22
ATOM     21  C   UNL     1      -0.251  10.615  22.473  0.00  0.00    +0.000 C 
ATOM     22  C   UNL     1      -0.795  10.525  21.040  0.00  0.00    +0.000 C 
BRANCH  22  23
ATOM     23  S   UNL     1      -1.605  12.118  20.570  0.00  0.00    +0.000 S 
BRANCH  23  24
ATOM     24  C   UNL     1      -1.191  13.125  21.905  0.00  0.00    +0.000 A 
ATOM     25  N   UNL     1      -0.126  13.881  22.022  0.00  0.00    +0.000 NA
ATOM     26  N   UNL     1      -0.239  14.581  23.202  0.00  0.00    +0.000 NA
ATOM     27  C   UNL     1      -1.368  14.221  23.772  0.00  0.00    +0.000 A 
ATOM     28  N   UNL     1      -1.988  13.283  23.003  0.00  0.00    +0.000 N 
ATOM     29  C   UNL     1      -3.241  12.641  23.298  0.00  0.00    +0.000 C 
ENDBRANCH  23  24
ENDBRANCH  22  23
ENDBRANCH   1  22
BRANCH   3  30
ATOM     30  N   UNL     1       2.449  12.168  17.785  0.00  0.00    +0.000 N 
ATOM     31  H   UNL     1       3.396  11.999  17.459  0.00  0.00    +0.000 HD
BRANCH  30  32
ATOM     32  C   UNL     1       2.201  13.505  18.331  0.00  0.00    +0.000 C 
ATOM     33  C   UNL     1       3.009  14.501  17.505  0.00  0.00    +0.000 C 
ATOM     34  C   UNL     1       4.336  14.573  18.229  0.00  0.00    +0.000 C 
ATOM     35  O   UNL     1       4.077  14.312  19.609  0.00  0.00    +0.000 OA
ATOM     36  C   UNL     1       2.752  13.751  19.732  0.00  0.00    +0.000 C 
ENDBRANCH  30  32
ENDBRANCH   3  30
TORSDOF 6
ENDMDL
