MODEL 1
REMARK VINA RESULT:      -8.9      0.000      0.000
REMARK  Name = 
REMARK  7 active torsions:
REMARK  status: ('A' for Active; 'I' for Inactive)
REMARK    1  A    between atoms: C_1  and  C_2
REMARK    2  A    between atoms: C_2  and  S_3
REMARK    3  A    between atoms: C_2  and  C_10
REMARK    4  A    between atoms: S_3  and  C_4
REMARK    5  A    between atoms: N_8  and  C_9
REMARK    6  A    between atoms: C_14  and  N_15
REMARK    7  A    between atoms: N_18  and  C_19
REMARK                            x       y       z     vdW  Elec       q    Type
REMARK                         _______ _______ _______ _____ _____    ______ ____
ROOT
ATOM      1  N   UNL     1       2.730   7.923  17.743  0.00  0.00    +0.000 N 
ATOM      2  C   UNL     1       3.132   6.737  18.316  0.00  0.00    +0.000 C 
ATOM      3  O   UNL     1       2.581   6.168  19.257  0.00  0.00    +0.000 OA
ATOM      4  N   UNL     1       4.308   6.233  17.778  0.00  0.00    +0.000 N 
ATOM      5  H   UNL     1       3.143   8.174  16.855  0.00  0.00    +0.000 HD
ATOM      6  H   UNL     1       4.410   6.307  16.776  0.00  0.00    +0.000 HD
ENDROOT
BRANCH   4   7
ATOM      7  C   UNL     1       4.875   5.039  18.416  0.00  0.00    +0.000 C 
ATOM      8  C   UNL     1       6.009   5.403  19.379  0.00  0.00    +0.000 C 
ATOM      9  C   UNL     1       7.316   5.709  18.654  0.00  0.00    +0.000 C 
ATOM     10  C   UNL     1       7.706   4.566  17.724  0.00  0.00    +0.000 C 
ATOM     11  N   UNL     1       6.609   4.259  16.814  0.00  0.00    +0.000 N 
ATOM     12  C   UNL     1       6.779   4.445  15.457  0.00  0.00    +0.000 A 
ATOM     13  C   UNL     1       6.085   3.675  14.528  0.00  0.00    +0.000 A 
ATOM     14  C   UNL     1       6.275   3.875  13.162  0.00  0.00    +0.000 A 
ATOM     15  C   UNL     1       7.160   4.850  12.767  0.00  0.00    +0.000 A 
ATOM     16  N   UNL     1       7.843   5.589  13.656  0.00  0.00    +0.000 NA
ATOM     17  N   UNL     1       7.654   5.371  15.003  0.00  0.00    +0.000 NA
ATOM     18  C   UNL     1       5.301   3.952  17.397  0.00  0.00    +0.000 C 
ENDBRANCH   4   7
BRANCH   1  23
ATOM     19  C   UNL     1       0.662   9.959  20.111  0.00  0.00    +0.000 A 
ATOM     20  C   UNL     1      -0.328  10.425  19.235  0.00  0.00    +0.000 A 
ATOM     21  C   UNL     1      -0.351  10.026  17.903  0.00  0.00    +0.000 A 
ATOM     22  C   UNL     1       0.644   9.190  17.412  0.00  0.00    +0.000 A 
ATOM     23  C   UNL     1       1.683   8.741  18.232  0.00  0.00    +0.000 A 
ATOM     24  C   UNL     1       1.664   9.102  19.586  0.00  0.00    +0.000 A 
BRANCH  19  26
ATOM     25  C   UNL     1       0.981   9.176  22.540  0.00  0.00    +0.000 C 
ATOM     26  C   UNL     1       0.688  10.354  21.595  0.00  0.00    +0.000 C 
BRANCH  26  27
ATOM     27  S   UNL     1      -0.916  11.149  22.033  0.00  0.00    +0.000 S 
BRANCH  27  28
ATOM     28  C   UNL     1      -0.482  12.804  22.255  0.00  0.00    +0.000 A 
ATOM     29  N   UNL     1       0.602  13.415  21.838  0.00  0.00    +0.000 NA
ATOM     30  N   UNL     1       0.573  14.702  22.335  0.00  0.00    +0.000 NA
ATOM     31  C   UNL     1      -0.540  14.838  23.020  0.00  0.00    +0.000 A 
ATOM     32  N   UNL     1      -1.257  13.681  22.958  0.00  0.00    +0.000 N 
ATOM     33  C   UNL     1      -2.557  13.456  23.531  0.00  0.00    +0.000 C 
ENDBRANCH  27  28
ENDBRANCH  26  27
ENDBRANCH  19  26
ENDBRANCH   1  23
TORSDOF 5
ENDMDL
MODEL 2
REMARK VINA RESULT:      -8.9      1.367      1.592
REMARK  Name = 
REMARK  7 active torsions:
REMARK  status: ('A' for Active; 'I' for Inactive)
REMARK    1  A    between atoms: C_1  and  C_2
REMARK    2  A    between atoms: C_2  and  S_3
REMARK    3  A    between atoms: C_2  and  C_10
REMARK    4  A    between atoms: S_3  and  C_4
REMARK    5  A    between atoms: N_8  and  C_9
REMARK    6  A    between atoms: C_14  and  N_15
REMARK    7  A    between atoms: N_18  and  C_19
REMARK                            x       y       z     vdW  Elec       q    Type
REMARK                         _______ _______ _______ _____ _____    ______ ____
ROOT
ATOM      1  N   UNL     1       2.760   7.977  17.736  0.00  0.00    +0.000 N 
ATOM      2  C   UNL     1       3.144   6.779  18.297  0.00  0.00    +0.000 C 
ATOM      3  O   UNL     1       2.539   6.169  19.176  0.00  0.00    +0.000 OA
ATOM      4  N   UNL     1       4.365   6.315  17.828  0.00  0.00    +0.000 N 
ATOM      5  H   UNL     1       3.229   8.266  16.889  0.00  0.00    +0.000 HD
ATOM      6  H   UNL     1       4.536   6.425  16.839  0.00  0.00    +0.000 HD
ENDROOT
BRANCH   4   7
ATOM      7  C   UNL     1       4.908   5.109  18.464  0.00  0.00    +0.000 C 
ATOM      8  C   UNL     1       6.064   5.449  19.411  0.00  0.00    +0.000 C 
ATOM      9  C   UNL     1       7.369   5.717  18.669  0.00  0.00    +0.000 C 
ATOM     10  C   UNL     1       7.717   4.561  17.740  0.00  0.00    +0.000 C 
ATOM     11  N   UNL     1       6.601   4.278  16.845  0.00  0.00    +0.000 N 
ATOM     12  C   UNL     1       6.760   4.453  15.485  0.00  0.00    +0.000 A 
ATOM     13  C   UNL     1       6.035   3.698  14.568  0.00  0.00    +0.000 A 
ATOM     14  C   UNL     1       6.213   3.886  13.199  0.00  0.00    +0.000 A 
ATOM     15  C   UNL     1       7.118   4.837  12.789  0.00  0.00    +0.000 A 
ATOM     16  N   UNL     1       7.831   5.562  13.665  0.00  0.00    +0.000 NA
ATOM     17  N   UNL     1       7.653   5.355  15.016  0.00  0.00    +0.000 NA
ATOM     18  C   UNL     1       5.294   4.008  17.445  0.00  0.00    +0.000 C 
ENDBRANCH   4   7
BRANCH   1  23
ATOM     19  C   UNL     1       0.592  10.066  19.965  0.00  0.00    +0.000 A 
ATOM     20  C   UNL     1      -0.445  10.381  19.075  0.00  0.00    +0.000 A 
ATOM     21  C   UNL     1      -0.462   9.864  17.784  0.00  0.00    +0.000 A 
ATOM     22  C   UNL     1       0.582   9.059  17.345  0.00  0.00    +0.000 A 
ATOM     23  C   UNL     1       1.665   8.760  18.177  0.00  0.00    +0.000 A 
ATOM     24  C   UNL     1       1.644   9.239  19.493  0.00  0.00    +0.000 A 
BRANCH  19  26
ATOM     25  C   UNL     1      -0.029   9.634  22.423  0.00  0.00    +0.000 C 
ATOM     26  C   UNL     1       0.615  10.593  21.407  0.00  0.00    +0.000 C 
BRANCH  26  27
ATOM     27  S   UNL     1      -0.213  12.239  21.459  0.00  0.00    +0.000 S 
BRANCH  27  28
ATOM     28  C   UNL     1       1.019  13.312  20.905  0.00  0.00    +0.000 A 
ATOM     29  N   UNL     1       2.169  13.581  21.477  0.00  0.00    +0.000 NA
ATOM     30  N   UNL     1       2.781  14.572  20.736  0.00  0.00    +0.000 NA
ATOM     31  C   UNL     1       1.991  14.857  19.725  0.00  0.00    +0.000 A 
ATOM     32  N   UNL     1       0.891  14.055  19.767  0.00  0.00    +0.000 N 
ATOM     33  C   UNL     1      -0.174  14.024  18.800  0.00  0.00    +0.000 C 
ENDBRANCH  27  28
ENDBRANCH  26  27
ENDBRANCH  19  26
ENDBRANCH   1  23
TORSDOF 5
ENDMDL
MODEL 3
REMARK VINA RESULT:      -8.8      2.821      3.532
REMARK  Name = 
REMARK  7 active torsions:
REMARK  status: ('A' for Active; 'I' for Inactive)
REMARK    1  A    between atoms: C_1  and  C_2
REMARK    2  A    between atoms: C_2  and  S_3
REMARK    3  A    between atoms: C_2  and  C_10
REMARK    4  A    between atoms: S_3  and  C_4
REMARK    5  A    between atoms: N_8  and  C_9
REMARK    6  A    between atoms: C_14  and  N_15
REMARK    7  A    between atoms: N_18  and  C_19
REMARK                            x       y       z     vdW  Elec       q    Type
REMARK                         _______ _______ _______ _____ _____    ______ ____
ROOT
ATOM      1  N   UNL     1       2.502   8.292  17.420  0.00  0.00    +0.000 N 
ATOM      2  C   UNL     1       2.774   7.131  18.110  0.00  0.00    +0.000 C 
ATOM      3  O   UNL     1       2.282   6.802  19.187  0.00  0.00    +0.000 OA
ATOM      4  N   UNL     1       3.749   6.346  17.510  0.00  0.00    +0.000 N 
ATOM      5  H   UNL     1       2.813   8.345  16.459  0.00  0.00    +0.000 HD
ATOM      6  H   UNL     1       3.709   6.274  16.503  0.00  0.00    +0.000 HD
ENDROOT
BRANCH   4   7
ATOM      7  C   UNL     1       4.189   5.154  18.243  0.00  0.00    +0.000 C 
ATOM      8  C   UNL     1       5.191   5.513  19.346  0.00  0.00    +0.000 C 
ATOM      9  C   UNL     1       6.593   5.768  18.802  0.00  0.00    +0.000 C 
ATOM     10  C   UNL     1       7.074   4.594  17.958  0.00  0.00    +0.000 C 
ATOM     11  N   UNL     1       6.104   4.293  16.911  0.00  0.00    +0.000 N 
ATOM     12  C   UNL     1       6.464   4.442  15.588  0.00  0.00    +0.000 A 
ATOM     13  C   UNL     1       5.883   3.668  14.587  0.00  0.00    +0.000 A 
ATOM     14  C   UNL     1       6.263   3.830  13.257  0.00  0.00    +0.000 A 
ATOM     15  C   UNL     1       7.222   4.773  12.968  0.00  0.00    +0.000 A 
ATOM     16  N   UNL     1       7.797   5.516  13.927  0.00  0.00    +0.000 NA
ATOM     17  N   UNL     1       7.418   5.335  15.240  0.00  0.00    +0.000 NA
ATOM     18  C   UNL     1       4.720   4.033  17.315  0.00  0.00    +0.000 C 
ENDBRANCH   4   7
BRANCH   1  23
ATOM     19  C   UNL     1      -0.534  10.333  18.223  0.00  0.00    +0.000 A 
ATOM     20  C   UNL     1       0.060  11.390  18.928  0.00  0.00    +0.000 A 
ATOM     21  C   UNL     1       1.440  11.462  19.081  0.00  0.00    +0.000 A 
ATOM     22  C   UNL     1       2.249  10.454  18.572  0.00  0.00    +0.000 A 
ATOM     23  C   UNL     1       1.701   9.352  17.909  0.00  0.00    +0.000 A 
ATOM     24  C   UNL     1       0.314   9.317  17.710  0.00  0.00    +0.000 A 
BRANCH  19  26
ATOM     25  C   UNL     1      -2.448   9.813  16.586  0.00  0.00    +0.000 C 
ATOM     26  C   UNL     1      -2.052  10.250  18.007  0.00  0.00    +0.000 C 
BRANCH  26  27
ATOM     27  S   UNL     1      -2.808  11.880  18.414  0.00  0.00    +0.000 S 
BRANCH  27  28
ATOM     28  C   UNL     1      -4.480  11.500  18.600  0.00  0.00    +0.000 A 
ATOM     29  N   UNL     1      -5.237  10.789  17.797  0.00  0.00    +0.000 NA
ATOM     30  N   UNL     1      -6.526  10.838  18.289  0.00  0.00    +0.000 NA
ATOM     31  C   UNL     1      -6.505  11.559  19.388  0.00  0.00    +0.000 A 
ATOM     32  N   UNL     1      -5.228  11.958  19.645  0.00  0.00    +0.000 N 
ATOM     33  C   UNL     1      -4.790  12.712  20.789  0.00  0.00    +0.000 C 
ENDBRANCH  27  28
ENDBRANCH  26  27
ENDBRANCH  19  26
ENDBRANCH   1  23
TORSDOF 5
ENDMDL
MODEL 4
REMARK VINA RESULT:      -8.6      1.823      2.223
REMARK  Name = 
REMARK  7 active torsions:
REMARK  status: ('A' for Active; 'I' for Inactive)
REMARK    1  A    between atoms: C_1  and  C_2
REMARK    2  A    between atoms: C_2  and  S_3
REMARK    3  A    between atoms: C_2  and  C_10
REMARK    4  A    between atoms: S_3  and  C_4
REMARK    5  A    between atoms: N_8  and  C_9
REMARK    6  A    between atoms: C_14  and  N_15
REMARK    7  A    between atoms: N_18  and  C_19
REMARK                            x       y       z     vdW  Elec       q    Type
REMARK                         _______ _______ _______ _____ _____    ______ ____
ROOT
ATOM      1  N   UNL     1       2.623   8.165  17.488  0.00  0.00    +0.000 N 
ATOM      2  C   UNL     1       2.957   6.983  18.111  0.00  0.00    +0.000 C 
ATOM      3  O   UNL     1       2.358   6.473  19.056  0.00  0.00    +0.000 OA
ATOM      4  N   UNL     1       4.120   6.407  17.619  0.00  0.00    +0.000 N 
ATOM      5  H   UNL     1       3.068   8.366  16.603  0.00  0.00    +0.000 HD
ATOM      6  H   UNL     1       4.248   6.442  16.618  0.00  0.00    +0.000 HD
ENDROOT
BRANCH   4   7
ATOM      7  C   UNL     1       4.615   5.211  18.311  0.00  0.00    +0.000 C 
ATOM      8  C   UNL     1       5.706   5.563  19.327  0.00  0.00    +0.000 C 
ATOM      9  C   UNL     1       7.059   5.816  18.670  0.00  0.00    +0.000 C 
ATOM     10  C   UNL     1       7.465   4.643  17.785  0.00  0.00    +0.000 C 
ATOM     11  N   UNL     1       6.410   4.348  16.822  0.00  0.00    +0.000 N 
ATOM     12  C   UNL     1       6.660   4.500  15.474  0.00  0.00    +0.000 A 
ATOM     13  C   UNL     1       5.995   3.732  14.523  0.00  0.00    +0.000 A 
ATOM     14  C   UNL     1       6.265   3.896  13.166  0.00  0.00    +0.000 A 
ATOM     15  C   UNL     1       7.199   4.838  12.801  0.00  0.00    +0.000 A 
ATOM     16  N   UNL     1       7.854   5.576  13.711  0.00  0.00    +0.000 NA
ATOM     17  N   UNL     1       7.585   5.392  15.051  0.00  0.00    +0.000 NA
ATOM     18  C   UNL     1       5.064   4.092  17.338  0.00  0.00    +0.000 C 
ENDBRANCH   4   7
BRANCH   1  23
ATOM     19  C   UNL     1       0.920  10.945  19.334  0.00  0.00    +0.000 A 
ATOM     20  C   UNL     1      -0.359  10.870  18.765  0.00  0.00    +0.000 A 
ATOM     21  C   UNL     1      -0.673   9.883  17.838  0.00  0.00    +0.000 A 
ATOM     22  C   UNL     1       0.300   8.981  17.427  0.00  0.00    +0.000 A 
ATOM     23  C   UNL     1       1.605   9.047  17.924  0.00  0.00    +0.000 A 
ATOM     24  C   UNL     1       1.896  10.009  18.901  0.00  0.00    +0.000 A 
BRANCH  19  26
ATOM     25  C   UNL     1       0.058  12.649  21.056  0.00  0.00    +0.000 C 
ATOM     26  C   UNL     1       1.283  12.001  20.388  0.00  0.00    +0.000 C 
BRANCH  26  27
ATOM     27  S   UNL     1       2.348  13.287  19.609  0.00  0.00    +0.000 S 
BRANCH  27  28
ATOM     28  C   UNL     1       2.938  14.177  20.963  0.00  0.00    +0.000 A 
ATOM     29  N   UNL     1       3.773  13.771  21.891  0.00  0.00    +0.000 NA
ATOM     30  N   UNL     1       3.876  14.778  22.829  0.00  0.00    +0.000 NA
ATOM     31  C   UNL     1       3.116  15.772  22.429  0.00  0.00    +0.000 A 
ATOM     32  N   UNL     1       2.543  15.455  21.235  0.00  0.00    +0.000 N 
ATOM     33  C   UNL     1       1.694  16.308  20.448  0.00  0.00    +0.000 C 
ENDBRANCH  27  28
ENDBRANCH  26  27
ENDBRANCH  19  26
ENDBRANCH   1  23
TORSDOF 5
ENDMDL
MODEL 5
REMARK VINA RESULT:      -8.6      2.722      3.144
REMARK  Name = 
REMARK  7 active torsions:
REMARK  status: ('A' for Active; 'I' for Inactive)
REMARK    1  A    between atoms: C_1  and  C_2
REMARK    2  A    between atoms: C_2  and  S_3
REMARK    3  A    between atoms: C_2  and  C_10
REMARK    4  A    between atoms: S_3  and  C_4
REMARK    5  A    between atoms: N_8  and  C_9
REMARK    6  A    between atoms: C_14  and  N_15
REMARK    7  A    between atoms: N_18  and  C_19
REMARK                            x       y       z     vdW  Elec       q    Type
REMARK                         _______ _______ _______ _____ _____    ______ ____
ROOT
ATOM      1  N   UNL     1       2.816   8.392  17.425  0.00  0.00    +0.000 N 
ATOM      2  C   UNL     1       3.083   7.192  18.045  0.00  0.00    +0.000 C 
ATOM      3  O   UNL     1       2.447   6.707  18.980  0.00  0.00    +0.000 OA
ATOM      4  N   UNL     1       4.223   6.562  17.566  0.00  0.00    +0.000 N 
ATOM      5  H   UNL     1       3.282   8.576  16.547  0.00  0.00    +0.000 HD
ATOM      6  H   UNL     1       4.366   6.596  16.567  0.00  0.00    +0.000 HD
ENDROOT
BRANCH   4   7
ATOM      7  C   UNL     1       4.650   5.340  18.256  0.00  0.00    +0.000 C 
ATOM      8  C   UNL     1       5.746   5.632  19.286  0.00  0.00    +0.000 C 
ATOM      9  C   UNL     1       7.117   5.819  18.644  0.00  0.00    +0.000 C 
ATOM     10  C   UNL     1       7.472   4.631  17.758  0.00  0.00    +0.000 C 
ATOM     11  N   UNL     1       6.414   4.394  16.782  0.00  0.00    +0.000 N 
ATOM     12  C   UNL     1       6.686   4.539  15.438  0.00  0.00    +0.000 A 
ATOM     13  C   UNL     1       5.993   3.808  14.476  0.00  0.00    +0.000 A 
ATOM     14  C   UNL     1       6.285   3.965  13.123  0.00  0.00    +0.000 A 
ATOM     15  C   UNL     1       7.269   4.860  12.772  0.00  0.00    +0.000 A 
ATOM     16  N   UNL     1       7.951   5.560  13.693  0.00  0.00    +0.000 NA
ATOM     17  N   UNL     1       7.659   5.384  15.028  0.00  0.00    +0.000 NA
ATOM     18  C   UNL     1       5.051   4.203  17.283  0.00  0.00    +0.000 C 
ENDBRANCH   4   7
BRANCH   1  23
ATOM     19  C   UNL     1       1.293  11.531  18.790  0.00  0.00    +0.000 A 
ATOM     20  C   UNL     1      -0.068  11.228  18.643  0.00  0.00    +0.000 A 
ATOM     21  C   UNL     1      -0.477   9.988  18.163  0.00  0.00    +0.000 A 
ATOM     22  C   UNL     1       0.468   9.047  17.777  0.00  0.00    +0.000 A 
ATOM     23  C   UNL     1       1.836   9.321  17.853  0.00  0.00    +0.000 A 
ATOM     24  C   UNL     1       2.239  10.550  18.392  0.00  0.00    +0.000 A 
BRANCH  19  26
ATOM     25  C   UNL     1       0.631  13.879  19.603  0.00  0.00    +0.000 C 
ATOM     26  C   UNL     1       1.771  12.877  19.353  0.00  0.00    +0.000 C 
BRANCH  26  27
ATOM     27  S   UNL     1       3.023  13.597  18.209  0.00  0.00    +0.000 S 
BRANCH  27  28
ATOM     28  C   UNL     1       3.124  15.240  18.725  0.00  0.00    +0.000 A 
ATOM     29  N   UNL     1       2.602  16.297  18.150  0.00  0.00    +0.000 NA
ATOM     30  N   UNL     1       3.029  17.407  18.852  0.00  0.00    +0.000 NA
ATOM     31  C   UNL     1       3.779  16.984  19.844  0.00  0.00    +0.000 A 
ATOM     32  N   UNL     1       3.828  15.623  19.830  0.00  0.00    +0.000 N 
ATOM     33  C   UNL     1       4.499  14.788  20.790  0.00  0.00    +0.000 C 
ENDBRANCH  27  28
ENDBRANCH  26  27
ENDBRANCH  19  26
ENDBRANCH   1  23
TORSDOF 5
ENDMDL
MODEL 6
REMARK VINA RESULT:      -8.5      3.262      4.449
REMARK  Name = 
REMARK  7 active torsions:
REMARK  status: ('A' for Active; 'I' for Inactive)
REMARK    1  A    between atoms: C_1  and  C_2
REMARK    2  A    between atoms: C_2  and  S_3
REMARK    3  A    between atoms: C_2  and  C_10
REMARK    4  A    between atoms: S_3  and  C_4
REMARK    5  A    between atoms: N_8  and  C_9
REMARK    6  A    between atoms: C_14  and  N_15
REMARK    7  A    between atoms: N_18  and  C_19
REMARK                            x       y       z     vdW  Elec       q    Type
REMARK                         _______ _______ _______ _____ _____    ______ ____
ROOT
ATOM      1  N   UNL     1       1.777   8.173  21.587  0.00  0.00    +0.000 N 
ATOM      2  C   UNL     1       1.575   7.333  20.514  0.00  0.00    +0.000 C 
ATOM      3  O   UNL     1       0.750   7.497  19.617  0.00  0.00    +0.000 OA
ATOM      4  N   UNL     1       2.359   6.189  20.551  0.00  0.00    +0.000 N 
ATOM      5  H   UNL     1       2.615   8.034  22.135  0.00  0.00    +0.000 HD
ATOM      6  H   UNL     1       3.314   6.310  20.855  0.00  0.00    +0.000 HD
ENDROOT
BRANCH   4   7
ATOM      7  C   UNL     1       2.116   5.181  19.513  0.00  0.00    +0.000 C 
ATOM      8  C   UNL     1       1.973   3.779  20.115  0.00  0.00    +0.000 C 
ATOM      9  C   UNL     1       3.317   3.161  20.485  0.00  0.00    +0.000 C 
ATOM     10  C   UNL     1       4.270   3.173  19.295  0.00  0.00    +0.000 C 
ATOM     11  N   UNL     1       4.393   4.524  18.760  0.00  0.00    +0.000 N 
ATOM     12  C   UNL     1       5.614   5.164  18.807  0.00  0.00    +0.000 A 
ATOM     13  C   UNL     1       5.967   6.121  17.860  0.00  0.00    +0.000 A 
ATOM     14  C   UNL     1       7.207   6.754  17.921  0.00  0.00    +0.000 A 
ATOM     15  C   UNL     1       8.061   6.405  18.941  0.00  0.00    +0.000 A 
ATOM     16  N   UNL     1       7.735   5.475  19.852  0.00  0.00    +0.000 NA
ATOM     17  N   UNL     1       6.510   4.849  19.770  0.00  0.00    +0.000 NA
ATOM     18  C   UNL     1       3.165   5.221  18.373  0.00  0.00    +0.000 C 
ENDBRANCH   4   7
BRANCH   1  23
ATOM     19  C   UNL     1       0.275  11.597  21.357  0.00  0.00    +0.000 A 
ATOM     20  C   UNL     1      -0.649  11.531  22.409  0.00  0.00    +0.000 A 
ATOM     21  C   UNL     1      -0.732  10.404  23.219  0.00  0.00    +0.000 A 
ATOM     22  C   UNL     1       0.075   9.303  22.963  0.00  0.00    +0.000 A 
ATOM     23  C   UNL     1       0.975   9.299  21.893  0.00  0.00    +0.000 A 
ATOM     24  C   UNL     1       1.092  10.461  21.118  0.00  0.00    +0.000 A 
BRANCH  19  26
ATOM     25  C   UNL     1       1.046  14.045  21.196  0.00  0.00    +0.000 C 
ATOM     26  C   UNL     1       0.415  12.844  20.472  0.00  0.00    +0.000 C 
BRANCH  26  27
ATOM     27  S   UNL     1      -1.242  13.293  19.802  0.00  0.00    +0.000 S 
BRANCH  27  28
ATOM     28  C   UNL     1      -1.659  11.922  18.842  0.00  0.00    +0.000 A 
ATOM     29  N   UNL     1      -0.851  11.123  18.186  0.00  0.00    +0.000 NA
ATOM     30  N   UNL     1      -1.630  10.233  17.475  0.00  0.00    +0.000 NA
ATOM     31  C   UNL     1      -2.888  10.507  17.740  0.00  0.00    +0.000 A 
ATOM     32  N   UNL     1      -2.951  11.534  18.632  0.00  0.00    +0.000 N 
ATOM     33  C   UNL     1      -4.148  12.082  19.212  0.00  0.00    +0.000 C 
ENDBRANCH  27  28
ENDBRANCH  26  27
ENDBRANCH  19  26
ENDBRANCH   1  23
TORSDOF 5
ENDMDL
MODEL 7
REMARK VINA RESULT:      -8.4      0.863      1.141
REMARK  Name = 
REMARK  7 active torsions:
REMARK  status: ('A' for Active; 'I' for Inactive)
REMARK    1  A    between atoms: C_1  and  C_2
REMARK    2  A    between atoms: C_2  and  S_3
REMARK    3  A    between atoms: C_2  and  C_10
REMARK    4  A    between atoms: S_3  and  C_4
REMARK    5  A    between atoms: N_8  and  C_9
REMARK    6  A    between atoms: C_14  and  N_15
REMARK    7  A    between atoms: N_18  and  C_19
REMARK                            x       y       z     vdW  Elec       q    Type
REMARK                         _______ _______ _______ _____ _____    ______ ____
ROOT
ATOM      1  N   UNL     1       2.665   8.023  17.664  0.00  0.00    +0.000 N 
ATOM      2  C   UNL     1       3.046   6.837  18.252  0.00  0.00    +0.000 C 
ATOM      3  O   UNL     1       2.450   6.259  19.159  0.00  0.00    +0.000 OA
ATOM      4  N   UNL     1       4.253   6.346  17.776  0.00  0.00    +0.000 N 
ATOM      5  H   UNL     1       3.123   8.282  16.801  0.00  0.00    +0.000 HD
ATOM      6  H   UNL     1       4.408   6.426  16.781  0.00  0.00    +0.000 HD
ENDROOT
BRANCH   4   7
ATOM      7  C   UNL     1       4.795   5.153  18.437  0.00  0.00    +0.000 C 
ATOM      8  C   UNL     1       5.922   5.515  19.409  0.00  0.00    +0.000 C 
ATOM      9  C   UNL     1       7.242   5.791  18.697  0.00  0.00    +0.000 C 
ATOM     10  C   UNL     1       7.627   4.630  17.788  0.00  0.00    +0.000 C 
ATOM     11  N   UNL     1       6.537   4.326  16.868  0.00  0.00    +0.000 N 
ATOM     12  C   UNL     1       6.727   4.491  15.511  0.00  0.00    +0.000 A 
ATOM     13  C   UNL     1       6.034   3.718  14.584  0.00  0.00    +0.000 A 
ATOM     14  C   UNL     1       6.244   3.896  13.218  0.00  0.00    +0.000 A 
ATOM     15  C   UNL     1       7.148   4.854  12.821  0.00  0.00    +0.000 A 
ATOM     16  N   UNL     1       7.830   5.595  13.708  0.00  0.00    +0.000 NA
ATOM     17  N   UNL     1       7.621   5.398  15.056  0.00  0.00    +0.000 NA
ATOM     18  C   UNL     1       5.218   4.046  17.439  0.00  0.00    +0.000 C 
ENDBRANCH   4   7
BRANCH   1  23
ATOM     19  C   UNL     1       0.618  10.306  19.815  0.00  0.00    +0.000 A 
ATOM     20  C   UNL     1      -0.490  10.503  18.979  0.00  0.00    +0.000 A 
ATOM     21  C   UNL     1      -0.591   9.847  17.758  0.00  0.00    +0.000 A 
ATOM     22  C   UNL     1       0.436   9.017  17.329  0.00  0.00    +0.000 A 
ATOM     23  C   UNL     1       1.587   8.830  18.101  0.00  0.00    +0.000 A 
ATOM     24  C   UNL     1       1.653   9.451  19.356  0.00  0.00    +0.000 A 
BRANCH  19  26
ATOM     25  C   UNL     1      -0.356  10.563  22.182  0.00  0.00    +0.000 C 
ATOM     26  C   UNL     1       0.736  10.989  21.186  0.00  0.00    +0.000 C 
BRANCH  26  27
ATOM     27  S   UNL     1       0.715  12.817  20.950  0.00  0.00    +0.000 S 
BRANCH  27  28
ATOM     28  C   UNL     1      -0.517  13.336  22.040  0.00  0.00    +0.000 A 
ATOM     29  N   UNL     1      -0.386  13.665  23.304  0.00  0.00    +0.000 NA
ATOM     30  N   UNL     1      -1.649  13.911  23.803  0.00  0.00    +0.000 NA
ATOM     31  C   UNL     1      -2.504  13.744  22.819  0.00  0.00    +0.000 A 
ATOM     32  N   UNL     1      -1.830  13.427  21.679  0.00  0.00    +0.000 N 
ATOM     33  C   UNL     1      -2.410  13.226  20.378  0.00  0.00    +0.000 C 
ENDBRANCH  27  28
ENDBRANCH  26  27
ENDBRANCH  19  26
ENDBRANCH   1  23
TORSDOF 5
ENDMDL
MODEL 8
REMARK VINA RESULT:      -8.4      2.673      3.053
REMARK  Name = 
REMARK  7 active torsions:
REMARK  status: ('A' for Active; 'I' for Inactive)
REMARK    1  A    between atoms: C_1  and  C_2
REMARK    2  A    between atoms: C_2  and  S_3
REMARK    3  A    between atoms: C_2  and  C_10
REMARK    4  A    between atoms: S_3  and  C_4
REMARK    5  A    between atoms: N_8  and  C_9
REMARK    6  A    between atoms: C_14  and  N_15
REMARK    7  A    between atoms: N_18  and  C_19
REMARK                            x       y       z     vdW  Elec       q    Type
REMARK                         _______ _______ _______ _____ _____    ______ ____
ROOT
ATOM      1  N   UNL     1       2.798   8.353  17.422  0.00  0.00    +0.000 N 
ATOM      2  C   UNL     1       3.096   7.174  18.069  0.00  0.00    +0.000 C 
ATOM      3  O   UNL     1       2.522   6.735  19.064  0.00  0.00    +0.000 OA
ATOM      4  N   UNL     1       4.193   6.512  17.537  0.00  0.00    +0.000 N 
ATOM      5  H   UNL     1       3.203   8.496  16.506  0.00  0.00    +0.000 HD
ATOM      6  H   UNL     1       4.266   6.505  16.529  0.00  0.00    +0.000 HD
ENDROOT
BRANCH   4   7
ATOM      7  C   UNL     1       4.655   5.312  18.244  0.00  0.00    +0.000 C 
ATOM      8  C   UNL     1       5.745   5.650  19.267  0.00  0.00    +0.000 C 
ATOM      9  C   UNL     1       7.109   5.866  18.619  0.00  0.00    +0.000 C 
ATOM     10  C   UNL     1       7.496   4.675  17.750  0.00  0.00    +0.000 C 
ATOM     11  N   UNL     1       6.443   4.394  16.780  0.00  0.00    +0.000 N 
ATOM     12  C   UNL     1       6.708   4.527  15.433  0.00  0.00    +0.000 A 
ATOM     13  C   UNL     1       6.034   3.763  14.484  0.00  0.00    +0.000 A 
ATOM     14  C   UNL     1       6.319   3.908  13.128  0.00  0.00    +0.000 A 
ATOM     15  C   UNL     1       7.277   4.825  12.762  0.00  0.00    +0.000 A 
ATOM     16  N   UNL     1       7.941   5.557  13.670  0.00  0.00    +0.000 NA
ATOM     17  N   UNL     1       7.657   5.393  15.009  0.00  0.00    +0.000 NA
ATOM     18  C   UNL     1       5.087   4.173  17.287  0.00  0.00    +0.000 C 
ENDBRANCH   4   7
BRANCH   1  23
ATOM     19  C   UNL     1       1.414  11.502  18.906  0.00  0.00    +0.000 A 
ATOM     20  C   UNL     1       0.042  11.273  18.731  0.00  0.00    +0.000 A 
ATOM     21  C   UNL     1      -0.422  10.077  18.194  0.00  0.00    +0.000 A 
ATOM     22  C   UNL     1       0.480   9.107  17.777  0.00  0.00    +0.000 A 
ATOM     23  C   UNL     1       1.860   9.310  17.879  0.00  0.00    +0.000 A 
ATOM     24  C   UNL     1       2.316  10.493  18.475  0.00  0.00    +0.000 A 
BRANCH  19  26
ATOM     25  C   UNL     1       0.898  13.568  20.347  0.00  0.00    +0.000 C 
ATOM     26  C   UNL     1       1.951  12.797  19.532  0.00  0.00    +0.000 C 
BRANCH  26  27
ATOM     27  S   UNL     1       2.646  13.865  18.202  0.00  0.00    +0.000 S 
BRANCH  27  28
ATOM     28  C   UNL     1       3.458  15.106  19.083  0.00  0.00    +0.000 A 
ATOM     29  N   UNL     1       4.557  15.001  19.793  0.00  0.00    +0.000 NA
ATOM     30  N   UNL     1       4.776  16.220  20.403  0.00  0.00    +0.000 NA
ATOM     31  C   UNL     1       3.814  17.031  20.026  0.00  0.00    +0.000 A 
ATOM     32  N   UNL     1       2.988  16.385  19.158  0.00  0.00    +0.000 N 
ATOM     33  C   UNL     1       1.855  16.956  18.480  0.00  0.00    +0.000 C 
ENDBRANCH  27  28
ENDBRANCH  26  27
ENDBRANCH  19  26
ENDBRANCH   1  23
TORSDOF 5
ENDMDL
MODEL 9
REMARK VINA RESULT:      -8.4      2.401      2.739
REMARK  Name = 
REMARK  7 active torsions:
REMARK  status: ('A' for Active; 'I' for Inactive)
REMARK    1  A    between atoms: C_1  and  C_2
REMARK    2  A    between atoms: C_2  and  S_3
REMARK    3  A    between atoms: C_2  and  C_10
REMARK    4  A    between atoms: S_3  and  C_4
REMARK    5  A    between atoms: N_8  and  C_9
REMARK    6  A    between atoms: C_14  and  N_15
REMARK    7  A    between atoms: N_18  and  C_19
REMARK                            x       y       z     vdW  Elec       q    Type
REMARK                         _______ _______ _______ _____ _____    ______ ____
ROOT
ATOM      1  N   UNL     1       2.731   8.244  17.458  0.00  0.00    +0.000 N 
ATOM      2  C   UNL     1       3.048   7.057  18.080  0.00  0.00    +0.000 C 
ATOM      3  O   UNL     1       2.415   6.531  18.994  0.00  0.00    +0.000 OA
ATOM      4  N   UNL     1       4.236   6.496  17.630  0.00  0.00    +0.000 N 
ATOM      5  H   UNL     1       3.210   8.459  16.595  0.00  0.00    +0.000 HD
ATOM      6  H   UNL     1       4.404   6.544  16.636  0.00  0.00    +0.000 HD
ENDROOT
BRANCH   4   7
ATOM      7  C   UNL     1       4.712   5.296  18.327  0.00  0.00    +0.000 C 
ATOM      8  C   UNL     1       5.820   5.633  19.330  0.00  0.00    +0.000 C 
ATOM      9  C   UNL     1       7.171   5.851  18.657  0.00  0.00    +0.000 C 
ATOM     10  C   UNL     1       7.543   4.662  17.779  0.00  0.00    +0.000 C 
ATOM     11  N   UNL     1       6.473   4.382  16.829  0.00  0.00    +0.000 N 
ATOM     12  C   UNL     1       6.713   4.517  15.477  0.00  0.00    +0.000 A 
ATOM     13  C   UNL     1       6.022   3.755  14.539  0.00  0.00    +0.000 A 
ATOM     14  C   UNL     1       6.282   3.902  13.178  0.00  0.00    +0.000 A 
ATOM     15  C   UNL     1       7.232   4.821  12.796  0.00  0.00    +0.000 A 
ATOM     16  N   UNL     1       7.912   5.552  13.693  0.00  0.00    +0.000 NA
ATOM     17  N   UNL     1       7.653   5.385  15.037  0.00  0.00    +0.000 NA
ATOM     18  C   UNL     1       5.127   4.159  17.360  0.00  0.00    +0.000 C 
ENDBRANCH   4   7
BRANCH   1  23
ATOM     19  C   UNL     1       0.969  11.102  19.122  0.00  0.00    +0.000 A 
ATOM     20  C   UNL     1      -0.329  10.909  18.631  0.00  0.00    +0.000 A 
ATOM     21  C   UNL     1      -0.634   9.823  17.818  0.00  0.00    +0.000 A 
ATOM     22  C   UNL     1       0.366   8.934  17.443  0.00  0.00    +0.000 A 
ATOM     23  C   UNL     1       1.688   9.113  17.863  0.00  0.00    +0.000 A 
ATOM     24  C   UNL     1       1.973  10.177  18.728  0.00  0.00    +0.000 A 
BRANCH  19  26
ATOM     25  C   UNL     1       0.431  12.355  21.303  0.00  0.00    +0.000 C 
ATOM     26  C   UNL     1       1.324  12.271  20.052  0.00  0.00    +0.000 C 
BRANCH  26  27
ATOM     27  S   UNL     1       1.243  13.844  19.096  0.00  0.00    +0.000 S 
BRANCH  27  28
ATOM     28  C   UNL     1       2.878  14.395  19.114  0.00  0.00    +0.000 A 
ATOM     29  N   UNL     1       3.766  14.309  18.152  0.00  0.00    +0.000 NA
ATOM     30  N   UNL     1       4.965  14.782  18.648  0.00  0.00    +0.000 NA
ATOM     31  C   UNL     1       4.759  15.160  19.889  0.00  0.00    +0.000 A 
ATOM     32  N   UNL     1       3.448  14.976  20.210  0.00  0.00    +0.000 N 
ATOM     33  C   UNL     1       2.822  15.326  21.456  0.00  0.00    +0.000 C 
ENDBRANCH  27  28
ENDBRANCH  26  27
ENDBRANCH  19  26
ENDBRANCH   1  23
TORSDOF 5
ENDMDL
