MODEL 1
REMARK VINA RESULT:      -9.5      0.000      0.000
REMARK  Name = 
REMARK  9 active torsions:
REMARK  status: ('A' for Active; 'I' for Inactive)
REMARK    1  A    between atoms: C_1  and  N_2
REMARK    2  A    between atoms: C_6  and  C_7
REMARK    3  A    between atoms: C_7  and  C_8
REMARK    4  A    between atoms: C_8  and  C_9
REMARK    5  A    between atoms: C_13  and  N_14
REMARK    6  A    between atoms: C_19  and  C_20
REMARK    7  A    between atoms: C_20  and  C_23
REMARK    8  A    between atoms: C_23  and  O_24
REMARK    9  A    between atoms: C_26  and  C_27
REMARK                            x       y       z     vdW  Elec       q    Type
REMARK                         _______ _______ _______ _____ _____    ______ ____
ROOT
ATOM      1  N   UNL     1       2.323   7.377  19.405  0.00  0.00    +0.000 N 
ATOM      2  C   UNL     1       1.563   7.723  20.588  0.00  0.00    +0.000 C 
ATOM      3  C   UNL     1       0.968   9.040  20.265  0.00  0.00    +0.000 A 
ATOM      4  C   UNL     1       1.279   9.386  18.955  0.00  0.00    +0.000 A 
ATOM      5  C   UNL     1       0.796  10.549  18.386  0.00  0.00    +0.000 A 
ATOM      6  C   UNL     1      -0.024  11.381  19.179  0.00  0.00    +0.000 A 
ATOM      7  C   UNL     1      -0.288  11.036  20.529  0.00  0.00    +0.000 A 
ATOM      8  C   UNL     1       0.210   9.856  21.097  0.00  0.00    +0.000 A 
ATOM      9  C   UNL     1       2.173   8.332  18.398  0.00  0.00    +0.000 C 
ATOM     10  O   UNL     1       2.647   8.391  17.283  0.00  0.00    +0.000 OA
ENDROOT
BRANCH   1  15
ATOM     11  C   UNL     1       5.394   5.293  18.847  0.00  0.00    +0.000 A 
ATOM     12  C   UNL     1       4.915   4.041  19.250  0.00  0.00    +0.000 A 
ATOM     13  C   UNL     1       3.611   3.879  19.749  0.00  0.00    +0.000 A 
ATOM     14  C   UNL     1       2.731   4.967  19.838  0.00  0.00    +0.000 A 
ATOM     15  C   UNL     1       3.153   6.226  19.433  0.00  0.00    +0.000 A 
ATOM     16  C   UNL     1       4.480   6.351  18.976  0.00  0.00    +0.000 A 
BRANCH  11  17
ATOM     17  C   UNL     1       6.875   5.580  18.268  0.00  0.00    +0.000 C 
ATOM     18  C   UNL     1       7.940   5.992  19.317  0.00  0.00    +0.000 C 
ATOM     19  O   UNL     1       8.194   7.252  18.669  0.00  0.00    +0.000 OA
ATOM     20  C   UNL     1       7.164   7.000  17.690  0.00  0.00    +0.000 C 
BRANCH  17  21
ATOM     21  C   UNL     1       7.352   4.439  17.335  0.00  0.00    +0.000 C 
BRANCH  21  27
ATOM     22  C   UNL     1       4.701   3.464  15.933  0.00  0.00    +0.000 C 
ATOM     23  N   UNL     1       5.797   4.162  15.319  0.00  0.00    +0.000 N 
ATOM     24  C   UNL     1       5.870   4.499  14.001  0.00  0.00    +0.000 A 
ATOM     25  N   UNL     1       7.007   5.102  13.764  0.00  0.00    +0.000 NA
ATOM     26  N   UNL     1       7.709   5.142  14.944  0.00  0.00    +0.000 NA
ATOM     27  C   UNL     1       6.967   4.601  15.894  0.00  0.00    +0.000 A 
ENDBRANCH  21  27
ENDBRANCH  17  21
ENDBRANCH  11  17
ENDBRANCH   1  15
BRANCH   8  28
ATOM     28  C   UNL     1      -0.058   9.517  22.543  0.00  0.00    +0.000 C 
ATOM     29  F   UNL     1       1.064   9.271  23.271  0.00  0.00    +0.000 F 
ATOM     30  F   UNL     1      -0.717  10.516  23.190  0.00  0.00    +0.000 F 
ATOM     31  F   UNL     1      -0.830   8.405  22.675  0.00  0.00    +0.000 F 
ENDBRANCH   8  28
BRANCH   6  32
ATOM     32  C   UNL     1      -0.651  12.636  18.606  0.00  0.00    +0.000 C 
ATOM     33  F   UNL     1       0.268  13.411  17.953  0.00  0.00    +0.000 F 
ATOM     34  F   UNL     1      -1.613  12.362  17.674  0.00  0.00    +0.000 F 
BRANCH  32  35
ATOM     35  C   UNL     1      -1.298  13.510  19.701  0.00  0.00    +0.000 C 
BRANCH  35  36
ATOM     36  O   UNL     1      -1.215  14.915  19.438  0.00  0.00    +0.000 OA
ATOM     37  H   UNL     1      -0.277  15.167  19.514  0.00  0.00    +0.000 HD
ENDBRANCH  35  36
ENDBRANCH  32  35
ENDBRANCH   6  32
TORSDOF 8
ENDMDL
MODEL 2
REMARK VINA RESULT:      -9.4      4.280      8.961
REMARK  Name = 
REMARK  9 active torsions:
REMARK  status: ('A' for Active; 'I' for Inactive)
REMARK    1  A    between atoms: C_1  and  N_2
REMARK    2  A    between atoms: C_6  and  C_7
REMARK    3  A    between atoms: C_7  and  C_8
REMARK    4  A    between atoms: C_8  and  C_9
REMARK    5  A    between atoms: C_13  and  N_14
REMARK    6  A    between atoms: C_19  and  C_20
REMARK    7  A    between atoms: C_20  and  C_23
REMARK    8  A    between atoms: C_23  and  O_24
REMARK    9  A    between atoms: C_26  and  C_27
REMARK                            x       y       z     vdW  Elec       q    Type
REMARK                         _______ _______ _______ _____ _____    ______ ____
ROOT
ATOM      1  N   UNL     1       2.201   7.433  19.527  0.00  0.00    +0.000 N 
ATOM      2  C   UNL     1       2.273   6.034  19.896  0.00  0.00    +0.000 C 
ATOM      3  C   UNL     1       3.075   5.414  18.817  0.00  0.00    +0.000 A 
ATOM      4  C   UNL     1       3.519   6.398  17.939  0.00  0.00    +0.000 A 
ATOM      5  C   UNL     1       4.337   6.088  16.870  0.00  0.00    +0.000 A 
ATOM      6  C   UNL     1       4.708   4.738  16.691  0.00  0.00    +0.000 A 
ATOM      7  C   UNL     1       4.205   3.743  17.567  0.00  0.00    +0.000 A 
ATOM      8  C   UNL     1       3.373   4.067  18.647  0.00  0.00    +0.000 A 
ATOM      9  C   UNL     1       2.941   7.701  18.373  0.00  0.00    +0.000 C 
ATOM     10  O   UNL     1       3.117   8.735  17.766  0.00  0.00    +0.000 OA
ENDROOT
BRANCH   1  15
ATOM     11  C   UNL     1      -0.404  10.058  20.166  0.00  0.00    +0.000 A 
ATOM     12  C   UNL     1      -0.270  10.201  21.553  0.00  0.00    +0.000 A 
ATOM     13  C   UNL     1       0.630   9.412  22.289  0.00  0.00    +0.000 A 
ATOM     14  C   UNL     1       1.449   8.466  21.655  0.00  0.00    +0.000 A 
ATOM     15  C   UNL     1       1.367   8.301  20.279  0.00  0.00    +0.000 A 
ATOM     16  C   UNL     1       0.424   9.084  19.585  0.00  0.00    +0.000 A 
BRANCH  11  17
ATOM     17  C   UNL     1      -1.412  10.912  19.235  0.00  0.00    +0.000 C 
ATOM     18  C   UNL     1      -0.741  11.864  18.211  0.00  0.00    +0.000 C 
ATOM     19  O   UNL     1      -1.375  13.029  18.772  0.00  0.00    +0.000 OA
ATOM     20  C   UNL     1      -1.983  12.242  19.818  0.00  0.00    +0.000 C 
BRANCH  17  21
ATOM     21  C   UNL     1      -2.503  10.011  18.603  0.00  0.00    +0.000 C 
BRANCH  21  27
ATOM     22  C   UNL     1      -4.840  11.774  17.432  0.00  0.00    +0.000 C 
ATOM     23  N   UNL     1      -3.828  11.074  16.688  0.00  0.00    +0.000 N 
ATOM     24  C   UNL     1      -3.734  11.048  15.329  0.00  0.00    +0.000 A 
ATOM     25  N   UNL     1      -2.719  10.301  14.973  0.00  0.00    +0.000 NA
ATOM     26  N   UNL     1      -2.147   9.807  16.119  0.00  0.00    +0.000 NA
ATOM     27  C   UNL     1      -2.797  10.296  17.160  0.00  0.00    +0.000 A 
ENDBRANCH  21  27
ENDBRANCH  17  21
ENDBRANCH  11  17
ENDBRANCH   1  15
BRANCH   8  28
ATOM     28  C   UNL     1       2.823   2.993  19.554  0.00  0.00    +0.000 C 
ATOM     29  F   UNL     1       3.223   3.105  20.849  0.00  0.00    +0.000 F 
ATOM     30  F   UNL     1       1.463   2.989  19.578  0.00  0.00    +0.000 F 
ATOM     31  F   UNL     1       3.201   1.747  19.161  0.00  0.00    +0.000 F 
ENDBRANCH   8  28
BRANCH   6  32
ATOM     32  C   UNL     1       5.661   4.328  15.585  0.00  0.00    +0.000 C 
ATOM     33  F   UNL     1       5.870   2.976  15.570  0.00  0.00    +0.000 F 
ATOM     34  F   UNL     1       5.179   4.628  14.342  0.00  0.00    +0.000 F 
BRANCH  32  35
ATOM     35  C   UNL     1       7.039   5.008  15.729  0.00  0.00    +0.000 C 
BRANCH  35  36
ATOM     36  O   UNL     1       7.861   4.429  16.748  0.00  0.00    +0.000 OA
ATOM     37  H   UNL     1       8.605   3.987  16.300  0.00  0.00    +0.000 HD
ENDBRANCH  35  36
ENDBRANCH  32  35
ENDBRANCH   6  32
TORSDOF 8
ENDMDL
MODEL 3
REMARK VINA RESULT:      -9.4      4.073      8.859
REMARK  Name = 
REMARK  9 active torsions:
REMARK  status: ('A' for Active; 'I' for Inactive)
REMARK    1  A    between atoms: C_1  and  N_2
REMARK    2  A    between atoms: C_6  and  C_7
REMARK    3  A    between atoms: C_7  and  C_8
REMARK    4  A    between atoms: C_8  and  C_9
REMARK    5  A    between atoms: C_13  and  N_14
REMARK    6  A    between atoms: C_19  and  C_20
REMARK    7  A    between atoms: C_20  and  C_23
REMARK    8  A    between atoms: C_23  and  O_24
REMARK    9  A    between atoms: C_26  and  C_27
REMARK                            x       y       z     vdW  Elec       q    Type
REMARK                         _______ _______ _______ _____ _____    ______ ____
ROOT
ATOM      1  N   UNL     1       1.481   8.103  20.153  0.00  0.00    +0.000 N 
ATOM      2  C   UNL     1       1.532   6.768  20.713  0.00  0.00    +0.000 C 
ATOM      3  C   UNL     1       2.340   5.997  19.741  0.00  0.00    +0.000 A 
ATOM      4  C   UNL     1       2.806   6.845  18.743  0.00  0.00    +0.000 A 
ATOM      5  C   UNL     1       3.634   6.383  17.738  0.00  0.00    +0.000 A 
ATOM      6  C   UNL     1       3.992   5.017  17.753  0.00  0.00    +0.000 A 
ATOM      7  C   UNL     1       3.466   4.158  18.751  0.00  0.00    +0.000 A 
ATOM      8  C   UNL     1       2.624   4.637  19.764  0.00  0.00    +0.000 A 
ATOM      9  C   UNL     1       2.238   8.201  18.985  0.00  0.00    +0.000 C 
ATOM     10  O   UNL     1       2.434   9.140  18.242  0.00  0.00    +0.000 OA
ENDROOT
BRANCH   1  15
ATOM     11  C   UNL     1      -0.815  11.063  20.386  0.00  0.00    +0.000 A 
ATOM     12  C   UNL     1      -0.923  11.177  21.777  0.00  0.00    +0.000 A 
ATOM     13  C   UNL     1      -0.292  10.267  22.641  0.00  0.00    +0.000 A 
ATOM     14  C   UNL     1       0.494   9.220  22.139  0.00  0.00    +0.000 A 
ATOM     15  C   UNL     1       0.647   9.075  20.767  0.00  0.00    +0.000 A 
ATOM     16  C   UNL     1      -0.035   9.986  19.936  0.00  0.00    +0.000 A 
BRANCH  11  17
ATOM     17  C   UNL     1      -1.507  12.054  19.313  0.00  0.00    +0.000 C 
ATOM     18  C   UNL     1      -3.057  12.103  19.345  0.00  0.00    +0.000 C 
ATOM     19  O   UNL     1      -3.169  11.668  17.977  0.00  0.00    +0.000 OA
ATOM     20  C   UNL     1      -1.738  11.511  17.869  0.00  0.00    +0.000 C 
BRANCH  17  21
ATOM     21  C   UNL     1      -0.854  13.459  19.334  0.00  0.00    +0.000 C 
BRANCH  21  27
ATOM     22  C   UNL     1       1.084  14.380  21.644  0.00  0.00    +0.000 C 
ATOM     23  N   UNL     1       1.459  13.866  20.354  0.00  0.00    +0.000 N 
ATOM     24  C   UNL     1       2.739  13.714  19.914  0.00  0.00    +0.000 A 
ATOM     25  N   UNL     1       2.731  13.248  18.691  0.00  0.00    +0.000 NA
ATOM     26  N   UNL     1       1.419  13.112  18.309  0.00  0.00    +0.000 NA
ATOM     27  C   UNL     1       0.646  13.457  19.323  0.00  0.00    +0.000 A 
ENDBRANCH  21  27
ENDBRANCH  17  21
ENDBRANCH  11  17
ENDBRANCH   1  15
BRANCH   8  28
ATOM     28  C   UNL     1       2.051   3.704  20.803  0.00  0.00    +0.000 C 
ATOM     29  F   UNL     1       0.692   3.662  20.819  0.00  0.00    +0.000 F 
ATOM     30  F   UNL     1       2.467   2.421  20.625  0.00  0.00    +0.000 F 
ATOM     31  F   UNL     1       2.421   4.052  22.065  0.00  0.00    +0.000 F 
ENDBRANCH   8  28
BRANCH   6  32
ATOM     32  C   UNL     1       4.954   4.449  16.728  0.00  0.00    +0.000 C 
ATOM     33  F   UNL     1       4.830   3.091  16.613  0.00  0.00    +0.000 F 
ATOM     34  F   UNL     1       4.726   4.935  15.471  0.00  0.00    +0.000 F 
BRANCH  32  35
ATOM     35  C   UNL     1       6.424   4.751  17.086  0.00  0.00    +0.000 C 
BRANCH  35  36
ATOM     36  O   UNL     1       6.856   4.135  18.304  0.00  0.00    +0.000 OA
ATOM     37  H   UNL     1       6.170   4.310  18.973  0.00  0.00    +0.000 HD
ENDBRANCH  35  36
ENDBRANCH  32  35
ENDBRANCH   6  32
TORSDOF 8
ENDMDL
MODEL 4
REMARK VINA RESULT:      -9.2      4.443      9.245
REMARK  Name = 
REMARK  9 active torsions:
REMARK  status: ('A' for Active; 'I' for Inactive)
REMARK    1  A    between atoms: C_1  and  N_2
REMARK    2  A    between atoms: C_6  and  C_7
REMARK    3  A    between atoms: C_7  and  C_8
REMARK    4  A    between atoms: C_8  and  C_9
REMARK    5  A    between atoms: C_13  and  N_14
REMARK    6  A    between atoms: C_19  and  C_20
REMARK    7  A    between atoms: C_20  and  C_23
REMARK    8  A    between atoms: C_23  and  O_24
REMARK    9  A    between atoms: C_26  and  C_27
REMARK                            x       y       z     vdW  Elec       q    Type
REMARK                         _______ _______ _______ _____ _____    ______ ____
ROOT
ATOM      1  N   UNL     1       2.271   7.385  19.464  0.00  0.00    +0.000 N 
ATOM      2  C   UNL     1       2.322   5.983  19.822  0.00  0.00    +0.000 C 
ATOM      3  C   UNL     1       3.121   5.361  18.742  0.00  0.00    +0.000 A 
ATOM      4  C   UNL     1       3.583   6.345  17.875  0.00  0.00    +0.000 A 
ATOM      5  C   UNL     1       4.403   6.033  16.807  0.00  0.00    +0.000 A 
ATOM      6  C   UNL     1       4.756   4.680  16.619  0.00  0.00    +0.000 A 
ATOM      7  C   UNL     1       4.234   3.685  17.484  0.00  0.00    +0.000 A 
ATOM      8  C   UNL     1       3.401   4.011  18.562  0.00  0.00    +0.000 A 
ATOM      9  C   UNL     1       3.020   7.652  18.317  0.00  0.00    +0.000 C 
ATOM     10  O   UNL     1       3.214   8.689  17.719  0.00  0.00    +0.000 OA
ENDROOT
BRANCH   1  15
ATOM     11  C   UNL     1      -0.215  10.121  20.113  0.00  0.00    +0.000 A 
ATOM     12  C   UNL     1      -0.153  10.179  21.511  0.00  0.00    +0.000 A 
ATOM     13  C   UNL     1       0.658   9.299  22.248  0.00  0.00    +0.000 A 
ATOM     14  C   UNL     1       1.457   8.343  21.605  0.00  0.00    +0.000 A 
ATOM     15  C   UNL     1       1.445   8.258  20.219  0.00  0.00    +0.000 A 
ATOM     16  C   UNL     1       0.589   9.133  19.522  0.00  0.00    +0.000 A 
BRANCH  11  17
ATOM     17  C   UNL     1      -1.119  11.082  19.181  0.00  0.00    +0.000 C 
ATOM     18  C   UNL     1      -0.357  12.206  18.433  0.00  0.00    +0.000 C 
ATOM     19  O   UNL     1      -1.130  13.246  19.061  0.00  0.00    +0.000 OA
ATOM     20  C   UNL     1      -1.842  12.283  19.866  0.00  0.00    +0.000 C 
BRANCH  17  21
ATOM     21  C   UNL     1      -2.053  10.262  18.256  0.00  0.00    +0.000 C 
BRANCH  21  27
ATOM     22  C   UNL     1      -3.097  10.934  15.358  0.00  0.00    +0.000 C 
ATOM     23  N   UNL     1      -3.755  11.224  16.602  0.00  0.00    +0.000 N 
ATOM     24  C   UNL     1      -4.950  11.868  16.724  0.00  0.00    +0.000 A 
ATOM     25  N   UNL     1      -5.254  11.994  17.991  0.00  0.00    +0.000 NA
ATOM     26  N   UNL     1      -4.228  11.443  18.719  0.00  0.00    +0.000 NA
ATOM     27  C   UNL     1      -3.333  10.950  17.882  0.00  0.00    +0.000 A 
ENDBRANCH  21  27
ENDBRANCH  17  21
ENDBRANCH  11  17
ENDBRANCH   1  15
BRANCH   8  28
ATOM     28  C   UNL     1       2.833   2.937  19.458  0.00  0.00    +0.000 C 
ATOM     29  F   UNL     1       3.108   1.671  19.046  0.00  0.00    +0.000 F 
ATOM     30  F   UNL     1       3.301   3.031  20.731  0.00  0.00    +0.000 F 
ATOM     31  F   UNL     1       1.477   3.007  19.545  0.00  0.00    +0.000 F 
ENDBRANCH   8  28
BRANCH   6  32
ATOM     32  C   UNL     1       5.709   4.266  15.514  0.00  0.00    +0.000 C 
ATOM     33  F   UNL     1       5.917   2.914  15.503  0.00  0.00    +0.000 F 
ATOM     34  F   UNL     1       5.228   4.563  14.270  0.00  0.00    +0.000 F 
BRANCH  32  35
ATOM     35  C   UNL     1       7.087   4.945  15.657  0.00  0.00    +0.000 C 
BRANCH  35  36
ATOM     36  O   UNL     1       7.854   4.461  16.765  0.00  0.00    +0.000 OA
ATOM     37  H   UNL     1       7.894   5.180  17.422  0.00  0.00    +0.000 HD
ENDBRANCH  35  36
ENDBRANCH  32  35
ENDBRANCH   6  32
TORSDOF 8
ENDMDL
MODEL 5
REMARK VINA RESULT:      -9.1      4.031      9.051
REMARK  Name = 
REMARK  9 active torsions:
REMARK  status: ('A' for Active; 'I' for Inactive)
REMARK    1  A    between atoms: C_1  and  N_2
REMARK    2  A    between atoms: C_6  and  C_7
REMARK    3  A    between atoms: C_7  and  C_8
REMARK    4  A    between atoms: C_8  and  C_9
REMARK    5  A    between atoms: C_13  and  N_14
REMARK    6  A    between atoms: C_19  and  C_20
REMARK    7  A    between atoms: C_20  and  C_23
REMARK    8  A    between atoms: C_23  and  O_24
REMARK    9  A    between atoms: C_26  and  C_27
REMARK                            x       y       z     vdW  Elec       q    Type
REMARK                         _______ _______ _______ _____ _____    ______ ____
ROOT
ATOM      1  N   UNL     1       1.520   7.996  20.152  0.00  0.00    +0.000 N 
ATOM      2  C   UNL     1       1.557   6.657  20.704  0.00  0.00    +0.000 C 
ATOM      3  C   UNL     1       2.359   5.883  19.729  0.00  0.00    +0.000 A 
ATOM      4  C   UNL     1       2.836   6.733  18.737  0.00  0.00    +0.000 A 
ATOM      5  C   UNL     1       3.661   6.268  17.731  0.00  0.00    +0.000 A 
ATOM      6  C   UNL     1       4.005   4.899  17.738  0.00  0.00    +0.000 A 
ATOM      7  C   UNL     1       3.468   4.039  18.729  0.00  0.00    +0.000 A 
ATOM      8  C   UNL     1       2.629   4.520  19.743  0.00  0.00    +0.000 A 
ATOM      9  C   UNL     1       2.281   8.094  18.986  0.00  0.00    +0.000 C 
ATOM     10  O   UNL     1       2.489   9.035  18.250  0.00  0.00    +0.000 OA
ENDROOT
BRANCH   1  15
ATOM     11  C   UNL     1      -0.429  11.184  20.494  0.00  0.00    +0.000 A 
ATOM     12  C   UNL     1      -0.799  11.100  21.842  0.00  0.00    +0.000 A 
ATOM     13  C   UNL     1      -0.459   9.987  22.629  0.00  0.00    +0.000 A 
ATOM     14  C   UNL     1       0.289   8.927  22.097  0.00  0.00    +0.000 A 
ATOM     15  C   UNL     1       0.695   8.972  20.770  0.00  0.00    +0.000 A 
ATOM     16  C   UNL     1       0.299  10.087  20.006  0.00  0.00    +0.000 A 
BRANCH  11  17
ATOM     17  C   UNL     1      -0.779  12.416  19.508  0.00  0.00    +0.000 C 
ATOM     18  C   UNL     1       0.301  13.525  19.407  0.00  0.00    +0.000 C 
ATOM     19  O   UNL     1      -0.601  14.545  19.873  0.00  0.00    +0.000 OA
ATOM     20  C   UNL     1      -1.651  13.576  20.080  0.00  0.00    +0.000 C 
BRANCH  17  21
ATOM     21  C   UNL     1      -1.268  11.917  18.125  0.00  0.00    +0.000 C 
BRANCH  21  27
ATOM     22  C   UNL     1      -2.894  10.936  15.609  0.00  0.00    +0.000 C 
ATOM     23  N   UNL     1      -3.417  11.231  16.915  0.00  0.00    +0.000 N 
ATOM     24  C   UNL     1      -4.731  11.149  17.268  0.00  0.00    +0.000 A 
ATOM     25  N   UNL     1      -4.872  11.508  18.519  0.00  0.00    +0.000 NA
ATOM     26  N   UNL     1      -3.631  11.856  18.992  0.00  0.00    +0.000 NA
ATOM     27  C   UNL     1      -2.743  11.661  18.033  0.00  0.00    +0.000 A 
ENDBRANCH  21  27
ENDBRANCH  17  21
ENDBRANCH  11  17
ENDBRANCH   1  15
BRANCH   8  28
ATOM     28  C   UNL     1       2.043   3.587  20.775  0.00  0.00    +0.000 C 
ATOM     29  F   UNL     1       0.686   3.626  20.850  0.00  0.00    +0.000 F 
ATOM     30  F   UNL     1       2.371   2.288  20.536  0.00  0.00    +0.000 F 
ATOM     31  F   UNL     1       2.487   3.866  22.030  0.00  0.00    +0.000 F 
ENDBRANCH   8  28
BRANCH   6  32
ATOM     32  C   UNL     1       4.963   4.327  16.711  0.00  0.00    +0.000 C 
ATOM     33  F   UNL     1       4.867   2.965  16.631  0.00  0.00    +0.000 F 
ATOM     34  F   UNL     1       4.705   4.778  15.447  0.00  0.00    +0.000 F 
BRANCH  32  35
ATOM     35  C   UNL     1       6.431   4.669  17.039  0.00  0.00    +0.000 C 
BRANCH  35  36
ATOM     36  O   UNL     1       6.873   4.156  18.300  0.00  0.00    +0.000 OA
ATOM     37  H   UNL     1       7.756   4.531  18.469  0.00  0.00    +0.000 HD
ENDBRANCH  35  36
ENDBRANCH  32  35
ENDBRANCH   6  32
TORSDOF 8
ENDMDL
MODEL 6
REMARK VINA RESULT:      -9.1      4.054      9.017
REMARK  Name = 
REMARK  9 active torsions:
REMARK  status: ('A' for Active; 'I' for Inactive)
REMARK    1  A    between atoms: C_1  and  N_2
REMARK    2  A    between atoms: C_6  and  C_7
REMARK    3  A    between atoms: C_7  and  C_8
REMARK    4  A    between atoms: C_8  and  C_9
REMARK    5  A    between atoms: C_13  and  N_14
REMARK    6  A    between atoms: C_19  and  C_20
REMARK    7  A    between atoms: C_20  and  C_23
REMARK    8  A    between atoms: C_23  and  O_24
REMARK    9  A    between atoms: C_26  and  C_27
REMARK                            x       y       z     vdW  Elec       q    Type
REMARK                         _______ _______ _______ _____ _____    ______ ____
ROOT
ATOM      1  N   UNL     1       1.755   8.074  19.695  0.00  0.00    +0.000 N 
ATOM      2  C   UNL     1       1.828   6.720  20.206  0.00  0.00    +0.000 C 
ATOM      3  C   UNL     1       2.659   6.001  19.214  0.00  0.00    +0.000 A 
ATOM      4  C   UNL     1       3.118   6.895  18.252  0.00  0.00    +0.000 A 
ATOM      5  C   UNL     1       3.964   6.486  17.239  0.00  0.00    +0.000 A 
ATOM      6  C   UNL     1       4.348   5.128  17.207  0.00  0.00    +0.000 A 
ATOM      7  C   UNL     1       3.830   4.223  18.167  0.00  0.00    +0.000 A 
ATOM      8  C   UNL     1       2.970   4.647  19.189  0.00  0.00    +0.000 A 
ATOM      9  C   UNL     1       2.521   8.230  18.538  0.00  0.00    +0.000 C 
ATOM     10  O   UNL     1       2.705   9.199  17.833  0.00  0.00    +0.000 OA
ENDROOT
BRANCH   1  15
ATOM     11  C   UNL     1      -0.773  10.831  19.997  0.00  0.00    +0.000 A 
ATOM     12  C   UNL     1      -0.758  11.023  21.385  0.00  0.00    +0.000 A 
ATOM     13  C   UNL     1       0.035  10.227  22.228  0.00  0.00    +0.000 A 
ATOM     14  C   UNL     1       0.864   9.223  21.706  0.00  0.00    +0.000 A 
ATOM     15  C   UNL     1       0.898   9.006  20.336  0.00  0.00    +0.000 A 
ATOM     16  C   UNL     1       0.058   9.800  19.530  0.00  0.00    +0.000 A 
BRANCH  11  17
ATOM     17  C   UNL     1      -1.654  11.688  18.949  0.00  0.00    +0.000 C 
ATOM     18  C   UNL     1      -2.966  12.295  19.509  0.00  0.00    +0.000 C 
ATOM     19  O   UNL     1      -3.783  11.589  18.557  0.00  0.00    +0.000 OA
ATOM     20  C   UNL     1      -2.631  10.908  18.016  0.00  0.00    +0.000 C 
BRANCH  17  21
ATOM     21  C   UNL     1      -0.785  12.720  18.186  0.00  0.00    +0.000 C 
BRANCH  21  27
ATOM     22  C   UNL     1       2.362  12.598  18.337  0.00  0.00    +0.000 C 
ATOM     23  N   UNL     1       1.494  13.463  19.089  0.00  0.00    +0.000 N 
ATOM     24  C   UNL     1       1.906  14.369  20.019  0.00  0.00    +0.000 A 
ATOM     25  N   UNL     1       0.865  14.973  20.534  0.00  0.00    +0.000 NA
ATOM     26  N   UNL     1      -0.256  14.437  19.949  0.00  0.00    +0.000 NA
ATOM     27  C   UNL     1       0.121  13.544  19.053  0.00  0.00    +0.000 A 
ENDBRANCH  21  27
ENDBRANCH  17  21
ENDBRANCH  11  17
ENDBRANCH   1  15
BRANCH   8  28
ATOM     28  C   UNL     1       2.405   3.665  20.187  0.00  0.00    +0.000 C 
ATOM     29  F   UNL     1       1.051   3.549  20.143  0.00  0.00    +0.000 F 
ATOM     30  F   UNL     1       2.898   2.410  20.006  0.00  0.00    +0.000 F 
ATOM     31  F   UNL     1       2.702   4.009  21.469  0.00  0.00    +0.000 F 
ENDBRANCH   8  28
BRANCH   6  32
ATOM     32  C   UNL     1       5.330   4.617  16.170  0.00  0.00    +0.000 C 
ATOM     33  F   UNL     1       5.307   3.252  16.079  0.00  0.00    +0.000 F 
ATOM     34  F   UNL     1       5.041   5.064  14.911  0.00  0.00    +0.000 F 
BRANCH  32  35
ATOM     35  C   UNL     1       6.779   5.034  16.493  0.00  0.00    +0.000 C 
BRANCH  35  36
ATOM     36  O   UNL     1       7.522   5.465  15.347  0.00  0.00    +0.000 OA
ATOM     37  H   UNL     1       7.705   6.415  15.464  0.00  0.00    +0.000 HD
ENDBRANCH  35  36
ENDBRANCH  32  35
ENDBRANCH   6  32
TORSDOF 8
ENDMDL
MODEL 7
REMARK VINA RESULT:      -9.0      4.118      9.037
REMARK  Name = 
REMARK  9 active torsions:
REMARK  status: ('A' for Active; 'I' for Inactive)
REMARK    1  A    between atoms: C_1  and  N_2
REMARK    2  A    between atoms: C_6  and  C_7
REMARK    3  A    between atoms: C_7  and  C_8
REMARK    4  A    between atoms: C_8  and  C_9
REMARK    5  A    between atoms: C_13  and  N_14
REMARK    6  A    between atoms: C_19  and  C_20
REMARK    7  A    between atoms: C_20  and  C_23
REMARK    8  A    between atoms: C_23  and  O_24
REMARK    9  A    between atoms: C_26  and  C_27
REMARK                            x       y       z     vdW  Elec       q    Type
REMARK                         _______ _______ _______ _____ _____    ______ ____
ROOT
ATOM      1  N   UNL     1       1.450   7.892  20.401  0.00  0.00    +0.000 N 
ATOM      2  C   UNL     1       1.506   6.531  20.894  0.00  0.00    +0.000 C 
ATOM      3  C   UNL     1       2.305   5.809  19.877  0.00  0.00    +0.000 A 
ATOM      4  C   UNL     1       2.762   6.705  18.917  0.00  0.00    +0.000 A 
ATOM      5  C   UNL     1       3.580   6.293  17.883  0.00  0.00    +0.000 A 
ATOM      6  C   UNL     1       3.937   4.929  17.827  0.00  0.00    +0.000 A 
ATOM      7  C   UNL     1       3.420   4.021  18.786  0.00  0.00    +0.000 A 
ATOM      8  C   UNL     1       2.588   4.449  19.830  0.00  0.00    +0.000 A 
ATOM      9  C   UNL     1       2.196   8.048  19.232  0.00  0.00    +0.000 C 
ATOM     10  O   UNL     1       2.385   9.022  18.535  0.00  0.00    +0.000 OA
ENDROOT
BRANCH   1  15
ATOM     11  C   UNL     1      -0.603  10.998  20.870  0.00  0.00    +0.000 A 
ATOM     12  C   UNL     1      -0.893  10.893  22.236  0.00  0.00    +0.000 A 
ATOM     13  C   UNL     1      -0.466   9.792  22.996  0.00  0.00    +0.000 A 
ATOM     14  C   UNL     1       0.293   8.765  22.416  0.00  0.00    +0.000 A 
ATOM     15  C   UNL     1       0.623   8.832  21.070  0.00  0.00    +0.000 A 
ATOM     16  C   UNL     1       0.141   9.933  20.336  0.00  0.00    +0.000 A 
BRANCH  11  17
ATOM     17  C   UNL     1      -1.055  12.219  19.913  0.00  0.00    +0.000 C 
ATOM     18  C   UNL     1      -2.470  12.098  19.290  0.00  0.00    +0.000 C 
ATOM     19  O   UNL     1      -1.959  12.145  17.945  0.00  0.00    +0.000 OA
ATOM     20  C   UNL     1      -0.598  12.179  18.422  0.00  0.00    +0.000 C 
BRANCH  17  21
ATOM     21  C   UNL     1      -0.804  13.592  20.586  0.00  0.00    +0.000 C 
BRANCH  21  27
ATOM     22  C   UNL     1       0.810  15.673  18.853  0.00  0.00    +0.000 C 
ATOM     23  N   UNL     1       1.311  14.887  19.948  0.00  0.00    +0.000 N 
ATOM     24  C   UNL     1       2.595  14.907  20.402  0.00  0.00    +0.000 A 
ATOM     25  N   UNL     1       2.724  14.059  21.390  0.00  0.00    +0.000 NA
ATOM     26  N   UNL     1       1.507  13.451  21.576  0.00  0.00    +0.000 NA
ATOM     27  C   UNL     1       0.641  13.971  20.724  0.00  0.00    +0.000 A 
ENDBRANCH  21  27
ENDBRANCH  17  21
ENDBRANCH  11  17
ENDBRANCH   1  15
BRANCH   8  28
ATOM     28  C   UNL     1       2.025   3.466  20.827  0.00  0.00    +0.000 C 
ATOM     29  F   UNL     1       2.399   2.177  20.604  0.00  0.00    +0.000 F 
ATOM     30  F   UNL     1       2.402   3.755  22.101  0.00  0.00    +0.000 F 
ATOM     31  F   UNL     1       0.665   3.457  20.826  0.00  0.00    +0.000 F 
ENDBRANCH   8  28
BRANCH   6  32
ATOM     32  C   UNL     1       4.889   4.412  16.766  0.00  0.00    +0.000 C 
ATOM     33  F   UNL     1       4.781   3.058  16.603  0.00  0.00    +0.000 F 
ATOM     34  F   UNL     1       4.633   4.941  15.532  0.00  0.00    +0.000 F 
BRANCH  32  35
ATOM     35  C   UNL     1       6.360   4.721  17.110  0.00  0.00    +0.000 C 
BRANCH  35  36
ATOM     36  O   UNL     1       6.792   4.149  18.350  0.00  0.00    +0.000 OA
ATOM     37  H   UNL     1       7.167   3.273  18.147  0.00  0.00    +0.000 HD
ENDBRANCH  35  36
ENDBRANCH  32  35
ENDBRANCH   6  32
TORSDOF 8
ENDMDL
MODEL 8
REMARK VINA RESULT:      -9.0      4.078      9.141
REMARK  Name = 
REMARK  9 active torsions:
REMARK  status: ('A' for Active; 'I' for Inactive)
REMARK    1  A    between atoms: C_1  and  N_2
REMARK    2  A    between atoms: C_6  and  C_7
REMARK    3  A    between atoms: C_7  and  C_8
REMARK    4  A    between atoms: C_8  and  C_9
REMARK    5  A    between atoms: C_13  and  N_14
REMARK    6  A    between atoms: C_19  and  C_20
REMARK    7  A    between atoms: C_20  and  C_23
REMARK    8  A    between atoms: C_23  and  O_24
REMARK    9  A    between atoms: C_26  and  C_27
REMARK                            x       y       z     vdW  Elec       q    Type
REMARK                         _______ _______ _______ _____ _____    ______ ____
ROOT
ATOM      1  N   UNL     1       1.423   8.118  20.301  0.00  0.00    +0.000 N 
ATOM      2  C   UNL     1       1.501   6.770  20.827  0.00  0.00    +0.000 C 
ATOM      3  C   UNL     1       2.314   6.037  19.831  0.00  0.00    +0.000 A 
ATOM      4  C   UNL     1       2.758   6.917  18.850  0.00  0.00    +0.000 A 
ATOM      5  C   UNL     1       3.586   6.493  17.828  0.00  0.00    +0.000 A 
ATOM      6  C   UNL     1       3.966   5.134  17.806  0.00  0.00    +0.000 A 
ATOM      7  C   UNL     1       3.462   4.242  18.787  0.00  0.00    +0.000 A 
ATOM      8  C   UNL     1       2.621   4.681  19.817  0.00  0.00    +0.000 A 
ATOM      9  C   UNL     1       2.170   8.257  19.129  0.00  0.00    +0.000 C 
ATOM     10  O   UNL     1       2.344   9.217  18.409  0.00  0.00    +0.000 OA
ENDROOT
BRANCH   1  15
ATOM     11  C   UNL     1      -0.809  11.115  20.647  0.00  0.00    +0.000 A 
ATOM     12  C   UNL     1      -0.997  11.118  22.035  0.00  0.00    +0.000 A 
ATOM     13  C   UNL     1      -0.441  10.122  22.854  0.00  0.00    +0.000 A 
ATOM     14  C   UNL     1       0.348   9.096  22.312  0.00  0.00    +0.000 A 
ATOM     15  C   UNL     1       0.579   9.060  20.944  0.00  0.00    +0.000 A 
ATOM     16  C   UNL     1      -0.029  10.055  20.155  0.00  0.00    +0.000 A 
BRANCH  11  17
ATOM     17  C   UNL     1      -1.411  12.210  19.623  0.00  0.00    +0.000 C 
ATOM     18  C   UNL     1      -2.758  11.836  18.952  0.00  0.00    +0.000 C 
ATOM     19  O   UNL     1      -2.202  11.919  17.627  0.00  0.00    +0.000 OA
ATOM     20  C   UNL     1      -0.887  12.193  18.154  0.00  0.00    +0.000 C 
BRANCH  17  21
ATOM     21  C   UNL     1      -1.417  13.629  20.247  0.00  0.00    +0.000 C 
BRANCH  21  27
ATOM     22  C   UNL     1       1.611  13.726  21.121  0.00  0.00    +0.000 C 
ATOM     23  N   UNL     1       0.967  14.557  20.141  0.00  0.00    +0.000 N 
ATOM     24  C   UNL     1       1.576  15.552  19.437  0.00  0.00    +0.000 A 
ATOM     25  N   UNL     1       0.705  16.130  18.649  0.00  0.00    +0.000 NA
ATOM     26  N   UNL     1      -0.508  15.518  18.854  0.00  0.00    +0.000 NA
ATOM     27  C   UNL     1      -0.347  14.547  19.735  0.00  0.00    +0.000 A 
ENDBRANCH  21  27
ENDBRANCH  17  21
ENDBRANCH  11  17
ENDBRANCH   1  15
BRANCH   8  28
ATOM     28  C   UNL     1       2.071   3.714  20.837  0.00  0.00    +0.000 C 
ATOM     29  F   UNL     1       2.414   4.008  22.120  0.00  0.00    +0.000 F 
ATOM     30  F   UNL     1       0.712   3.660  20.812  0.00  0.00    +0.000 F 
ATOM     31  F   UNL     1       2.507   2.443  20.625  0.00  0.00    +0.000 F 
ENDBRANCH   8  28
BRANCH   6  32
ATOM     32  C   UNL     1       4.929   4.607  16.760  0.00  0.00    +0.000 C 
ATOM     33  F   UNL     1       4.858   3.246  16.644  0.00  0.00    +0.000 F 
ATOM     34  F   UNL     1       4.656   5.086  15.509  0.00  0.00    +0.000 F 
BRANCH  32  35
ATOM     35  C   UNL     1       6.393   4.968  17.089  0.00  0.00    +0.000 C 
BRANCH  35  36
ATOM     36  O   UNL     1       6.989   4.110  18.067  0.00  0.00    +0.000 OA
ATOM     37  H   UNL     1       6.905   3.196  17.738  0.00  0.00    +0.000 HD
ENDBRANCH  35  36
ENDBRANCH  32  35
ENDBRANCH   6  32
TORSDOF 8
ENDMDL
MODEL 9
REMARK VINA RESULT:      -9.0      4.577      9.826
REMARK  Name = 
REMARK  9 active torsions:
REMARK  status: ('A' for Active; 'I' for Inactive)
REMARK    1  A    between atoms: C_1  and  N_2
REMARK    2  A    between atoms: C_6  and  C_7
REMARK    3  A    between atoms: C_7  and  C_8
REMARK    4  A    between atoms: C_8  and  C_9
REMARK    5  A    between atoms: C_13  and  N_14
REMARK    6  A    between atoms: C_19  and  C_20
REMARK    7  A    between atoms: C_20  and  C_23
REMARK    8  A    between atoms: C_23  and  O_24
REMARK    9  A    between atoms: C_26  and  C_27
REMARK                            x       y       z     vdW  Elec       q    Type
REMARK                         _______ _______ _______ _____ _____    ______ ____
ROOT
ATOM      1  N   UNL     1       1.432   8.820  19.377  0.00  0.00    +0.000 N 
ATOM      2  C   UNL     1       1.522   7.529  20.029  0.00  0.00    +0.000 C 
ATOM      3  C   UNL     1       2.441   6.751  19.167  0.00  0.00    +0.000 A 
ATOM      4  C   UNL     1       2.926   7.562  18.147  0.00  0.00    +0.000 A 
ATOM      5  C   UNL     1       3.849   7.090  17.233  0.00  0.00    +0.000 A 
ATOM      6  C   UNL     1       4.285   5.753  17.365  0.00  0.00    +0.000 A 
ATOM      7  C   UNL     1       3.741   4.928  18.381  0.00  0.00    +0.000 A 
ATOM      8  C   UNL     1       2.803   5.416  19.301  0.00  0.00    +0.000 A 
ATOM      9  C   UNL     1       2.263   8.892  18.258  0.00  0.00    +0.000 C 
ATOM     10  O   UNL     1       2.455   9.791  17.468  0.00  0.00    +0.000 OA
ENDROOT
BRANCH   1  15
ATOM     11  C   UNL     1      -1.585  11.052  19.367  0.00  0.00    +0.000 A 
ATOM     12  C   UNL     1      -1.379  11.744  20.567  0.00  0.00    +0.000 A 
ATOM     13  C   UNL     1      -0.289  11.455  21.404  0.00  0.00    +0.000 A 
ATOM     14  C   UNL     1       0.651  10.475  21.055  0.00  0.00    +0.000 A 
ATOM     15  C   UNL     1       0.501   9.774  19.866  0.00  0.00    +0.000 A 
ATOM     16  C   UNL     1      -0.627  10.068  19.076  0.00  0.00    +0.000 A 
BRANCH  11  17
ATOM     17  C   UNL     1      -2.809  11.308  18.343  0.00  0.00    +0.000 C 
ATOM     18  C   UNL     1      -3.643  10.056  17.965  0.00  0.00    +0.000 C 
ATOM     19  O   UNL     1      -3.350  10.198  16.562  0.00  0.00    +0.000 OA
ATOM     20  C   UNL     1      -2.485  11.325  16.817  0.00  0.00    +0.000 C 
BRANCH  17  21
ATOM     21  C   UNL     1      -3.682  12.508  18.790  0.00  0.00    +0.000 C 
BRANCH  21  27
ATOM     22  C   UNL     1      -6.550  12.354  17.489  0.00  0.00    +0.000 C 
ATOM     23  N   UNL     1      -6.205  12.077  18.857  0.00  0.00    +0.000 N 
ATOM     24  C   UNL     1      -7.089  11.717  19.829  0.00  0.00    +0.000 A 
ATOM     25  N   UNL     1      -6.456  11.564  20.964  0.00  0.00    +0.000 NA
ATOM     26  N   UNL     1      -5.132  11.852  20.741  0.00  0.00    +0.000 NA
ATOM     27  C   UNL     1      -4.971  12.135  19.460  0.00  0.00    +0.000 A 
ENDBRANCH  21  27
ENDBRANCH  17  21
ENDBRANCH  11  17
ENDBRANCH   1  15
BRANCH   8  28
ATOM     28  C   UNL     1       2.214   4.516  20.360  0.00  0.00    +0.000 C 
ATOM     29  F   UNL     1       2.564   4.854  21.630  0.00  0.00    +0.000 F 
ATOM     30  F   UNL     1       0.854   4.513  20.332  0.00  0.00    +0.000 F 
ATOM     31  F   UNL     1       2.601   3.221  20.207  0.00  0.00    +0.000 F 
ENDBRANCH   8  28
BRANCH   6  32
ATOM     32  C   UNL     1       5.349   5.184  16.447  0.00  0.00    +0.000 C 
ATOM     33  F   UNL     1       5.244   3.825  16.330  0.00  0.00    +0.000 F 
ATOM     34  F   UNL     1       5.248   5.660  15.170  0.00  0.00    +0.000 F 
BRANCH  32  35
ATOM     35  C   UNL     1       6.773   5.496  16.951  0.00  0.00    +0.000 C 
BRANCH  35  36
ATOM     36  O   UNL     1       7.750   4.531  16.545  0.00  0.00    +0.000 OA
ATOM     37  H   UNL     1       8.121   4.140  17.357  0.00  0.00    +0.000 HD
ENDBRANCH  35  36
ENDBRANCH  32  35
ENDBRANCH   6  32
TORSDOF 8
ENDMDL
