MODEL 1
REMARK VINA RESULT:      -8.7      0.000      0.000
REMARK  Name = 
REMARK  8 active torsions:
REMARK  status: ('A' for Active; 'I' for Inactive)
REMARK    1  A    between atoms: C_1  and  C_2
REMARK    2  A    between atoms: N_6  and  C_7
REMARK    3  A    between atoms: C_7  and  C_8
REMARK    4  A    between atoms: C_8  and  C_9
REMARK    5  A    between atoms: C_8  and  C_10
REMARK    6  A    between atoms: C_14  and  N_15
REMARK    7  A    between atoms: C_16  and  C_18
REMARK    8  A    between atoms: C_22  and  C_23
REMARK                            x       y       z     vdW  Elec       q    Type
REMARK                         _______ _______ _______ _____ _____    ______ ____
ROOT
ATOM      1  C   UNL     1       4.625   5.295  16.732  0.00  0.00    +0.000 A 
ATOM      2  C   UNL     1       4.137   4.004  16.978  0.00  0.00    +0.000 A 
ATOM      3  C   UNL     1       3.072   3.801  17.849  0.00  0.00    +0.000 A 
ATOM      4  C   UNL     1       2.471   4.883  18.487  0.00  0.00    +0.000 A 
ATOM      5  C   UNL     1       2.922   6.185  18.263  0.00  0.00    +0.000 A 
ATOM      6  C   UNL     1       3.990   6.385  17.372  0.00  0.00    +0.000 A 
ENDROOT
BRANCH   5   7
ATOM      7  N   UNL     1       2.342   7.310  18.894  0.00  0.00    +0.000 N 
ATOM      8  C   UNL     1       2.040   8.524  18.294  0.00  0.00    +0.000 C 
ATOM      9  O   UNL     1       2.204   8.824  17.117  0.00  0.00    +0.000 OA
ATOM     10  H   UNL     1       2.064   7.225  19.868  0.00  0.00    +0.000 HD
BRANCH   8  11
ATOM     11  C   UNL     1       1.420   9.539  19.206  0.00  0.00    +0.000 A 
ATOM     12  C   UNL     1       1.320  10.858  18.779  0.00  0.00    +0.000 A 
ATOM     13  C   UNL     1       0.726  11.785  19.625  0.00  0.00    +0.000 A 
ATOM     14  C   UNL     1       0.254  11.366  20.865  0.00  0.00    +0.000 A 
ATOM     15  C   UNL     1       0.384  10.023  21.235  0.00  0.00    +0.000 A 
ATOM     16  N   UNL     1       0.968   9.098  20.412  0.00  0.00    +0.000 NA
BRANCH  15  17
ATOM     17  C   UNL     1      -0.145   9.568  22.592  0.00  0.00    +0.000 C 
ATOM     18  F   UNL     1       0.841   9.311  23.500  0.00  0.00    +0.000 F 
ATOM     19  F   UNL     1      -0.951  10.497  23.180  0.00  0.00    +0.000 F 
ATOM     20  F   UNL     1      -0.881   8.423  22.516  0.00  0.00    +0.000 F 
ENDBRANCH  15  17
ENDBRANCH   8  11
ENDBRANCH   5   7
BRANCH   1  21
ATOM     21  C   UNL     1       5.780   5.545  15.758  0.00  0.00    +0.000 C 
ATOM     22  C   UNL     1       5.428   4.919  14.403  0.00  0.00    +0.000 C 
BRANCH  21  23
ATOM     23  C   UNL     1       7.147   5.039  16.280  0.00  0.00    +0.000 C 
BRANCH  23  29
ATOM     24  C   UNL     1       7.634   7.984  17.309  0.00  0.00    +0.000 C 
ATOM     25  C   UNL     1       7.732   6.736  18.096  0.00  0.00    +0.000 A 
ATOM     26  C   UNL     1       8.089   6.519  19.409  0.00  0.00    +0.000 A 
ATOM     27  N   UNL     1       8.038   5.186  19.690  0.00  0.00    +0.000 NA
ATOM     28  N   UNL     1       7.673   4.549  18.587  0.00  0.00    +0.000 NA
ATOM     29  N   UNL     1       7.482   5.471  17.624  0.00  0.00    +0.000 N 
ENDBRANCH  23  29
ENDBRANCH  21  23
ENDBRANCH   1  21
TORSDOF 6
ENDMDL
MODEL 2
REMARK VINA RESULT:      -8.2      1.109      1.333
REMARK  Name = 
REMARK  8 active torsions:
REMARK  status: ('A' for Active; 'I' for Inactive)
REMARK    1  A    between atoms: C_1  and  C_2
REMARK    2  A    between atoms: N_6  and  C_7
REMARK    3  A    between atoms: C_7  and  C_8
REMARK    4  A    between atoms: C_8  and  C_9
REMARK    5  A    between atoms: C_8  and  C_10
REMARK    6  A    between atoms: C_14  and  N_15
REMARK    7  A    between atoms: C_16  and  C_18
REMARK    8  A    between atoms: C_22  and  C_23
REMARK                            x       y       z     vdW  Elec       q    Type
REMARK                         _______ _______ _______ _____ _____    ______ ____
ROOT
ATOM      1  C   UNL     1       4.934   4.926  16.344  0.00  0.00    +0.000 A 
ATOM      2  C   UNL     1       4.519   3.624  16.656  0.00  0.00    +0.000 A 
ATOM      3  C   UNL     1       3.469   3.407  17.544  0.00  0.00    +0.000 A 
ATOM      4  C   UNL     1       2.813   4.486  18.131  0.00  0.00    +0.000 A 
ATOM      5  C   UNL     1       3.190   5.797  17.840  0.00  0.00    +0.000 A 
ATOM      6  C   UNL     1       4.242   6.010  16.934  0.00  0.00    +0.000 A 
ENDROOT
BRANCH   5   7
ATOM      7  N   UNL     1       2.553   6.918  18.418  0.00  0.00    +0.000 N 
ATOM      8  C   UNL     1       2.129   7.036  19.734  0.00  0.00    +0.000 C 
ATOM      9  O   UNL     1       2.250   6.201  20.623  0.00  0.00    +0.000 OA
ATOM     10  H   UNL     1       2.431   7.750  17.847  0.00  0.00    +0.000 HD
BRANCH   8  11
ATOM     11  C   UNL     1       1.489   8.348  20.074  0.00  0.00    +0.000 A 
ATOM     12  C   UNL     1       1.449   9.349  19.109  0.00  0.00    +0.000 A 
ATOM     13  C   UNL     1       0.837  10.553  19.429  0.00  0.00    +0.000 A 
ATOM     14  C   UNL     1       0.286  10.718  20.696  0.00  0.00    +0.000 A 
ATOM     15  C   UNL     1       0.359   9.671  21.621  0.00  0.00    +0.000 A 
ATOM     16  N   UNL     1       0.960   8.479  21.321  0.00  0.00    +0.000 NA
BRANCH  15  17
ATOM     17  C   UNL     1      -0.256   9.855  23.006  0.00  0.00    +0.000 C 
ATOM     18  F   UNL     1      -0.639  11.140  23.264  0.00  0.00    +0.000 F 
ATOM     19  F   UNL     1      -1.373   9.096  23.190  0.00  0.00    +0.000 F 
ATOM     20  F   UNL     1       0.599   9.519  24.013  0.00  0.00    +0.000 F 
ENDBRANCH  15  17
ENDBRANCH   8  11
ENDBRANCH   5   7
BRANCH   1  21
ATOM     21  C   UNL     1       6.069   5.190  15.351  0.00  0.00    +0.000 C 
ATOM     22  C   UNL     1       5.884   4.276  14.134  0.00  0.00    +0.000 C 
BRANCH  21  23
ATOM     23  C   UNL     1       7.479   5.032  15.971  0.00  0.00    +0.000 C 
BRANCH  23  29
ATOM     24  C   UNL     1       7.581   7.929  17.221  0.00  0.00    +0.000 C 
ATOM     25  C   UNL     1       7.652   6.643  17.944  0.00  0.00    +0.000 A 
ATOM     26  C   UNL     1       7.819   6.365  19.284  0.00  0.00    +0.000 A 
ATOM     27  N   UNL     1       7.826   5.017  19.482  0.00  0.00    +0.000 NA
ATOM     28  N   UNL     1       7.682   4.430  18.302  0.00  0.00    +0.000 NA
ATOM     29  N   UNL     1       7.572   5.397  17.373  0.00  0.00    +0.000 N 
ENDBRANCH  23  29
ENDBRANCH  21  23
ENDBRANCH   1  21
TORSDOF 6
ENDMDL
MODEL 3
REMARK VINA RESULT:      -8.2      1.986      2.971
REMARK  Name = 
REMARK  8 active torsions:
REMARK  status: ('A' for Active; 'I' for Inactive)
REMARK    1  A    between atoms: C_1  and  C_2
REMARK    2  A    between atoms: N_6  and  C_7
REMARK    3  A    between atoms: C_7  and  C_8
REMARK    4  A    between atoms: C_8  and  C_9
REMARK    5  A    between atoms: C_8  and  C_10
REMARK    6  A    between atoms: C_14  and  N_15
REMARK    7  A    between atoms: C_16  and  C_18
REMARK    8  A    between atoms: C_22  and  C_23
REMARK                            x       y       z     vdW  Elec       q    Type
REMARK                         _______ _______ _______ _____ _____    ______ ____
ROOT
ATOM      1  C   UNL     1       4.340   5.432  17.125  0.00  0.00    +0.000 A 
ATOM      2  C   UNL     1       3.825   4.148  17.356  0.00  0.00    +0.000 A 
ATOM      3  C   UNL     1       2.759   3.957  18.230  0.00  0.00    +0.000 A 
ATOM      4  C   UNL     1       2.186   5.044  18.885  0.00  0.00    +0.000 A 
ATOM      5  C   UNL     1       2.665   6.338  18.677  0.00  0.00    +0.000 A 
ATOM      6  C   UNL     1       3.733   6.526  17.784  0.00  0.00    +0.000 A 
ENDROOT
BRANCH   5   7
ATOM      7  N   UNL     1       2.114   7.467  19.325  0.00  0.00    +0.000 N 
ATOM      8  C   UNL     1       1.708   8.647  18.719  0.00  0.00    +0.000 C 
ATOM      9  O   UNL     1       1.738   8.907  17.522  0.00  0.00    +0.000 OA
ATOM     10  H   UNL     1       1.940   7.410  20.325  0.00  0.00    +0.000 HD
BRANCH   8  11
ATOM     11  C   UNL     1       1.150   9.675  19.656  0.00  0.00    +0.000 A 
ATOM     12  C   UNL     1       1.198  11.017  19.292  0.00  0.00    +0.000 A 
ATOM     13  C   UNL     1       0.660  11.958  20.159  0.00  0.00    +0.000 A 
ATOM     14  C   UNL     1       0.094  11.531  21.356  0.00  0.00    +0.000 A 
ATOM     15  C   UNL     1       0.075  10.166  21.662  0.00  0.00    +0.000 A 
ATOM     16  N   UNL     1       0.603   9.227  20.819  0.00  0.00    +0.000 NA
BRANCH  15  17
ATOM     17  C   UNL     1      -0.556   9.704  22.972  0.00  0.00    +0.000 C 
ATOM     18  F   UNL     1      -1.533  10.542  23.430  0.00  0.00    +0.000 F 
ATOM     19  F   UNL     1      -1.145   8.479  22.869  0.00  0.00    +0.000 F 
ATOM     20  F   UNL     1       0.346   9.605  23.989  0.00  0.00    +0.000 F 
ENDBRANCH  15  17
ENDBRANCH   8  11
ENDBRANCH   5   7
BRANCH   1  21
ATOM     21  C   UNL     1       5.496   5.668  16.149  0.00  0.00    +0.000 C 
ATOM     22  C   UNL     1       5.151   6.866  15.255  0.00  0.00    +0.000 C 
BRANCH  21  23
ATOM     23  C   UNL     1       5.861   4.419  15.311  0.00  0.00    +0.000 C 
BRANCH  23  29
ATOM     24  C   UNL     1       5.499   3.274  12.391  0.00  0.00    +0.000 C 
ATOM     25  C   UNL     1       6.563   4.183  12.867  0.00  0.00    +0.000 A 
ATOM     26  C   UNL     1       7.656   4.715  12.219  0.00  0.00    +0.000 A 
ATOM     27  N   UNL     1       8.365   5.505  13.075  0.00  0.00    +0.000 NA
ATOM     28  N   UNL     1       7.760   5.476  14.254  0.00  0.00    +0.000 NA
ATOM     29  N   UNL     1       6.673   4.690  14.139  0.00  0.00    +0.000 N 
ENDBRANCH  23  29
ENDBRANCH  21  23
ENDBRANCH   1  21
TORSDOF 6
ENDMDL
MODEL 4
REMARK VINA RESULT:      -8.2      2.202      2.804
REMARK  Name = 
REMARK  8 active torsions:
REMARK  status: ('A' for Active; 'I' for Inactive)
REMARK    1  A    between atoms: C_1  and  C_2
REMARK    2  A    between atoms: N_6  and  C_7
REMARK    3  A    between atoms: C_7  and  C_8
REMARK    4  A    between atoms: C_8  and  C_9
REMARK    5  A    between atoms: C_8  and  C_10
REMARK    6  A    between atoms: C_14  and  N_15
REMARK    7  A    between atoms: C_16  and  C_18
REMARK    8  A    between atoms: C_22  and  C_23
REMARK                            x       y       z     vdW  Elec       q    Type
REMARK                         _______ _______ _______ _____ _____    ______ ____
ROOT
ATOM      1  C   UNL     1       4.366   4.768  16.887  0.00  0.00    +0.000 A 
ATOM      2  C   UNL     1       3.622   3.582  16.969  0.00  0.00    +0.000 A 
ATOM      3  C   UNL     1       2.412   3.548  17.654  0.00  0.00    +0.000 A 
ATOM      4  C   UNL     1       1.920   4.699  18.265  0.00  0.00    +0.000 A 
ATOM      5  C   UNL     1       2.626   5.901  18.201  0.00  0.00    +0.000 A 
ATOM      6  C   UNL     1       3.842   5.931  17.497  0.00  0.00    +0.000 A 
ENDROOT
BRANCH   5   7
ATOM      7  N   UNL     1       2.163   7.089  18.812  0.00  0.00    +0.000 N 
ATOM      8  C   UNL     1       2.029   8.328  18.202  0.00  0.00    +0.000 C 
ATOM      9  O   UNL     1       2.267   8.601  17.032  0.00  0.00    +0.000 OA
ATOM     10  H   UNL     1       1.844   7.041  19.775  0.00  0.00    +0.000 HD
BRANCH   8  11
ATOM     11  C   UNL     1       1.503   9.412  19.093  0.00  0.00    +0.000 A 
ATOM     12  C   UNL     1       1.101   9.089  20.385  0.00  0.00    +0.000 A 
ATOM     13  C   UNL     1       0.634  10.105  21.208  0.00  0.00    +0.000 A 
ATOM     14  C   UNL     1       0.585  11.406  20.716  0.00  0.00    +0.000 A 
ATOM     15  C   UNL     1       1.006  11.665  19.407  0.00  0.00    +0.000 A 
ATOM     16  N   UNL     1       1.467  10.674  18.584  0.00  0.00    +0.000 NA
BRANCH  15  17
ATOM     17  C   UNL     1       0.958  13.096  18.878  0.00  0.00    +0.000 C 
ATOM     18  F   UNL     1       1.191  14.038  19.839  0.00  0.00    +0.000 F 
ATOM     19  F   UNL     1       1.886  13.328  17.907  0.00  0.00    +0.000 F 
ATOM     20  F   UNL     1      -0.249  13.419  18.333  0.00  0.00    +0.000 F 
ENDBRANCH  15  17
ENDBRANCH   8  11
ENDBRANCH   5   7
BRANCH   1  21
ATOM     21  C   UNL     1       5.688   4.834  16.118  0.00  0.00    +0.000 C 
ATOM     22  C   UNL     1       5.691   3.739  15.044  0.00  0.00    +0.000 C 
BRANCH  21  23
ATOM     23  C   UNL     1       6.937   4.742  17.028  0.00  0.00    +0.000 C 
BRANCH  23  29
ATOM     24  C   UNL     1       8.011   5.522  19.892  0.00  0.00    +0.000 C 
ATOM     25  C   UNL     1       7.911   6.400  18.708  0.00  0.00    +0.000 A 
ATOM     26  C   UNL     1       8.197   7.738  18.545  0.00  0.00    +0.000 A 
ATOM     27  N   UNL     1       7.941   8.116  17.261  0.00  0.00    +0.000 NA
ATOM     28  N   UNL     1       7.485   7.057  16.606  0.00  0.00    +0.000 NA
ATOM     29  N   UNL     1       7.468   6.020  17.464  0.00  0.00    +0.000 N 
ENDBRANCH  23  29
ENDBRANCH  21  23
ENDBRANCH   1  21
TORSDOF 6
ENDMDL
MODEL 5
REMARK VINA RESULT:      -8.2      1.659      2.129
REMARK  Name = 
REMARK  8 active torsions:
REMARK  status: ('A' for Active; 'I' for Inactive)
REMARK    1  A    between atoms: C_1  and  C_2
REMARK    2  A    between atoms: N_6  and  C_7
REMARK    3  A    between atoms: C_7  and  C_8
REMARK    4  A    between atoms: C_8  and  C_9
REMARK    5  A    between atoms: C_8  and  C_10
REMARK    6  A    between atoms: C_14  and  N_15
REMARK    7  A    between atoms: C_16  and  C_18
REMARK    8  A    between atoms: C_22  and  C_23
REMARK                            x       y       z     vdW  Elec       q    Type
REMARK                         _______ _______ _______ _____ _____    ______ ____
ROOT
ATOM      1  C   UNL     1       4.738   4.840  16.648  0.00  0.00    +0.000 A 
ATOM      2  C   UNL     1       4.481   3.487  16.912  0.00  0.00    +0.000 A 
ATOM      3  C   UNL     1       3.557   3.117  17.884  0.00  0.00    +0.000 A 
ATOM      4  C   UNL     1       2.870   4.090  18.606  0.00  0.00    +0.000 A 
ATOM      5  C   UNL     1       3.092   5.447  18.368  0.00  0.00    +0.000 A 
ATOM      6  C   UNL     1       4.017   5.815  17.376  0.00  0.00    +0.000 A 
ENDROOT
BRANCH   5   7
ATOM      7  N   UNL     1       2.419   6.465  19.081  0.00  0.00    +0.000 N 
ATOM      8  C   UNL     1       2.284   7.790  18.693  0.00  0.00    +0.000 C 
ATOM      9  O   UNL     1       2.705   8.300  17.662  0.00  0.00    +0.000 OA
ATOM     10  H   UNL     1       1.934   6.211  19.938  0.00  0.00    +0.000 HD
BRANCH   8  11
ATOM     11  C   UNL     1       1.508   8.648  19.645  0.00  0.00    +0.000 A 
ATOM     12  C   UNL     1       1.416   8.264  20.979  0.00  0.00    +0.000 A 
ATOM     13  C   UNL     1       0.711   9.076  21.856  0.00  0.00    +0.000 A 
ATOM     14  C   UNL     1       0.123  10.242  21.375  0.00  0.00    +0.000 A 
ATOM     15  C   UNL     1       0.253  10.573  20.022  0.00  0.00    +0.000 A 
ATOM     16  N   UNL     1       0.944   9.781  19.145  0.00  0.00    +0.000 NA
BRANCH  15  17
ATOM     17  C   UNL     1      -0.386  11.858  19.504  0.00  0.00    +0.000 C 
ATOM     18  F   UNL     1       0.482  12.911  19.446  0.00  0.00    +0.000 F 
ATOM     19  F   UNL     1      -0.883  11.726  18.242  0.00  0.00    +0.000 F 
ATOM     20  F   UNL     1      -1.425  12.282  20.277  0.00  0.00    +0.000 F 
ENDBRANCH  15  17
ENDBRANCH   8  11
ENDBRANCH   5   7
BRANCH   1  21
ATOM     21  C   UNL     1       5.732   5.271  15.565  0.00  0.00    +0.000 C 
ATOM     22  C   UNL     1       5.431   4.492  14.279  0.00  0.00    +0.000 C 
BRANCH  21  23
ATOM     23  C   UNL     1       7.212   5.117  15.990  0.00  0.00    +0.000 C 
BRANCH  23  29
ATOM     24  C   UNL     1       7.427   7.991  17.278  0.00  0.00    +0.000 C 
ATOM     25  C   UNL     1       7.619   6.693  17.957  0.00  0.00    +0.000 A 
ATOM     26  C   UNL     1       7.971   6.394  19.256  0.00  0.00    +0.000 A 
ATOM     27  N   UNL     1       8.030   5.042  19.422  0.00  0.00    +0.000 NA
ATOM     28  N   UNL     1       7.740   4.475  18.260  0.00  0.00    +0.000 NA
ATOM     29  N   UNL     1       7.486   5.457  17.375  0.00  0.00    +0.000 N 
ENDBRANCH  23  29
ENDBRANCH  21  23
ENDBRANCH   1  21
TORSDOF 6
ENDMDL
MODEL 6
REMARK VINA RESULT:      -8.0      2.511      3.495
REMARK  Name = 
REMARK  8 active torsions:
REMARK  status: ('A' for Active; 'I' for Inactive)
REMARK    1  A    between atoms: C_1  and  C_2
REMARK    2  A    between atoms: N_6  and  C_7
REMARK    3  A    between atoms: C_7  and  C_8
REMARK    4  A    between atoms: C_8  and  C_9
REMARK    5  A    between atoms: C_8  and  C_10
REMARK    6  A    between atoms: C_14  and  N_15
REMARK    7  A    between atoms: C_16  and  C_18
REMARK    8  A    between atoms: C_22  and  C_23
REMARK                            x       y       z     vdW  Elec       q    Type
REMARK                         _______ _______ _______ _____ _____    ______ ____
ROOT
ATOM      1  C   UNL     1       4.795   5.131  17.717  0.00  0.00    +0.000 A 
ATOM      2  C   UNL     1       4.778   3.809  18.184  0.00  0.00    +0.000 A 
ATOM      3  C   UNL     1       4.002   3.454  19.283  0.00  0.00    +0.000 A 
ATOM      4  C   UNL     1       3.227   4.411  19.933  0.00  0.00    +0.000 A 
ATOM      5  C   UNL     1       3.210   5.736  19.495  0.00  0.00    +0.000 A 
ATOM      6  C   UNL     1       3.986   6.085  18.377  0.00  0.00    +0.000 A 
ENDROOT
BRANCH   5   7
ATOM      7  N   UNL     1       2.441   6.738  20.129  0.00  0.00    +0.000 N 
ATOM      8  C   UNL     1       1.916   7.874  19.530  0.00  0.00    +0.000 C 
ATOM      9  O   UNL     1       2.012   8.195  18.351  0.00  0.00    +0.000 OA
ATOM     10  H   UNL     1       2.191   6.607  21.105  0.00  0.00    +0.000 HD
BRANCH   8  11
ATOM     11  C   UNL     1       1.129   8.762  20.446  0.00  0.00    +0.000 A 
ATOM     12  C   UNL     1       1.228   8.570  21.820  0.00  0.00    +0.000 A 
ATOM     13  C   UNL     1       0.510   9.410  22.660  0.00  0.00    +0.000 A 
ATOM     14  C   UNL     1      -0.280  10.411  22.103  0.00  0.00    +0.000 A 
ATOM     15  C   UNL     1      -0.335  10.552  20.712  0.00  0.00    +0.000 A 
ATOM     16  N   UNL     1       0.366   9.731  19.871  0.00  0.00    +0.000 NA
BRANCH  15  17
ATOM     17  C   UNL     1      -1.196  11.658  20.108  0.00  0.00    +0.000 C 
ATOM     18  F   UNL     1      -0.475  12.597  19.428  0.00  0.00    +0.000 F 
ATOM     19  F   UNL     1      -2.111  11.183  19.216  0.00  0.00    +0.000 F 
ATOM     20  F   UNL     1      -1.905  12.349  21.045  0.00  0.00    +0.000 F 
ENDBRANCH  15  17
ENDBRANCH   8  11
ENDBRANCH   5   7
BRANCH   1  21
ATOM     21  C   UNL     1       5.622   5.539  16.495  0.00  0.00    +0.000 C 
ATOM     22  C   UNL     1       4.939   6.730  15.811  0.00  0.00    +0.000 C 
BRANCH  21  23
ATOM     23  C   UNL     1       5.867   4.378  15.501  0.00  0.00    +0.000 C 
BRANCH  23  29
ATOM     24  C   UNL     1       5.539   3.396  12.519  0.00  0.00    +0.000 C 
ATOM     25  C   UNL     1       6.589   4.288  13.054  0.00  0.00    +0.000 A 
ATOM     26  C   UNL     1       7.681   4.868  12.445  0.00  0.00    +0.000 A 
ATOM     27  N   UNL     1       8.375   5.615  13.350  0.00  0.00    +0.000 NA
ATOM     28  N   UNL     1       7.762   5.514  14.520  0.00  0.00    +0.000 NA
ATOM     29  N   UNL     1       6.685   4.723  14.353  0.00  0.00    +0.000 N 
ENDBRANCH  23  29
ENDBRANCH  21  23
ENDBRANCH   1  21
TORSDOF 6
ENDMDL
MODEL 7
REMARK VINA RESULT:      -8.0      5.731      7.538
REMARK  Name = 
REMARK  8 active torsions:
REMARK  status: ('A' for Active; 'I' for Inactive)
REMARK    1  A    between atoms: C_1  and  C_2
REMARK    2  A    between atoms: N_6  and  C_7
REMARK    3  A    between atoms: C_7  and  C_8
REMARK    4  A    between atoms: C_8  and  C_9
REMARK    5  A    between atoms: C_8  and  C_10
REMARK    6  A    between atoms: C_14  and  N_15
REMARK    7  A    between atoms: C_16  and  C_18
REMARK    8  A    between atoms: C_22  and  C_23
REMARK                            x       y       z     vdW  Elec       q    Type
REMARK                         _______ _______ _______ _____ _____    ______ ____
ROOT
ATOM      1  C   UNL     1       6.561   6.174  17.249  0.00  0.00    +0.000 A 
ATOM      2  C   UNL     1       6.984   5.399  18.339  0.00  0.00    +0.000 A 
ATOM      3  C   UNL     1       7.916   5.897  19.244  0.00  0.00    +0.000 A 
ATOM      4  C   UNL     1       8.439   7.177  19.080  0.00  0.00    +0.000 A 
ATOM      5  C   UNL     1       8.039   7.982  18.013  0.00  0.00    +0.000 A 
ATOM      6  C   UNL     1       7.087   7.479  17.110  0.00  0.00    +0.000 A 
ENDROOT
BRANCH   5   7
ATOM      7  N   UNL     1       8.549   9.285  17.810  0.00  0.00    +0.000 N 
ATOM      8  C   UNL     1       9.000  10.154  18.793  0.00  0.00    +0.000 C 
ATOM      9  O   UNL     1       9.053   9.938  19.998  0.00  0.00    +0.000 OA
ATOM     10  H   UNL     1       8.653   9.616  16.855  0.00  0.00    +0.000 HD
BRANCH   8  11
ATOM     11  C   UNL     1       9.497  11.473  18.284  0.00  0.00    +0.000 A 
ATOM     12  C   UNL     1      10.766  11.544  17.720  0.00  0.00    +0.000 A 
ATOM     13  C   UNL     1      11.209  12.767  17.235  0.00  0.00    +0.000 A 
ATOM     14  C   UNL     1      10.372  13.876  17.329  0.00  0.00    +0.000 A 
ATOM     15  C   UNL     1       9.106  13.737  17.907  0.00  0.00    +0.000 A 
ATOM     16  N   UNL     1       8.657  12.539  18.391  0.00  0.00    +0.000 NA
BRANCH  15  17
ATOM     17  C   UNL     1       8.190  14.955  17.998  0.00  0.00    +0.000 C 
ATOM     18  F   UNL     1       8.787  16.115  17.593  0.00  0.00    +0.000 F 
ATOM     19  F   UNL     1       7.073  14.831  17.227  0.00  0.00    +0.000 F 
ATOM     20  F   UNL     1       7.750  15.193  19.266  0.00  0.00    +0.000 F 
ENDBRANCH  15  17
ENDBRANCH   8  11
ENDBRANCH   5   7
BRANCH   1  21
ATOM     21  C   UNL     1       5.518   5.658  16.254  0.00  0.00    +0.000 C 
ATOM     22  C   UNL     1       4.212   5.377  17.008  0.00  0.00    +0.000 C 
BRANCH  21  23
ATOM     23  C   UNL     1       5.989   4.420  15.453  0.00  0.00    +0.000 C 
BRANCH  23  29
ATOM     24  C   UNL     1       5.468   3.343  12.532  0.00  0.00    +0.000 C 
ATOM     25  C   UNL     1       6.551   4.247  12.969  0.00  0.00    +0.000 A 
ATOM     26  C   UNL     1       7.603   4.803  12.272  0.00  0.00    +0.000 A 
ATOM     27  N   UNL     1       8.354   5.577  13.106  0.00  0.00    +0.000 NA
ATOM     28  N   UNL     1       7.818   5.516  14.316  0.00  0.00    +0.000 NA
ATOM     29  N   UNL     1       6.731   4.724  14.244  0.00  0.00    +0.000 N 
ENDBRANCH  23  29
ENDBRANCH  21  23
ENDBRANCH   1  21
TORSDOF 6
ENDMDL
MODEL 8
REMARK VINA RESULT:      -7.9      4.012      8.801
REMARK  Name = 
REMARK  8 active torsions:
REMARK  status: ('A' for Active; 'I' for Inactive)
REMARK    1  A    between atoms: C_1  and  C_2
REMARK    2  A    between atoms: N_6  and  C_7
REMARK    3  A    between atoms: C_7  and  C_8
REMARK    4  A    between atoms: C_8  and  C_9
REMARK    5  A    between atoms: C_8  and  C_10
REMARK    6  A    between atoms: C_14  and  N_15
REMARK    7  A    between atoms: C_16  and  C_18
REMARK    8  A    between atoms: C_22  and  C_23
REMARK                            x       y       z     vdW  Elec       q    Type
REMARK                         _______ _______ _______ _____ _____    ______ ____
ROOT
ATOM      1  C   UNL     1      -0.217  11.448  18.596  0.00  0.00    +0.000 A 
ATOM      2  C   UNL     1       0.730  12.481  18.551  0.00  0.00    +0.000 A 
ATOM      3  C   UNL     1       2.077  12.201  18.343  0.00  0.00    +0.000 A 
ATOM      4  C   UNL     1       2.502  10.886  18.172  0.00  0.00    +0.000 A 
ATOM      5  C   UNL     1       1.590   9.830  18.203  0.00  0.00    +0.000 A 
ATOM      6  C   UNL     1       0.230  10.120  18.400  0.00  0.00    +0.000 A 
ENDROOT
BRANCH   5   7
ATOM      7  N   UNL     1       1.981   8.482  18.038  0.00  0.00    +0.000 N 
ATOM      8  C   UNL     1       2.173   7.551  19.050  0.00  0.00    +0.000 C 
ATOM      9  O   UNL     1       2.018   7.731  20.252  0.00  0.00    +0.000 OA
ATOM     10  H   UNL     1       2.087   8.123  17.093  0.00  0.00    +0.000 HD
BRANCH   8  11
ATOM     11  C   UNL     1       2.579   6.187  18.581  0.00  0.00    +0.000 A 
ATOM     12  C   UNL     1       3.649   6.068  17.700  0.00  0.00    +0.000 A 
ATOM     13  C   UNL     1       4.029   4.798  17.288  0.00  0.00    +0.000 A 
ATOM     14  C   UNL     1       3.332   3.693  17.767  0.00  0.00    +0.000 A 
ATOM     15  C   UNL     1       2.266   3.881  18.652  0.00  0.00    +0.000 A 
ATOM     16  N   UNL     1       1.878   5.127  19.067  0.00  0.00    +0.000 NA
BRANCH  15  17
ATOM     17  C   UNL     1       1.512   2.665  19.181  0.00  0.00    +0.000 C 
ATOM     18  F   UNL     1       2.238   1.510  19.127  0.00  0.00    +0.000 F 
ATOM     19  F   UNL     1       1.141   2.802  20.486  0.00  0.00    +0.000 F 
ATOM     20  F   UNL     1       0.366   2.409  18.488  0.00  0.00    +0.000 F 
ENDBRANCH  15  17
ENDBRANCH   8  11
ENDBRANCH   5   7
BRANCH   1  21
ATOM     21  C   UNL     1      -1.707  11.734  18.798  0.00  0.00    +0.000 C 
ATOM     22  C   UNL     1      -1.941  12.130  20.261  0.00  0.00    +0.000 C 
BRANCH  21  23
ATOM     23  C   UNL     1      -2.624  10.561  18.373  0.00  0.00    +0.000 C 
BRANCH  23  29
ATOM     24  C   UNL     1      -5.143  11.911  17.031  0.00  0.00    +0.000 C 
ATOM     25  C   UNL     1      -4.100  11.106  16.362  0.00  0.00    +0.000 A 
ATOM     26  C   UNL     1      -3.969  10.704  15.050  0.00  0.00    +0.000 A 
ATOM     27  N   UNL     1      -2.834   9.963  14.902  0.00  0.00    +0.000 NA
ATOM     28  N   UNL     1      -2.248   9.872  16.087  0.00  0.00    +0.000 NA
ATOM     29  N   UNL     1      -2.997  10.558  16.970  0.00  0.00    +0.000 N 
ENDBRANCH  23  29
ENDBRANCH  21  23
ENDBRANCH   1  21
TORSDOF 6
ENDMDL
MODEL 9
REMARK VINA RESULT:      -7.8      4.513      9.513
REMARK  Name = 
REMARK  8 active torsions:
REMARK  status: ('A' for Active; 'I' for Inactive)
REMARK    1  A    between atoms: C_1  and  C_2
REMARK    2  A    between atoms: N_6  and  C_7
REMARK    3  A    between atoms: C_7  and  C_8
REMARK    4  A    between atoms: C_8  and  C_9
REMARK    5  A    between atoms: C_8  and  C_10
REMARK    6  A    between atoms: C_14  and  N_15
REMARK    7  A    between atoms: C_16  and  C_18
REMARK    8  A    between atoms: C_22  and  C_23
REMARK                            x       y       z     vdW  Elec       q    Type
REMARK                         _______ _______ _______ _____ _____    ______ ____
ROOT
ATOM      1  C   UNL     1      -1.277  10.701  18.210  0.00  0.00    +0.000 A 
ATOM      2  C   UNL     1      -0.751  11.918  18.669  0.00  0.00    +0.000 A 
ATOM      3  C   UNL     1       0.617  12.070  18.865  0.00  0.00    +0.000 A 
ATOM      4  C   UNL     1       1.486  11.014  18.602  0.00  0.00    +0.000 A 
ATOM      5  C   UNL     1       1.003   9.790  18.137  0.00  0.00    +0.000 A 
ATOM      6  C   UNL     1      -0.379   9.646  17.929  0.00  0.00    +0.000 A 
ENDROOT
BRANCH   5   7
ATOM      7  N   UNL     1       1.851   8.693  17.862  0.00  0.00    +0.000 N 
ATOM      8  C   UNL     1       2.293   7.747  18.776  0.00  0.00    +0.000 C 
ATOM      9  O   UNL     1       2.013   7.688  19.968  0.00  0.00    +0.000 OA
ATOM     10  H   UNL     1       2.132   8.531  16.899  0.00  0.00    +0.000 HD
BRANCH   8  11
ATOM     11  C   UNL     1       3.180   6.684  18.201  0.00  0.00    +0.000 A 
ATOM     12  C   UNL     1       4.131   7.040  17.251  0.00  0.00    +0.000 A 
ATOM     13  C   UNL     1       4.959   6.050  16.739  0.00  0.00    +0.000 A 
ATOM     14  C   UNL     1       4.811   4.743  17.191  0.00  0.00    +0.000 A 
ATOM     15  C   UNL     1       3.835   4.450  18.150  0.00  0.00    +0.000 A 
ATOM     16  N   UNL     1       3.011   5.415  18.662  0.00  0.00    +0.000 NA
BRANCH  15  17
ATOM     17  C   UNL     1       3.685   3.016  18.649  0.00  0.00    +0.000 C 
ATOM     18  F   UNL     1       4.734   2.595  19.415  0.00  0.00    +0.000 F 
ATOM     19  F   UNL     1       2.575   2.841  19.420  0.00  0.00    +0.000 F 
ATOM     20  F   UNL     1       3.586   2.110  17.634  0.00  0.00    +0.000 F 
ENDBRANCH  15  17
ENDBRANCH   8  11
ENDBRANCH   5   7
BRANCH   1  21
ATOM     21  C   UNL     1      -2.777  10.518  17.964  0.00  0.00    +0.000 C 
ATOM     22  C   UNL     1      -2.974   9.788  16.630  0.00  0.00    +0.000 C 
BRANCH  21  23
ATOM     23  C   UNL     1      -3.576  11.844  18.009  0.00  0.00    +0.000 C 
BRANCH  23  29
ATOM     24  C   UNL     1      -6.602  10.995  18.306  0.00  0.00    +0.000 C 
ATOM     25  C   UNL     1      -5.762  11.669  19.318  0.00  0.00    +0.000 A 
ATOM     26  C   UNL     1      -6.060  12.129  20.582  0.00  0.00    +0.000 A 
ATOM     27  N   UNL     1      -4.953  12.691  21.145  0.00  0.00    +0.000 NA
ATOM     28  N   UNL     1      -3.963  12.613  20.268  0.00  0.00    +0.000 NA
ATOM     29  N   UNL     1      -4.436  11.996  19.169  0.00  0.00    +0.000 N 
ENDBRANCH  23  29
ENDBRANCH  21  23
ENDBRANCH   1  21
TORSDOF 6
ENDMDL
