MODEL 1
REMARK VINA RESULT:      -9.6      0.000      0.000
REMARK  Name = 
REMARK  8 active torsions:
REMARK  status: ('A' for Active; 'I' for Inactive)
REMARK    1  A    between atoms: C_1  and  N_2
REMARK    2  A    between atoms: C_6  and  C_7
REMARK    3  A    between atoms: C_7  and  C_8
REMARK    4  A    between atoms: C_8  and  C_9
REMARK    5  A    between atoms: C_13  and  N_14
REMARK    6  A    between atoms: C_19  and  C_20
REMARK    7  A    between atoms: C_20  and  C_21
REMARK    8  A    between atoms: C_27  and  C_28
REMARK                            x       y       z     vdW  Elec       q    Type
REMARK                         _______ _______ _______ _____ _____    ______ ____
ROOT
ATOM      1  N   UNL     1       1.383   8.264  20.196  0.00  0.00    +0.000 N 
ATOM      2  C   UNL     1       1.460   6.916  20.714  0.00  0.00    +0.000 C 
ATOM      3  C   UNL     1       2.231   6.175  19.700  0.00  0.00    +0.000 A 
ATOM      4  C   UNL     1       2.676   7.043  18.708  0.00  0.00    +0.000 A 
ATOM      5  C   UNL     1       3.481   6.587  17.676  0.00  0.00    +0.000 A 
ATOM      6  C   UNL     1       3.826   5.215  17.659  0.00  0.00    +0.000 A 
ATOM      7  C   UNL     1       3.329   4.355  18.668  0.00  0.00    +0.000 A 
ATOM      8  C   UNL     1       2.504   4.815  19.692  0.00  0.00    +0.000 A 
ATOM      9  C   UNL     1       2.109   8.394  19.006  0.00  0.00    +0.000 C 
ATOM     10  O   UNL     1       2.274   9.363  18.289  0.00  0.00    +0.000 OA
ENDROOT
BRANCH   1  15
ATOM     11  C   UNL     1      -0.961  11.174  20.559  0.00  0.00    +0.000 A 
ATOM     12  C   UNL     1      -1.046  11.247  21.955  0.00  0.00    +0.000 A 
ATOM     13  C   UNL     1      -0.389  10.318  22.779  0.00  0.00    +0.000 A 
ATOM     14  C   UNL     1       0.405   9.296  22.236  0.00  0.00    +0.000 A 
ATOM     15  C   UNL     1       0.540   9.195  20.860  0.00  0.00    +0.000 A 
ATOM     16  C   UNL     1      -0.177  10.119  20.068  0.00  0.00    +0.000 A 
BRANCH  11  17
ATOM     17  C   UNL     1      -1.680  12.183  19.520  0.00  0.00    +0.000 C 
ATOM     18  C   UNL     1      -3.219  12.312  19.671  0.00  0.00    +0.000 C 
ATOM     19  O   UNL     1      -3.463  11.846  18.330  0.00  0.00    +0.000 OA
ATOM     20  C   UNL     1      -2.054  11.625  18.110  0.00  0.00    +0.000 C 
BRANCH  17  21
ATOM     21  C   UNL     1      -0.952  13.550  19.452  0.00  0.00    +0.000 C 
BRANCH  21  27
ATOM     22  C   UNL     1       1.050  14.393  21.751  0.00  0.00    +0.000 C 
ATOM     23  N   UNL     1       1.384  13.836  20.467  0.00  0.00    +0.000 N 
ATOM     24  C   UNL     1       2.653  13.612  20.022  0.00  0.00    +0.000 A 
ATOM     25  N   UNL     1       2.613  13.142  18.800  0.00  0.00    +0.000 NA
ATOM     26  N   UNL     1       1.291  13.073  18.428  0.00  0.00    +0.000 NA
ATOM     27  C   UNL     1       0.545  13.466  19.441  0.00  0.00    +0.000 A 
ENDBRANCH  21  27
ENDBRANCH  17  21
ENDBRANCH  11  17
ENDBRANCH   1  15
BRANCH   8  28
ATOM     28  C   UNL     1       1.943   3.856  20.715  0.00  0.00    +0.000 C 
ATOM     29  F   UNL     1       2.304   4.139  21.996  0.00  0.00    +0.000 F 
ATOM     30  F   UNL     1       0.582   3.840  20.703  0.00  0.00    +0.000 F 
ATOM     31  F   UNL     1       2.338   2.574  20.498  0.00  0.00    +0.000 F 
ENDBRANCH   8  28
BRANCH   6  32
ATOM     32  C   UNL     1       4.768   4.631  16.622  0.00  0.00    +0.000 C 
BRANCH  32  33
ATOM     33  C   UNL     1       6.265   4.980  16.768  0.00  0.00    +0.000 C 
ATOM     34  C   UNL     1       6.811   4.843  18.178  0.00  0.00    +0.000 C 
ATOM     35  C   UNL     1       7.853   5.929  18.269  0.00  0.00    +0.000 C 
ATOM     36  C   UNL     1       7.382   6.971  17.281  0.00  0.00    +0.000 C 
ATOM     37  O   UNL     1       6.566   6.309  16.309  0.00  0.00    +0.000 OA
ENDBRANCH  32  33
ENDBRANCH   6  32
TORSDOF 7
ENDMDL
MODEL 2
REMARK VINA RESULT:      -9.5      0.548      1.019
REMARK  Name = 
REMARK  8 active torsions:
REMARK  status: ('A' for Active; 'I' for Inactive)
REMARK    1  A    between atoms: C_1  and  N_2
REMARK    2  A    between atoms: C_6  and  C_7
REMARK    3  A    between atoms: C_7  and  C_8
REMARK    4  A    between atoms: C_8  and  C_9
REMARK    5  A    between atoms: C_13  and  N_14
REMARK    6  A    between atoms: C_19  and  C_20
REMARK    7  A    between atoms: C_20  and  C_21
REMARK    8  A    between atoms: C_27  and  C_28
REMARK                            x       y       z     vdW  Elec       q    Type
REMARK                         _______ _______ _______ _____ _____    ______ ____
ROOT
ATOM      1  N   UNL     1       1.359   8.155  20.333  0.00  0.00    +0.000 N 
ATOM      2  C   UNL     1       1.454   6.800  20.831  0.00  0.00    +0.000 C 
ATOM      3  C   UNL     1       2.207   6.077  19.791  0.00  0.00    +0.000 A 
ATOM      4  C   UNL     1       2.627   6.961  18.802  0.00  0.00    +0.000 A 
ATOM      5  C   UNL     1       3.412   6.523  17.747  0.00  0.00    +0.000 A 
ATOM      6  C   UNL     1       3.762   5.153  17.704  0.00  0.00    +0.000 A 
ATOM      7  C   UNL     1       3.291   4.277  18.711  0.00  0.00    +0.000 A 
ATOM      8  C   UNL     1       2.485   4.718  19.758  0.00  0.00    +0.000 A 
ATOM      9  C   UNL     1       2.060   8.305  19.130  0.00  0.00    +0.000 C 
ATOM     10  O   UNL     1       2.205   9.284  18.424  0.00  0.00    +0.000 OA
ENDROOT
BRANCH   1  15
ATOM     11  C   UNL     1      -0.862  11.143  20.814  0.00  0.00    +0.000 A 
ATOM     12  C   UNL     1      -1.018  11.110  22.205  0.00  0.00    +0.000 A 
ATOM     13  C   UNL     1      -0.450  10.087  22.983  0.00  0.00    +0.000 A 
ATOM     14  C   UNL     1       0.323   9.072  22.399  0.00  0.00    +0.000 A 
ATOM     15  C   UNL     1       0.526   9.072  21.028  0.00  0.00    +0.000 A 
ATOM     16  C   UNL     1      -0.103  10.090  20.279  0.00  0.00    +0.000 A 
BRANCH  11  17
ATOM     17  C   UNL     1      -1.476  12.266  19.826  0.00  0.00    +0.000 C 
ATOM     18  C   UNL     1      -3.022  12.263  19.692  0.00  0.00    +0.000 C 
ATOM     19  O   UNL     1      -2.971  12.020  18.273  0.00  0.00    +0.000 OA
ATOM     20  C   UNL     1      -1.531  11.935  18.301  0.00  0.00    +0.000 C 
BRANCH  17  21
ATOM     21  C   UNL     1      -0.886  13.670  20.117  0.00  0.00    +0.000 C 
BRANCH  21  27
ATOM     22  C   UNL     1       1.609  13.198  18.231  0.00  0.00    +0.000 C 
ATOM     23  N   UNL     1       1.626  13.473  19.643  0.00  0.00    +0.000 N 
ATOM     24  C   UNL     1       2.750  13.541  20.410  0.00  0.00    +0.000 A 
ATOM     25  N   UNL     1       2.418  13.762  21.658  0.00  0.00    +0.000 NA
ATOM     26  N   UNL     1       1.045  13.823  21.714  0.00  0.00    +0.000 NA
ATOM     27  C   UNL     1       0.565  13.675  20.496  0.00  0.00    +0.000 A 
ENDBRANCH  21  27
ENDBRANCH  17  21
ENDBRANCH  11  17
ENDBRANCH   1  15
BRANCH   8  28
ATOM     28  C   UNL     1       1.951   3.743  20.779  0.00  0.00    +0.000 C 
ATOM     29  F   UNL     1       2.338   4.009  22.056  0.00  0.00    +0.000 F 
ATOM     30  F   UNL     1       0.590   3.721  20.796  0.00  0.00    +0.000 F 
ATOM     31  F   UNL     1       2.346   2.466  20.536  0.00  0.00    +0.000 F 
ENDBRANCH   8  28
BRANCH   6  32
ATOM     32  C   UNL     1       4.685   4.588  16.638  0.00  0.00    +0.000 C 
BRANCH  32  33
ATOM     33  C   UNL     1       6.185   4.931  16.765  0.00  0.00    +0.000 C 
ATOM     34  C   UNL     1       6.748   4.798  18.169  0.00  0.00    +0.000 C 
ATOM     35  C   UNL     1       7.795   5.880  18.244  0.00  0.00    +0.000 C 
ATOM     36  C   UNL     1       7.316   6.920  17.257  0.00  0.00    +0.000 C 
ATOM     37  O   UNL     1       6.486   6.257  16.297  0.00  0.00    +0.000 OA
ENDBRANCH  32  33
ENDBRANCH   6  32
TORSDOF 7
ENDMDL
MODEL 3
REMARK VINA RESULT:      -9.5      2.633      3.654
REMARK  Name = 
REMARK  8 active torsions:
REMARK  status: ('A' for Active; 'I' for Inactive)
REMARK    1  A    between atoms: C_1  and  N_2
REMARK    2  A    between atoms: C_6  and  C_7
REMARK    3  A    between atoms: C_7  and  C_8
REMARK    4  A    between atoms: C_8  and  C_9
REMARK    5  A    between atoms: C_13  and  N_14
REMARK    6  A    between atoms: C_19  and  C_20
REMARK    7  A    between atoms: C_20  and  C_21
REMARK    8  A    between atoms: C_27  and  C_28
REMARK                            x       y       z     vdW  Elec       q    Type
REMARK                         _______ _______ _______ _____ _____    ______ ____
ROOT
ATOM      1  N   UNL     1       1.272   8.993  19.477  0.00  0.00    +0.000 N 
ATOM      2  C   UNL     1       1.374   7.714  20.146  0.00  0.00    +0.000 C 
ATOM      3  C   UNL     1       2.284   6.926  19.296  0.00  0.00    +0.000 A 
ATOM      4  C   UNL     1       2.775   7.714  18.260  0.00  0.00    +0.000 A 
ATOM      5  C   UNL     1       3.704   7.208  17.364  0.00  0.00    +0.000 A 
ATOM      6  C   UNL     1       4.126   5.868  17.530  0.00  0.00    +0.000 A 
ATOM      7  C   UNL     1       3.581   5.086  18.577  0.00  0.00    +0.000 A 
ATOM      8  C   UNL     1       2.633   5.594  19.463  0.00  0.00    +0.000 A 
ATOM      9  C   UNL     1       2.105   9.047  18.353  0.00  0.00    +0.000 C 
ATOM     10  O   UNL     1       2.285   9.945  17.553  0.00  0.00    +0.000 OA
ENDROOT
BRANCH   1  15
ATOM     11  C   UNL     1      -1.804  11.143  19.413  0.00  0.00    +0.000 A 
ATOM     12  C   UNL     1      -1.620  11.869  20.597  0.00  0.00    +0.000 A 
ATOM     13  C   UNL     1      -0.528  11.623  21.445  0.00  0.00    +0.000 A 
ATOM     14  C   UNL     1       0.440  10.659  21.125  0.00  0.00    +0.000 A 
ATOM     15  C   UNL     1       0.315   9.929  19.953  0.00  0.00    +0.000 A 
ATOM     16  C   UNL     1      -0.823  10.174  19.155  0.00  0.00    +0.000 A 
BRANCH  11  17
ATOM     17  C   UNL     1      -3.025  11.340  18.371  0.00  0.00    +0.000 C 
ATOM     18  C   UNL     1      -3.790  10.045  17.986  0.00  0.00    +0.000 C 
ATOM     19  O   UNL     1      -3.472  10.187  16.589  0.00  0.00    +0.000 OA
ATOM     20  C   UNL     1      -2.680  11.365  16.848  0.00  0.00    +0.000 C 
BRANCH  17  21
ATOM     21  C   UNL     1      -3.959  12.503  18.795  0.00  0.00    +0.000 C 
BRANCH  21  27
ATOM     22  C   UNL     1      -6.862  12.256  17.566  0.00  0.00    +0.000 C 
ATOM     23  N   UNL     1      -6.464  11.975  18.920  0.00  0.00    +0.000 N 
ATOM     24  C   UNL     1      -7.308  11.581  19.914  0.00  0.00    +0.000 A 
ATOM     25  N   UNL     1      -6.640  11.454  21.033  0.00  0.00    +0.000 NA
ATOM     26  N   UNL     1      -5.332  11.788  20.772  0.00  0.00    +0.000 NA
ATOM     27  C   UNL     1      -5.216  12.078  19.492  0.00  0.00    +0.000 A 
ENDBRANCH  21  27
ENDBRANCH  17  21
ENDBRANCH  11  17
ENDBRANCH   1  15
BRANCH   8  28
ATOM     28  C   UNL     1       2.029   4.711  20.528  0.00  0.00    +0.000 C 
ATOM     29  F   UNL     1       2.401   5.037  21.796  0.00  0.00    +0.000 F 
ATOM     30  F   UNL     1       0.668   4.756  20.514  0.00  0.00    +0.000 F 
ATOM     31  F   UNL     1       2.365   3.403  20.374  0.00  0.00    +0.000 F 
ENDBRANCH   8  28
BRANCH   6  32
ATOM     32  C   UNL     1       5.199   5.244  16.656  0.00  0.00    +0.000 C 
BRANCH  32  33
ATOM     33  C   UNL     1       6.658   5.660  16.943  0.00  0.00    +0.000 C 
ATOM     34  C   UNL     1       7.060   5.588  18.406  0.00  0.00    +0.000 C 
ATOM     35  C   UNL     1       8.044   6.719  18.567  0.00  0.00    +0.000 C 
ATOM     36  C   UNL     1       7.638   7.710  17.501  0.00  0.00    +0.000 C 
ATOM     37  O   UNL     1       6.954   6.986  16.473  0.00  0.00    +0.000 OA
ENDBRANCH  32  33
ENDBRANCH   6  32
TORSDOF 7
ENDMDL
MODEL 4
REMARK VINA RESULT:      -9.5      0.811      1.139
REMARK  Name = 
REMARK  8 active torsions:
REMARK  status: ('A' for Active; 'I' for Inactive)
REMARK    1  A    between atoms: C_1  and  N_2
REMARK    2  A    between atoms: C_6  and  C_7
REMARK    3  A    between atoms: C_7  and  C_8
REMARK    4  A    between atoms: C_8  and  C_9
REMARK    5  A    between atoms: C_13  and  N_14
REMARK    6  A    between atoms: C_19  and  C_20
REMARK    7  A    between atoms: C_20  and  C_21
REMARK    8  A    between atoms: C_27  and  C_28
REMARK                            x       y       z     vdW  Elec       q    Type
REMARK                         _______ _______ _______ _____ _____    ______ ____
ROOT
ATOM      1  N   UNL     1       1.390   8.144  20.321  0.00  0.00    +0.000 N 
ATOM      2  C   UNL     1       1.482   6.789  20.822  0.00  0.00    +0.000 C 
ATOM      3  C   UNL     1       2.233   6.063  19.782  0.00  0.00    +0.000 A 
ATOM      4  C   UNL     1       2.653   6.943  18.790  0.00  0.00    +0.000 A 
ATOM      5  C   UNL     1       3.436   6.501  17.735  0.00  0.00    +0.000 A 
ATOM      6  C   UNL     1       3.783   5.131  17.695  0.00  0.00    +0.000 A 
ATOM      7  C   UNL     1       3.312   4.258  18.705  0.00  0.00    +0.000 A 
ATOM      8  C   UNL     1       2.509   4.703  19.752  0.00  0.00    +0.000 A 
ATOM      9  C   UNL     1       2.089   8.289  19.117  0.00  0.00    +0.000 C 
ATOM     10  O   UNL     1       2.235   9.266  18.407  0.00  0.00    +0.000 OA
ENDROOT
BRANCH   1  15
ATOM     11  C   UNL     1      -0.814  11.144  20.801  0.00  0.00    +0.000 A 
ATOM     12  C   UNL     1      -0.977  11.108  22.191  0.00  0.00    +0.000 A 
ATOM     13  C   UNL     1      -0.420  10.079  22.968  0.00  0.00    +0.000 A 
ATOM     14  C   UNL     1       0.350   9.061  22.384  0.00  0.00    +0.000 A 
ATOM     15  C   UNL     1       0.560   9.064  21.014  0.00  0.00    +0.000 A 
ATOM     16  C   UNL     1      -0.059  10.089  20.266  0.00  0.00    +0.000 A 
BRANCH  11  17
ATOM     17  C   UNL     1      -1.416  12.275  19.813  0.00  0.00    +0.000 C 
ATOM     18  C   UNL     1      -2.919  12.121  19.459  0.00  0.00    +0.000 C 
ATOM     19  O   UNL     1      -2.649  12.003  18.049  0.00  0.00    +0.000 OA
ATOM     20  C   UNL     1      -1.225  12.069  18.277  0.00  0.00    +0.000 C 
BRANCH  17  21
ATOM     21  C   UNL     1      -1.036  13.704  20.280  0.00  0.00    +0.000 C 
BRANCH  21  27
ATOM     22  C   UNL     1      -0.359  16.274  18.566  0.00  0.00    +0.000 C 
ATOM     23  N   UNL     1       0.570  15.307  19.089  0.00  0.00    +0.000 N 
ATOM     24  C   UNL     1       1.918  15.336  18.890  0.00  0.00    +0.000 A 
ATOM     25  N   UNL     1       2.467  14.292  19.458  0.00  0.00    +0.000 NA
ATOM     26  N   UNL     1       1.457  13.552  20.027  0.00  0.00    +0.000 NA
ATOM     27  C   UNL     1       0.313  14.176  19.829  0.00  0.00    +0.000 A 
ENDBRANCH  21  27
ENDBRANCH  17  21
ENDBRANCH  11  17
ENDBRANCH   1  15
BRANCH   8  28
ATOM     28  C   UNL     1       1.974   3.731  20.776  0.00  0.00    +0.000 C 
ATOM     29  F   UNL     1       0.615   3.683  20.838  0.00  0.00    +0.000 F 
ATOM     30  F   UNL     1       2.383   2.457  20.529  0.00  0.00    +0.000 F 
ATOM     31  F   UNL     1       2.387   4.023  22.037  0.00  0.00    +0.000 F 
ENDBRANCH   8  28
BRANCH   6  32
ATOM     32  C   UNL     1       4.703   4.561  16.630  0.00  0.00    +0.000 C 
BRANCH  32  33
ATOM     33  C   UNL     1       6.204   4.902  16.753  0.00  0.00    +0.000 C 
ATOM     34  C   UNL     1       6.771   4.763  18.155  0.00  0.00    +0.000 C 
ATOM     35  C   UNL     1       7.819   5.844  18.231  0.00  0.00    +0.000 C 
ATOM     36  C   UNL     1       7.339   6.887  17.249  0.00  0.00    +0.000 C 
ATOM     37  O   UNL     1       6.506   6.229  16.290  0.00  0.00    +0.000 OA
ENDBRANCH  32  33
ENDBRANCH   6  32
TORSDOF 7
ENDMDL
MODEL 5
REMARK VINA RESULT:      -9.4      0.975      1.268
REMARK  Name = 
REMARK  8 active torsions:
REMARK  status: ('A' for Active; 'I' for Inactive)
REMARK    1  A    between atoms: C_1  and  N_2
REMARK    2  A    between atoms: C_6  and  C_7
REMARK    3  A    between atoms: C_7  and  C_8
REMARK    4  A    between atoms: C_8  and  C_9
REMARK    5  A    between atoms: C_13  and  N_14
REMARK    6  A    between atoms: C_19  and  C_20
REMARK    7  A    between atoms: C_20  and  C_21
REMARK    8  A    between atoms: C_27  and  C_28
REMARK                            x       y       z     vdW  Elec       q    Type
REMARK                         _______ _______ _______ _____ _____    ______ ____
ROOT
ATOM      1  N   UNL     1       1.355   8.080  20.423  0.00  0.00    +0.000 N 
ATOM      2  C   UNL     1       1.460   6.711  20.882  0.00  0.00    +0.000 C 
ATOM      3  C   UNL     1       2.210   6.022  19.816  0.00  0.00    +0.000 A 
ATOM      4  C   UNL     1       2.618   6.935  18.849  0.00  0.00    +0.000 A 
ATOM      5  C   UNL     1       3.398   6.531  17.777  0.00  0.00    +0.000 A 
ATOM      6  C   UNL     1       3.755   5.166  17.693  0.00  0.00    +0.000 A 
ATOM      7  C   UNL     1       3.296   4.259  18.678  0.00  0.00    +0.000 A 
ATOM      8  C   UNL     1       2.496   4.667  19.743  0.00  0.00    +0.000 A 
ATOM      9  C   UNL     1       2.046   8.267  19.219  0.00  0.00    +0.000 C 
ATOM     10  O   UNL     1       2.181   9.266  18.539  0.00  0.00    +0.000 OA
ENDROOT
BRANCH   1  15
ATOM     11  C   UNL     1      -0.869  11.047  21.005  0.00  0.00    +0.000 A 
ATOM     12  C   UNL     1      -1.023  10.968  22.395  0.00  0.00    +0.000 A 
ATOM     13  C   UNL     1      -0.452   9.921  23.138  0.00  0.00    +0.000 A 
ATOM     14  C   UNL     1       0.322   8.927  22.519  0.00  0.00    +0.000 A 
ATOM     15  C   UNL     1       0.523   8.972  21.148  0.00  0.00    +0.000 A 
ATOM     16  C   UNL     1      -0.109  10.014  20.435  0.00  0.00    +0.000 A 
BRANCH  11  17
ATOM     17  C   UNL     1      -1.487  12.201  20.056  0.00  0.00    +0.000 C 
ATOM     18  C   UNL     1      -2.752  12.911  20.605  0.00  0.00    +0.000 C 
ATOM     19  O   UNL     1      -3.556  12.506  19.480  0.00  0.00    +0.000 OA
ATOM     20  C   UNL     1      -2.458  11.757  18.917  0.00  0.00    +0.000 C 
BRANCH  17  21
ATOM     21  C   UNL     1      -0.393  13.184  19.564  0.00  0.00    +0.000 C 
BRANCH  21  27
ATOM     22  C   UNL     1      -1.070  16.172  20.348  0.00  0.00    +0.000 C 
ATOM     23  N   UNL     1      -0.091  15.313  20.960  0.00  0.00    +0.000 N 
ATOM     24  C   UNL     1       0.739  15.678  21.976  0.00  0.00    +0.000 A 
ATOM     25  N   UNL     1       1.538  14.683  22.270  0.00  0.00    +0.000 NA
ATOM     26  N   UNL     1       1.237  13.647  21.417  0.00  0.00    +0.000 NA
ATOM     27  C   UNL     1       0.237  14.014  20.642  0.00  0.00    +0.000 A 
ENDBRANCH  21  27
ENDBRANCH  17  21
ENDBRANCH  11  17
ENDBRANCH   1  15
BRANCH   8  28
ATOM     28  C   UNL     1       1.974   3.660  20.740  0.00  0.00    +0.000 C 
ATOM     29  F   UNL     1       2.354   3.903  22.024  0.00  0.00    +0.000 F 
ATOM     30  F   UNL     1       0.613   3.617  20.754  0.00  0.00    +0.000 F 
ATOM     31  F   UNL     1       2.389   2.395  20.469  0.00  0.00    +0.000 F 
ENDBRANCH   8  28
BRANCH   6  32
ATOM     32  C   UNL     1       4.673   4.636  16.606  0.00  0.00    +0.000 C 
BRANCH  32  33
ATOM     33  C   UNL     1       6.176   4.962  16.745  0.00  0.00    +0.000 C 
ATOM     34  C   UNL     1       6.737   4.772  18.143  0.00  0.00    +0.000 C 
ATOM     35  C   UNL     1       7.793   5.842  18.258  0.00  0.00    +0.000 C 
ATOM     36  C   UNL     1       7.323   6.921  17.310  0.00  0.00    +0.000 C 
ATOM     37  O   UNL     1       6.488   6.302  16.327  0.00  0.00    +0.000 OA
ENDBRANCH  32  33
ENDBRANCH   6  32
TORSDOF 7
ENDMDL
MODEL 6
REMARK VINA RESULT:      -9.4      1.761      2.899
REMARK  Name = 
REMARK  8 active torsions:
REMARK  status: ('A' for Active; 'I' for Inactive)
REMARK    1  A    between atoms: C_1  and  N_2
REMARK    2  A    between atoms: C_6  and  C_7
REMARK    3  A    between atoms: C_7  and  C_8
REMARK    4  A    between atoms: C_8  and  C_9
REMARK    5  A    between atoms: C_13  and  N_14
REMARK    6  A    between atoms: C_19  and  C_20
REMARK    7  A    between atoms: C_20  and  C_21
REMARK    8  A    between atoms: C_27  and  C_28
REMARK                            x       y       z     vdW  Elec       q    Type
REMARK                         _______ _______ _______ _____ _____    ______ ____
ROOT
ATOM      1  N   UNL     1       1.235   8.491  20.393  0.00  0.00    +0.000 N 
ATOM      2  C   UNL     1       1.371   7.118  20.828  0.00  0.00    +0.000 C 
ATOM      3  C   UNL     1       2.167   6.473  19.768  0.00  0.00    +0.000 A 
ATOM      4  C   UNL     1       2.570   7.417  18.830  0.00  0.00    +0.000 A 
ATOM      5  C   UNL     1       3.388   7.059  17.770  0.00  0.00    +0.000 A 
ATOM      6  C   UNL     1       3.789   5.706  17.668  0.00  0.00    +0.000 A 
ATOM      7  C   UNL     1       3.334   4.766  18.624  0.00  0.00    +0.000 A 
ATOM      8  C   UNL     1       2.496   5.129  19.677  0.00  0.00    +0.000 A 
ATOM      9  C   UNL     1       1.949   8.723  19.211  0.00  0.00    +0.000 C 
ATOM     10  O   UNL     1       2.070   9.740  18.554  0.00  0.00    +0.000 OA
ENDROOT
BRANCH   1  15
ATOM     11  C   UNL     1      -1.052  11.407  20.991  0.00  0.00    +0.000 A 
ATOM     12  C   UNL     1      -1.269  11.269  22.368  0.00  0.00    +0.000 A 
ATOM     13  C   UNL     1      -0.720  10.198  23.093  0.00  0.00    +0.000 A 
ATOM     14  C   UNL     1       0.094   9.239  22.471  0.00  0.00    +0.000 A 
ATOM     15  C   UNL     1       0.358   9.344  21.114  0.00  0.00    +0.000 A 
ATOM     16  C   UNL     1      -0.253  10.407  20.415  0.00  0.00    +0.000 A 
BRANCH  11  17
ATOM     17  C   UNL     1      -1.640  12.593  20.062  0.00  0.00    +0.000 C 
ATOM     18  C   UNL     1      -0.674  13.127  18.971  0.00  0.00    +0.000 C 
ATOM     19  O   UNL     1      -0.693  14.464  19.508  0.00  0.00    +0.000 OA
ATOM     20  C   UNL     1      -1.538  14.054  20.603  0.00  0.00    +0.000 C 
BRANCH  17  21
ATOM     21  C   UNL     1      -3.051  12.249  19.519  0.00  0.00    +0.000 C 
BRANCH  21  27
ATOM     22  C   UNL     1      -5.549  11.135  17.931  0.00  0.00    +0.000 C 
ATOM     23  N   UNL     1      -4.176  11.142  17.499  0.00  0.00    +0.000 N 
ATOM     24  C   UNL     1      -3.728  10.625  16.321  0.00  0.00    +0.000 A 
ATOM     25  N   UNL     1      -2.426  10.750  16.254  0.00  0.00    +0.000 NA
ATOM     26  N   UNL     1      -2.009  11.347  17.420  0.00  0.00    +0.000 NA
ATOM     27  C   UNL     1      -3.065  11.609  18.163  0.00  0.00    +0.000 A 
ENDBRANCH  21  27
ENDBRANCH  17  21
ENDBRANCH  11  17
ENDBRANCH   1  15
BRANCH   8  28
ATOM     28  C   UNL     1       1.980   4.087  20.640  0.00  0.00    +0.000 C 
ATOM     29  F   UNL     1       0.624   3.985  20.674  0.00  0.00    +0.000 F 
ATOM     30  F   UNL     1       2.442   2.842  20.338  0.00  0.00    +0.000 F 
ATOM     31  F   UNL     1       2.360   4.330  21.922  0.00  0.00    +0.000 F 
ENDBRANCH   8  28
BRANCH   6  32
ATOM     32  C   UNL     1       4.749   5.226  16.595  0.00  0.00    +0.000 C 
BRANCH  32  33
ATOM     33  C   UNL     1       6.248   5.523  16.819  0.00  0.00    +0.000 C 
ATOM     34  C   UNL     1       6.729   5.304  18.242  0.00  0.00    +0.000 C 
ATOM     35  C   UNL     1       7.796   6.353  18.429  0.00  0.00    +0.000 C 
ATOM     36  C   UNL     1       7.396   7.454  17.474  0.00  0.00    +0.000 C 
ATOM     37  O   UNL     1       6.604   6.863  16.438  0.00  0.00    +0.000 OA
ENDBRANCH  32  33
ENDBRANCH   6  32
TORSDOF 7
ENDMDL
MODEL 7
REMARK VINA RESULT:      -9.3      1.895      2.831
REMARK  Name = 
REMARK  8 active torsions:
REMARK  status: ('A' for Active; 'I' for Inactive)
REMARK    1  A    between atoms: C_1  and  N_2
REMARK    2  A    between atoms: C_6  and  C_7
REMARK    3  A    between atoms: C_7  and  C_8
REMARK    4  A    between atoms: C_8  and  C_9
REMARK    5  A    between atoms: C_13  and  N_14
REMARK    6  A    between atoms: C_19  and  C_20
REMARK    7  A    between atoms: C_20  and  C_21
REMARK    8  A    between atoms: C_27  and  C_28
REMARK                            x       y       z     vdW  Elec       q    Type
REMARK                         _______ _______ _______ _____ _____    ______ ____
ROOT
ATOM      1  N   UNL     1       1.264   8.416  20.414  0.00  0.00    +0.000 N 
ATOM      2  C   UNL     1       1.404   7.049  20.869  0.00  0.00    +0.000 C 
ATOM      3  C   UNL     1       2.178   6.385  19.806  0.00  0.00    +0.000 A 
ATOM      4  C   UNL     1       2.566   7.312  18.844  0.00  0.00    +0.000 A 
ATOM      5  C   UNL     1       3.362   6.934  17.774  0.00  0.00    +0.000 A 
ATOM      6  C   UNL     1       3.757   5.579  17.688  0.00  0.00    +0.000 A 
ATOM      7  C   UNL     1       3.318   4.656  18.668  0.00  0.00    +0.000 A 
ATOM      8  C   UNL     1       2.501   5.038  19.730  0.00  0.00    +0.000 A 
ATOM      9  C   UNL     1       1.955   8.626  19.215  0.00  0.00    +0.000 C 
ATOM     10  O   UNL     1       2.066   9.631  18.540  0.00  0.00    +0.000 OA
ENDROOT
BRANCH   1  15
ATOM     11  C   UNL     1      -0.756  11.500  21.121  0.00  0.00    +0.000 A 
ATOM     12  C   UNL     1      -1.148  11.239  22.439  0.00  0.00    +0.000 A 
ATOM     13  C   UNL     1      -0.805  10.038  23.082  0.00  0.00    +0.000 A 
ATOM     14  C   UNL     1      -0.029   9.062  22.437  0.00  0.00    +0.000 A 
ATOM     15  C   UNL     1       0.403   9.283  21.139  0.00  0.00    +0.000 A 
ATOM     16  C   UNL     1      -0.006  10.481  20.514  0.00  0.00    +0.000 A 
BRANCH  11  17
ATOM     17  C   UNL     1      -1.101  12.842  20.286  0.00  0.00    +0.000 C 
ATOM     18  C   UNL     1      -0.140  14.038  20.518  0.00  0.00    +0.000 C 
ATOM     19  O   UNL     1      -1.198  14.886  21.004  0.00  0.00    +0.000 OA
ATOM     20  C   UNL     1      -2.161  13.817  20.890  0.00  0.00    +0.000 C 
BRANCH  17  21
ATOM     21  C   UNL     1      -1.351  12.535  18.787  0.00  0.00    +0.000 C 
BRANCH  21  27
ATOM     22  C   UNL     1      -1.614   9.826  17.175  0.00  0.00    +0.000 C 
ATOM     23  N   UNL     1      -2.673  10.571  17.804  0.00  0.00    +0.000 N 
ATOM     24  C   UNL     1      -3.991  10.229  17.770  0.00  0.00    +0.000 A 
ATOM     25  N   UNL     1      -4.696  11.137  18.397  0.00  0.00    +0.000 NA
ATOM     26  N   UNL     1      -3.824  12.105  18.837  0.00  0.00    +0.000 NA
ATOM     27  C   UNL     1      -2.599  11.754  18.504  0.00  0.00    +0.000 A 
ENDBRANCH  21  27
ENDBRANCH  17  21
ENDBRANCH  11  17
ENDBRANCH   1  15
BRANCH   8  28
ATOM     28  C   UNL     1       2.002   4.014  20.720  0.00  0.00    +0.000 C 
ATOM     29  F   UNL     1       2.393   4.247  22.003  0.00  0.00    +0.000 F 
ATOM     30  F   UNL     1       0.642   3.954  20.748  0.00  0.00    +0.000 F 
ATOM     31  F   UNL     1       2.430   2.757  20.430  0.00  0.00    +0.000 F 
ENDBRANCH   8  28
BRANCH   6  32
ATOM     32  C   UNL     1       4.695   5.078  16.604  0.00  0.00    +0.000 C 
BRANCH  32  33
ATOM     33  C   UNL     1       6.195   5.403  16.778  0.00  0.00    +0.000 C 
ATOM     34  C   UNL     1       6.728   5.193  18.184  0.00  0.00    +0.000 C 
ATOM     35  C   UNL     1       7.781   6.262  18.335  0.00  0.00    +0.000 C 
ATOM     36  C   UNL     1       7.329   7.355  17.395  0.00  0.00    +0.000 C 
ATOM     37  O   UNL     1       6.514   6.749  16.386  0.00  0.00    +0.000 OA
ENDBRANCH  32  33
ENDBRANCH   6  32
TORSDOF 7
ENDMDL
MODEL 8
REMARK VINA RESULT:      -9.3      0.966      1.143
REMARK  Name = 
REMARK  8 active torsions:
REMARK  status: ('A' for Active; 'I' for Inactive)
REMARK    1  A    between atoms: C_1  and  N_2
REMARK    2  A    between atoms: C_6  and  C_7
REMARK    3  A    between atoms: C_7  and  C_8
REMARK    4  A    between atoms: C_8  and  C_9
REMARK    5  A    between atoms: C_13  and  N_14
REMARK    6  A    between atoms: C_19  and  C_20
REMARK    7  A    between atoms: C_20  and  C_21
REMARK    8  A    between atoms: C_27  and  C_28
REMARK                            x       y       z     vdW  Elec       q    Type
REMARK                         _______ _______ _______ _____ _____    ______ ____
ROOT
ATOM      1  N   UNL     1       1.303   8.335  20.371  0.00  0.00    +0.000 N 
ATOM      2  C   UNL     1       1.437   6.967  20.824  0.00  0.00    +0.000 C 
ATOM      3  C   UNL     1       2.215   6.303  19.763  0.00  0.00    +0.000 A 
ATOM      4  C   UNL     1       2.611   7.232  18.806  0.00  0.00    +0.000 A 
ATOM      5  C   UNL     1       3.413   6.854  17.740  0.00  0.00    +0.000 A 
ATOM      6  C   UNL     1       3.805   5.499  17.652  0.00  0.00    +0.000 A 
ATOM      7  C   UNL     1       3.357   4.574  18.627  0.00  0.00    +0.000 A 
ATOM      8  C   UNL     1       2.535   4.956  19.685  0.00  0.00    +0.000 A 
ATOM      9  C   UNL     1       2.003   8.547  19.177  0.00  0.00    +0.000 C 
ATOM     10  O   UNL     1       2.120   9.553  18.505  0.00  0.00    +0.000 OA
ENDROOT
BRANCH   1  15
ATOM     11  C   UNL     1      -0.993  11.248  20.949  0.00  0.00    +0.000 A 
ATOM     12  C   UNL     1      -1.166  11.152  22.335  0.00  0.00    +0.000 A 
ATOM     13  C   UNL     1      -0.585  10.109  23.076  0.00  0.00    +0.000 A 
ATOM     14  C   UNL     1       0.219   9.138  22.460  0.00  0.00    +0.000 A 
ATOM     15  C   UNL     1       0.440   9.202  21.093  0.00  0.00    +0.000 A 
ATOM     16  C   UNL     1      -0.202  10.238  20.380  0.00  0.00    +0.000 A 
BRANCH  11  17
ATOM     17  C   UNL     1      -1.620  12.399  20.001  0.00  0.00    +0.000 C 
ATOM     18  C   UNL     1      -2.139  13.662  20.739  0.00  0.00    +0.000 C 
ATOM     19  O   UNL     1      -3.482  13.482  20.251  0.00  0.00    +0.000 OA
ATOM     20  C   UNL     1      -3.118  12.256  19.584  0.00  0.00    +0.000 C 
BRANCH  17  21
ATOM     21  C   UNL     1      -0.690  12.724  18.804  0.00  0.00    +0.000 C 
BRANCH  21  27
ATOM     22  C   UNL     1       2.138  13.079  20.175  0.00  0.00    +0.000 C 
ATOM     23  N   UNL     1       1.341  14.100  19.548  0.00  0.00    +0.000 N 
ATOM     24  C   UNL     1       1.679  15.418  19.478  0.00  0.00    +0.000 A 
ATOM     25  N   UNL     1       0.721  16.086  18.885  0.00  0.00    +0.000 NA
ATOM     26  N   UNL     1      -0.275  15.190  18.575  0.00  0.00    +0.000 NA
ATOM     27  C   UNL     1       0.106  13.986  18.950  0.00  0.00    +0.000 A 
ENDBRANCH  21  27
ENDBRANCH  17  21
ENDBRANCH  11  17
ENDBRANCH   1  15
BRANCH   8  28
ATOM     28  C   UNL     1       2.027   3.930  20.670  0.00  0.00    +0.000 C 
ATOM     29  F   UNL     1       2.422   4.151  21.953  0.00  0.00    +0.000 F 
ATOM     30  F   UNL     1       0.667   3.884  20.698  0.00  0.00    +0.000 F 
ATOM     31  F   UNL     1       2.442   2.671  20.371  0.00  0.00    +0.000 F 
ENDBRANCH   8  28
BRANCH   6  32
ATOM     32  C   UNL     1       4.748   4.998  16.572  0.00  0.00    +0.000 C 
BRANCH  32  33
ATOM     33  C   UNL     1       6.250   5.300  16.767  0.00  0.00    +0.000 C 
ATOM     34  C   UNL     1       6.770   5.042  18.170  0.00  0.00    +0.000 C 
ATOM     35  C   UNL     1       7.833   6.093  18.361  0.00  0.00    +0.000 C 
ATOM     36  C   UNL     1       7.402   7.219  17.450  0.00  0.00    +0.000 C 
ATOM     37  O   UNL     1       6.588   6.653  16.417  0.00  0.00    +0.000 OA
ENDBRANCH  32  33
ENDBRANCH   6  32
TORSDOF 7
ENDMDL
MODEL 9
REMARK VINA RESULT:      -9.3      3.312      8.819
REMARK  Name = 
REMARK  8 active torsions:
REMARK  status: ('A' for Active; 'I' for Inactive)
REMARK    1  A    between atoms: C_1  and  N_2
REMARK    2  A    between atoms: C_6  and  C_7
REMARK    3  A    between atoms: C_7  and  C_8
REMARK    4  A    between atoms: C_8  and  C_9
REMARK    5  A    between atoms: C_13  and  N_14
REMARK    6  A    between atoms: C_19  and  C_20
REMARK    7  A    between atoms: C_20  and  C_21
REMARK    8  A    between atoms: C_27  and  C_28
REMARK                            x       y       z     vdW  Elec       q    Type
REMARK                         _______ _______ _______ _____ _____    ______ ____
ROOT
ATOM      1  N   UNL     1       2.322   7.316  19.314  0.00  0.00    +0.000 N 
ATOM      2  C   UNL     1       1.561   7.700  20.484  0.00  0.00    +0.000 C 
ATOM      3  C   UNL     1       0.961   8.997  20.124  0.00  0.00    +0.000 A 
ATOM      4  C   UNL     1       1.250   9.308  18.799  0.00  0.00    +0.000 A 
ATOM      5  C   UNL     1       0.736  10.453  18.211  0.00  0.00    +0.000 A 
ATOM      6  C   UNL     1      -0.080  11.295  19.000  0.00  0.00    +0.000 A 
ATOM      7  C   UNL     1      -0.328  10.963  20.354  0.00  0.00    +0.000 A 
ATOM      8  C   UNL     1       0.207   9.822  20.946  0.00  0.00    +0.000 A 
ATOM      9  C   UNL     1       2.154   8.238  18.274  0.00  0.00    +0.000 C 
ATOM     10  O   UNL     1       2.629   8.252  17.154  0.00  0.00    +0.000 OA
ENDROOT
BRANCH   1  15
ATOM     11  C   UNL     1       5.446   5.285  18.861  0.00  0.00    +0.000 A 
ATOM     12  C   UNL     1       4.996   4.039  19.317  0.00  0.00    +0.000 A 
ATOM     13  C   UNL     1       3.696   3.870  19.824  0.00  0.00    +0.000 A 
ATOM     14  C   UNL     1       2.786   4.937  19.867  0.00  0.00    +0.000 A 
ATOM     15  C   UNL     1       3.176   6.185  19.406  0.00  0.00    +0.000 A 
ATOM     16  C   UNL     1       4.505   6.322  18.951  0.00  0.00    +0.000 A 
BRANCH  11  17
ATOM     17  C   UNL     1       6.918   5.592  18.266  0.00  0.00    +0.000 C 
ATOM     18  C   UNL     1       7.984   6.017  19.310  0.00  0.00    +0.000 C 
ATOM     19  O   UNL     1       8.206   7.289  18.671  0.00  0.00    +0.000 OA
ATOM     20  C   UNL     1       7.182   7.019  17.691  0.00  0.00    +0.000 C 
BRANCH  17  21
ATOM     21  C   UNL     1       7.400   4.462  17.319  0.00  0.00    +0.000 C 
BRANCH  21  27
ATOM     22  C   UNL     1       4.691   3.526  15.982  0.00  0.00    +0.000 C 
ATOM     23  N   UNL     1       5.787   4.205  15.343  0.00  0.00    +0.000 N 
ATOM     24  C   UNL     1       5.840   4.527  14.020  0.00  0.00    +0.000 A 
ATOM     25  N   UNL     1       6.989   5.096  13.752  0.00  0.00    +0.000 NA
ATOM     26  N   UNL     1       7.713   5.132  14.920  0.00  0.00    +0.000 NA
ATOM     27  C   UNL     1       6.981   4.620  15.888  0.00  0.00    +0.000 A 
ENDBRANCH  21  27
ENDBRANCH  17  21
ENDBRANCH  11  17
ENDBRANCH   1  15
BRANCH   8  28
ATOM     28  C   UNL     1      -0.028   9.533  22.409  0.00  0.00    +0.000 C 
ATOM     29  F   UNL     1      -0.642  10.545  23.081  0.00  0.00    +0.000 F 
ATOM     30  F   UNL     1      -0.811   8.434  22.590  0.00  0.00    +0.000 F 
ATOM     31  F   UNL     1       1.125   9.292  23.085  0.00  0.00    +0.000 F 
ENDBRANCH   8  28
BRANCH   6  32
ATOM     32  C   UNL     1      -0.759  12.528  18.431  0.00  0.00    +0.000 C 
BRANCH  32  33
ATOM     33  C   UNL     1      -0.069  13.885  18.693  0.00  0.00    +0.000 C 
ATOM     34  C   UNL     1       1.448  13.845  18.631  0.00  0.00    +0.000 C 
ATOM     35  C   UNL     1       1.879  14.868  19.652  0.00  0.00    +0.000 C 
ATOM     36  C   UNL     1       0.737  14.898  20.642  0.00  0.00    +0.000 C 
ATOM     37  O   UNL     1      -0.440  14.454  19.960  0.00  0.00    +0.000 OA
ENDBRANCH  32  33
ENDBRANCH   6  32
TORSDOF 7
ENDMDL
