MODEL 1
REMARK VINA RESULT:      -8.9      0.000      0.000
REMARK  Name = 
REMARK  11 active torsions:
REMARK  status: ('A' for Active; 'I' for Inactive)
REMARK    1  A    between atoms: C_1  and  C_2
REMARK    2  A    between atoms: C_2  and  C_3
REMARK    3  A    between atoms: C_2  and  C_10
REMARK    4  A    between atoms: C_3  and  C_4
REMARK    5  A    between atoms: N_8  and  C_9
REMARK    6  A    between atoms: C_14  and  N_15
REMARK    7  A    between atoms: C_20  and  C_21
REMARK    8  A    between atoms: C_21  and  N_22
REMARK    9  A    between atoms: C_24  and  C_25
REMARK   10  A    between atoms: C_24  and  O_26
REMARK   11  A    between atoms: C_29  and  C_30
REMARK                            x       y       z     vdW  Elec       q    Type
REMARK                         _______ _______ _______ _____ _____    ______ ____
ROOT
ATOM      1  N   UNL     1       1.857   8.235  19.950  0.00  0.00    +0.000 N 
ATOM      2  C   UNL     1       2.558   7.224  20.695  0.00  0.00    +0.000 C 
ATOM      3  C   UNL     1       2.742   6.198  19.649  0.00  0.00    +0.000 A 
ATOM      4  C   UNL     1       2.981   6.854  18.458  0.00  0.00    +0.000 A 
ATOM      5  C   UNL     1       3.458   6.179  17.345  0.00  0.00    +0.000 A 
ATOM      6  C   UNL     1       3.463   4.774  17.405  0.00  0.00    +0.000 A 
ATOM      7  C   UNL     1       2.771   4.158  18.467  0.00  0.00    +0.000 A 
ATOM      8  C   UNL     1       2.295   4.903  19.560  0.00  0.00    +0.000 A 
ATOM      9  C   UNL     1       2.160   8.108  18.584  0.00  0.00    +0.000 C 
ATOM     10  O   UNL     1       1.753   8.748  17.634  0.00  0.00    +0.000 OA
ENDROOT
BRANCH   1  15
ATOM     11  C   UNL     1      -0.608  10.946  20.546  0.00  0.00    +0.000 A 
ATOM     12  C   UNL     1      -1.046  10.644  21.835  0.00  0.00    +0.000 A 
ATOM     13  C   UNL     1      -0.551   9.510  22.504  0.00  0.00    +0.000 A 
ATOM     14  C   UNL     1       0.367   8.642  21.888  0.00  0.00    +0.000 A 
ATOM     15  C   UNL     1       0.833   8.939  20.615  0.00  0.00    +0.000 A 
ATOM     16  C   UNL     1       0.353  10.097  19.984  0.00  0.00    +0.000 A 
BRANCH  11  18
ATOM     17  C   UNL     1      -0.757  13.501  20.261  0.00  0.00    +0.000 C 
ATOM     18  C   UNL     1      -1.074  12.117  19.685  0.00  0.00    +0.000 C 
BRANCH  18  19
ATOM     19  C   UNL     1      -2.589  11.949  19.395  0.00  0.00    +0.000 C 
BRANCH  19  20
ATOM     20  C   UNL     1      -2.892  11.542  18.001  0.00  0.00    +0.000 A 
ATOM     21  N   UNL     1      -2.024  11.162  17.085  0.00  0.00    +0.000 NA
ATOM     22  N   UNL     1      -2.718  10.889  15.929  0.00  0.00    +0.000 NA
ATOM     23  C   UNL     1      -3.991  11.092  16.173  0.00  0.00    +0.000 A 
ATOM     24  N   UNL     1      -4.150  11.472  17.467  0.00  0.00    +0.000 N 
ATOM     25  C   UNL     1      -5.395  11.728  18.141  0.00  0.00    +0.000 C 
ENDBRANCH  19  20
ENDBRANCH  18  19
ENDBRANCH  11  18
ENDBRANCH   1  15
BRANCH   8  26
ATOM     26  C   UNL     1       1.110   4.417  20.357  0.00  0.00    +0.000 C 
ATOM     27  F   UNL     1       0.412   3.406  19.770  0.00  0.00    +0.000 F 
ATOM     28  F   UNL     1       1.501   3.915  21.566  0.00  0.00    +0.000 F 
ATOM     29  F   UNL     1       0.208   5.393  20.624  0.00  0.00    +0.000 F 
ENDBRANCH   8  26
BRANCH   6  30
ATOM     30  C   UNL     1       4.196   3.934  16.371  0.00  0.00    +0.000 C 
BRANCH  30  31
ATOM     31  N   UNL     1       5.565   3.594  16.755  0.00  0.00    +0.000 NA
ATOM     32  C   UNL     1       6.554   4.442  16.066  0.00  0.00    +0.000 C 
ATOM     33  C   UNL     1       7.203   4.783  17.435  0.00  0.00    +0.000 C 
ATOM     34  C   UNL     1       7.406   6.266  17.696  0.00  0.00    +0.000 C 
ATOM     35  C   UNL     1       5.903   4.208  18.055  0.00  0.00    +0.000 C 
BRANCH  33  36
ATOM     36  O   UNL     1       8.423   4.072  17.768  0.00  0.00    +0.000 OA
ATOM     37  H   UNL     1       8.169   3.134  17.805  0.00  0.00    +0.000 HD
ENDBRANCH  33  36
ENDBRANCH  30  31
ENDBRANCH   6  30
TORSDOF 8
ENDMDL
MODEL 2
REMARK VINA RESULT:      -8.9      3.962     10.407
REMARK  Name = 
REMARK  11 active torsions:
REMARK  status: ('A' for Active; 'I' for Inactive)
REMARK    1  A    between atoms: C_1  and  C_2
REMARK    2  A    between atoms: C_2  and  C_3
REMARK    3  A    between atoms: C_2  and  C_10
REMARK    4  A    between atoms: C_3  and  C_4
REMARK    5  A    between atoms: N_8  and  C_9
REMARK    6  A    between atoms: C_14  and  N_15
REMARK    7  A    between atoms: C_20  and  C_21
REMARK    8  A    between atoms: C_21  and  N_22
REMARK    9  A    between atoms: C_24  and  C_25
REMARK   10  A    between atoms: C_24  and  O_26
REMARK   11  A    between atoms: C_29  and  C_30
REMARK                            x       y       z     vdW  Elec       q    Type
REMARK                         _______ _______ _______ _____ _____    ______ ____
ROOT
ATOM      1  N   UNL     1       0.975   9.512  20.866  0.00  0.00    +0.000 N 
ATOM      2  C   UNL     1       1.331  10.902  20.956  0.00  0.00    +0.000 C 
ATOM      3  C   UNL     1       0.050  11.479  21.410  0.00  0.00    +0.000 A 
ATOM      4  C   UNL     1      -0.531  10.577  22.279  0.00  0.00    +0.000 A 
ATOM      5  C   UNL     1      -1.603  10.935  23.082  0.00  0.00    +0.000 A 
ATOM      6  C   UNL     1      -2.222  12.167  22.807  0.00  0.00    +0.000 A 
ATOM      7  C   UNL     1      -1.877  12.824  21.609  0.00  0.00    +0.000 A 
ATOM      8  C   UNL     1      -0.788  12.400  20.829  0.00  0.00    +0.000 A 
ATOM      9  C   UNL     1      -0.100   9.244  21.731  0.00  0.00    +0.000 C 
ATOM     10  O   UNL     1      -0.703   8.206  21.924  0.00  0.00    +0.000 OA
ENDROOT
BRANCH   1  15
ATOM     11  C   UNL     1       2.560   6.625  19.154  0.00  0.00    +0.000 A 
ATOM     12  C   UNL     1       2.832   7.163  17.896  0.00  0.00    +0.000 A 
ATOM     13  C   UNL     1       2.455   8.484  17.595  0.00  0.00    +0.000 A 
ATOM     14  C   UNL     1       1.773   9.280  18.532  0.00  0.00    +0.000 A 
ATOM     15  C   UNL     1       1.516   8.770  19.797  0.00  0.00    +0.000 A 
ATOM     16  C   UNL     1       1.937   7.463  20.086  0.00  0.00    +0.000 A 
BRANCH  11  18
ATOM     17  C   UNL     1       2.267   4.820  20.969  0.00  0.00    +0.000 C 
ATOM     18  C   UNL     1       2.879   5.205  19.617  0.00  0.00    +0.000 C 
BRANCH  18  19
ATOM     19  C   UNL     1       4.419   5.014  19.610  0.00  0.00    +0.000 C 
BRANCH  19  20
ATOM     20  C   UNL     1       4.968   4.616  18.289  0.00  0.00    +0.000 A 
ATOM     21  N   UNL     1       4.357   3.901  17.366  0.00  0.00    +0.000 NA
ATOM     22  N   UNL     1       5.222   3.749  16.307  0.00  0.00    +0.000 NA
ATOM     23  C   UNL     1       6.329   4.388  16.602  0.00  0.00    +0.000 A 
ATOM     24  N   UNL     1       6.203   4.972  17.822  0.00  0.00    +0.000 N 
ATOM     25  C   UNL     1       7.170   5.812  18.476  0.00  0.00    +0.000 C 
ENDBRANCH  19  20
ENDBRANCH  18  19
ENDBRANCH  11  18
ENDBRANCH   1  15
BRANCH   8  26
ATOM     26  C   UNL     1      -0.758  12.671  19.346  0.00  0.00    +0.000 C 
ATOM     27  F   UNL     1       0.273  13.463  18.938  0.00  0.00    +0.000 F 
ATOM     28  F   UNL     1      -0.612  11.514  18.634  0.00  0.00    +0.000 F 
ATOM     29  F   UNL     1      -1.890  13.260  18.886  0.00  0.00    +0.000 F 
ENDBRANCH   8  26
BRANCH   6  30
ATOM     30  C   UNL     1      -3.224  12.787  23.767  0.00  0.00    +0.000 C 
BRANCH  30  31
ATOM     31  N   UNL     1      -4.521  12.112  23.777  0.00  0.00    +0.000 NA
ATOM     32  C   UNL     1      -5.364  12.562  24.900  0.00  0.00    +0.000 C 
ATOM     33  C   UNL     1      -6.521  12.848  23.904  0.00  0.00    +0.000 C 
ATOM     34  C   UNL     1      -7.142  14.230  24.024  0.00  0.00    +0.000 C 
ATOM     35  C   UNL     1      -5.435  12.739  22.802  0.00  0.00    +0.000 C 
BRANCH  33  36
ATOM     36  O   UNL     1      -7.580  11.857  23.840  0.00  0.00    +0.000 OA
ATOM     37  H   UNL     1      -7.156  11.055  23.490  0.00  0.00    +0.000 HD
ENDBRANCH  33  36
ENDBRANCH  30  31
ENDBRANCH   6  30
TORSDOF 8
ENDMDL
MODEL 3
REMARK VINA RESULT:      -8.8      4.062     10.433
REMARK  Name = 
REMARK  11 active torsions:
REMARK  status: ('A' for Active; 'I' for Inactive)
REMARK    1  A    between atoms: C_1  and  C_2
REMARK    2  A    between atoms: C_2  and  C_3
REMARK    3  A    between atoms: C_2  and  C_10
REMARK    4  A    between atoms: C_3  and  C_4
REMARK    5  A    between atoms: N_8  and  C_9
REMARK    6  A    between atoms: C_14  and  N_15
REMARK    7  A    between atoms: C_20  and  C_21
REMARK    8  A    between atoms: C_21  and  N_22
REMARK    9  A    between atoms: C_24  and  C_25
REMARK   10  A    between atoms: C_24  and  O_26
REMARK   11  A    between atoms: C_29  and  C_30
REMARK                            x       y       z     vdW  Elec       q    Type
REMARK                         _______ _______ _______ _____ _____    ______ ____
ROOT
ATOM      1  N   UNL     1       0.995   9.887  20.483  0.00  0.00    +0.000 N 
ATOM      2  C   UNL     1       1.046  11.293  20.189  0.00  0.00    +0.000 C 
ATOM      3  C   UNL     1      -0.265  11.725  20.713  0.00  0.00    +0.000 A 
ATOM      4  C   UNL     1      -0.524  10.989  21.852  0.00  0.00    +0.000 A 
ATOM      5  C   UNL     1      -1.543  11.342  22.724  0.00  0.00    +0.000 A 
ATOM      6  C   UNL     1      -2.445  12.326  22.285  0.00  0.00    +0.000 A 
ATOM      7  C   UNL     1      -2.402  12.701  20.927  0.00  0.00    +0.000 A 
ATOM      8  C   UNL     1      -1.349  12.294  20.089  0.00  0.00    +0.000 A 
ATOM      9  C   UNL     1       0.119   9.662  21.558  0.00  0.00    +0.000 C 
ATOM     10  O   UNL     1      -0.214   8.617  22.085  0.00  0.00    +0.000 OA
ENDROOT
BRANCH   1  15
ATOM     11  C   UNL     1       2.413   6.717  19.170  0.00  0.00    +0.000 A 
ATOM     12  C   UNL     1       2.859   7.114  17.910  0.00  0.00    +0.000 A 
ATOM     13  C   UNL     1       2.658   8.435  17.471  0.00  0.00    +0.000 A 
ATOM     14  C   UNL     1       1.982   9.374  18.268  0.00  0.00    +0.000 A 
ATOM     15  C   UNL     1       1.551   9.004  19.535  0.00  0.00    +0.000 A 
ATOM     16  C   UNL     1       1.798   7.692  19.965  0.00  0.00    +0.000 A 
BRANCH  11  18
ATOM     17  C   UNL     1       2.119   5.218  21.244  0.00  0.00    +0.000 C 
ATOM     18  C   UNL     1       2.529   5.318  19.771  0.00  0.00    +0.000 C 
BRANCH  18  19
ATOM     19  C   UNL     1       3.973   4.797  19.540  0.00  0.00    +0.000 C 
BRANCH  19  20
ATOM     20  C   UNL     1       4.053   3.333  19.313  0.00  0.00    +0.000 A 
ATOM     21  N   UNL     1       4.659   2.449  20.081  0.00  0.00    +0.000 NA
ATOM     22  N   UNL     1       4.509   1.210  19.502  0.00  0.00    +0.000 NA
ATOM     23  C   UNL     1       3.803   1.366  18.407  0.00  0.00    +0.000 A 
ATOM     24  N   UNL     1       3.469   2.675  18.265  0.00  0.00    +0.000 N 
ATOM     25  C   UNL     1       2.649   3.246  17.230  0.00  0.00    +0.000 C 
ENDBRANCH  19  20
ENDBRANCH  18  19
ENDBRANCH  11  18
ENDBRANCH   1  15
BRANCH   8  26
ATOM     26  C   UNL     1      -1.561  12.172  18.601  0.00  0.00    +0.000 C 
ATOM     27  F   UNL     1      -1.164  10.982  18.072  0.00  0.00    +0.000 F 
ATOM     28  F   UNL     1      -2.885  12.273  18.281  0.00  0.00    +0.000 F 
ATOM     29  F   UNL     1      -0.923  13.133  17.889  0.00  0.00    +0.000 F 
ENDBRANCH   8  26
BRANCH   6  30
ATOM     30  C   UNL     1      -3.435  12.981  23.236  0.00  0.00    +0.000 C 
BRANCH  30  31
ATOM     31  N   UNL     1      -4.669  12.217  23.415  0.00  0.00    +0.000 NA
ATOM     32  C   UNL     1      -5.367  12.589  24.659  0.00  0.00    +0.000 C 
ATOM     33  C   UNL     1      -6.673  12.808  23.849  0.00  0.00    +0.000 C 
ATOM     34  C   UNL     1      -7.361  14.142  24.092  0.00  0.00    +0.000 C 
ATOM     35  C   UNL     1      -5.755  12.794  22.599  0.00  0.00    +0.000 C 
BRANCH  33  36
ATOM     36  O   UNL     1      -7.661  11.747  23.912  0.00  0.00    +0.000 OA
ATOM     37  H   UNL     1      -7.219  11.016  24.376  0.00  0.00    +0.000 HD
ENDBRANCH  33  36
ENDBRANCH  30  31
ENDBRANCH   6  30
TORSDOF 8
ENDMDL
MODEL 4
REMARK VINA RESULT:      -8.8      4.313     10.440
REMARK  Name = 
REMARK  11 active torsions:
REMARK  status: ('A' for Active; 'I' for Inactive)
REMARK    1  A    between atoms: C_1  and  C_2
REMARK    2  A    between atoms: C_2  and  C_3
REMARK    3  A    between atoms: C_2  and  C_10
REMARK    4  A    between atoms: C_3  and  C_4
REMARK    5  A    between atoms: N_8  and  C_9
REMARK    6  A    between atoms: C_14  and  N_15
REMARK    7  A    between atoms: C_20  and  C_21
REMARK    8  A    between atoms: C_21  and  N_22
REMARK    9  A    between atoms: C_24  and  C_25
REMARK   10  A    between atoms: C_24  and  O_26
REMARK   11  A    between atoms: C_29  and  C_30
REMARK                            x       y       z     vdW  Elec       q    Type
REMARK                         _______ _______ _______ _____ _____    ______ ____
ROOT
ATOM      1  N   UNL     1       0.625  10.294  20.585  0.00  0.00    +0.000 N 
ATOM      2  C   UNL     1       0.426  11.636  20.109  0.00  0.00    +0.000 C 
ATOM      3  C   UNL     1      -0.881  11.947  20.722  0.00  0.00    +0.000 A 
ATOM      4  C   UNL     1      -0.910  11.354  21.969  0.00  0.00    +0.000 A 
ATOM      5  C   UNL     1      -1.884  11.680  22.901  0.00  0.00    +0.000 A 
ATOM      6  C   UNL     1      -2.968  12.452  22.447  0.00  0.00    +0.000 A 
ATOM      7  C   UNL     1      -3.114  12.628  21.056  0.00  0.00    +0.000 A 
ATOM      8  C   UNL     1      -2.096  12.259  20.161  0.00  0.00    +0.000 A 
ATOM      9  C   UNL     1      -0.098  10.104  21.775  0.00  0.00    +0.000 C 
ATOM     10  O   UNL     1      -0.210   9.110  22.467  0.00  0.00    +0.000 OA
ENDROOT
BRANCH   1  15
ATOM     11  C   UNL     1       2.427   7.221  19.539  0.00  0.00    +0.000 A 
ATOM     12  C   UNL     1       2.655   7.480  18.188  0.00  0.00    +0.000 A 
ATOM     13  C   UNL     1       2.176   8.666  17.603  0.00  0.00    +0.000 A 
ATOM     14  C   UNL     1       1.436   9.600  18.349  0.00  0.00    +0.000 A 
ATOM     15  C   UNL     1       1.221   9.372  19.701  0.00  0.00    +0.000 A 
ATOM     16  C   UNL     1       1.742   8.200  20.269  0.00  0.00    +0.000 A 
BRANCH  11  18
ATOM     17  C   UNL     1       3.963   5.156  19.630  0.00  0.00    +0.000 C 
ATOM     18  C   UNL     1       2.855   5.971  20.305  0.00  0.00    +0.000 C 
BRANCH  18  19
ATOM     19  C   UNL     1       1.597   5.107  20.586  0.00  0.00    +0.000 C 
BRANCH  19  20
ATOM     20  C   UNL     1       1.498   3.896  19.733  0.00  0.00    +0.000 A 
ATOM     21  N   UNL     1       1.269   3.863  18.436  0.00  0.00    +0.000 NA
ATOM     22  N   UNL     1       1.239   2.545  18.044  0.00  0.00    +0.000 NA
ATOM     23  C   UNL     1       1.467   1.808  19.106  0.00  0.00    +0.000 A 
ATOM     24  N   UNL     1       1.665   2.614  20.181  0.00  0.00    +0.000 N 
ATOM     25  C   UNL     1       2.003   2.198  21.516  0.00  0.00    +0.000 C 
ENDBRANCH  19  20
ENDBRANCH  18  19
ENDBRANCH  11  18
ENDBRANCH   1  15
BRANCH   8  26
ATOM     26  C   UNL     1      -2.427  11.894  18.736  0.00  0.00    +0.000 C 
ATOM     27  F   UNL     1      -2.241  10.579  18.434  0.00  0.00    +0.000 F 
ATOM     28  F   UNL     1      -3.742  12.133  18.457  0.00  0.00    +0.000 F 
ATOM     29  F   UNL     1      -1.711  12.595  17.823  0.00  0.00    +0.000 F 
ENDBRANCH   8  26
BRANCH   6  30
ATOM     30  C   UNL     1      -3.953  13.089  23.414  0.00  0.00    +0.000 C 
BRANCH  30  31
ATOM     31  N   UNL     1      -4.985  13.890  22.757  0.00  0.00    +0.000 NA
ATOM     32  C   UNL     1      -6.251  13.148  22.621  0.00  0.00    +0.000 C 
ATOM     33  C   UNL     1      -7.006  14.336  23.278  0.00  0.00    +0.000 C 
ATOM     34  C   UNL     1      -7.916  13.955  24.434  0.00  0.00    +0.000 C 
ATOM     35  C   UNL     1      -5.602  14.825  23.719  0.00  0.00    +0.000 C 
BRANCH  33  36
ATOM     36  O   UNL     1      -7.725  15.222  22.381  0.00  0.00    +0.000 OA
ATOM     37  H   UNL     1      -7.328  15.074  21.506  0.00  0.00    +0.000 HD
ENDBRANCH  33  36
ENDBRANCH  30  31
ENDBRANCH   6  30
TORSDOF 8
ENDMDL
MODEL 5
REMARK VINA RESULT:      -8.6      3.628      5.294
REMARK  Name = 
REMARK  11 active torsions:
REMARK  status: ('A' for Active; 'I' for Inactive)
REMARK    1  A    between atoms: C_1  and  C_2
REMARK    2  A    between atoms: C_2  and  C_3
REMARK    3  A    between atoms: C_2  and  C_10
REMARK    4  A    between atoms: C_3  and  C_4
REMARK    5  A    between atoms: N_8  and  C_9
REMARK    6  A    between atoms: C_14  and  N_15
REMARK    7  A    between atoms: C_20  and  C_21
REMARK    8  A    between atoms: C_21  and  N_22
REMARK    9  A    between atoms: C_24  and  C_25
REMARK   10  A    between atoms: C_24  and  O_26
REMARK   11  A    between atoms: C_29  and  C_30
REMARK                            x       y       z     vdW  Elec       q    Type
REMARK                         _______ _______ _______ _____ _____    ______ ____
ROOT
ATOM      1  N   UNL     1      -1.181  11.341  18.908  0.00  0.00    +0.000 N 
ATOM      2  C   UNL     1      -0.061  11.561  19.783  0.00  0.00    +0.000 C 
ATOM      3  C   UNL     1       0.646  10.272  19.644  0.00  0.00    +0.000 A 
ATOM      4  C   UNL     1       0.517   9.863  18.331  0.00  0.00    +0.000 A 
ATOM      5  C   UNL     1       1.289   8.833  17.816  0.00  0.00    +0.000 A 
ATOM      6  C   UNL     1       2.031   8.071  18.736  0.00  0.00    +0.000 A 
ATOM      7  C   UNL     1       1.755   8.243  20.107  0.00  0.00    +0.000 A 
ATOM      8  C   UNL     1       0.947   9.298  20.565  0.00  0.00    +0.000 A 
ATOM      9  C   UNL     1      -0.842  10.378  17.943  0.00  0.00    +0.000 C 
ATOM     10  O   UNL     1      -1.516   9.902  17.049  0.00  0.00    +0.000 OA
ENDROOT
BRANCH   1  15
ATOM     11  C   UNL     1      -3.686  12.888  21.169  0.00  0.00    +0.000 A 
ATOM     12  C   UNL     1      -4.855  12.754  20.421  0.00  0.00    +0.000 A 
ATOM     13  C   UNL     1      -4.812  12.180  19.138  0.00  0.00    +0.000 A 
ATOM     14  C   UNL     1      -3.599  11.757  18.567  0.00  0.00    +0.000 A 
ATOM     15  C   UNL     1      -2.429  11.860  19.307  0.00  0.00    +0.000 A 
ATOM     16  C   UNL     1      -2.504  12.401  20.599  0.00  0.00    +0.000 A 
BRANCH  11  18
ATOM     17  C   UNL     1      -2.193  13.358  23.215  0.00  0.00    +0.000 C 
ATOM     18  C   UNL     1      -3.567  13.516  22.556  0.00  0.00    +0.000 C 
BRANCH  18  19
ATOM     19  C   UNL     1      -4.702  12.956  23.454  0.00  0.00    +0.000 C 
BRANCH  19  20
ATOM     20  C   UNL     1      -5.853  13.880  23.614  0.00  0.00    +0.000 A 
ATOM     21  N   UNL     1      -5.796  15.186  23.779  0.00  0.00    +0.000 NA
ATOM     22  N   UNL     1      -7.083  15.654  23.903  0.00  0.00    +0.000 NA
ATOM     23  C   UNL     1      -7.893  14.627  23.794  0.00  0.00    +0.000 A 
ATOM     24  N   UNL     1      -7.166  13.499  23.581  0.00  0.00    +0.000 N 
ATOM     25  C   UNL     1      -7.682  12.177  23.348  0.00  0.00    +0.000 C 
ENDBRANCH  19  20
ENDBRANCH  18  19
ENDBRANCH  11  18
ENDBRANCH   1  15
BRANCH   8  26
ATOM     26  C   UNL     1       0.187   9.172  21.861  0.00  0.00    +0.000 C 
ATOM     27  F   UNL     1      -0.558  10.265  22.186  0.00  0.00    +0.000 F 
ATOM     28  F   UNL     1      -0.709   8.142  21.810  0.00  0.00    +0.000 F 
ATOM     29  F   UNL     1       0.986   8.929  22.929  0.00  0.00    +0.000 F 
ENDBRANCH   8  26
BRANCH   6  30
ATOM     30  C   UNL     1       3.106   7.098  18.280  0.00  0.00    +0.000 C 
BRANCH  30  31
ATOM     31  N   UNL     1       3.281   5.956  19.176  0.00  0.00    +0.000 NA
ATOM     32  C   UNL     1       2.466   4.801  18.757  0.00  0.00    +0.000 C 
ATOM     33  C   UNL     1       3.730   3.901  18.813  0.00  0.00    +0.000 C 
ATOM     34  C   UNL     1       3.980   3.070  17.565  0.00  0.00    +0.000 C 
ATOM     35  C   UNL     1       4.526   5.232  18.852  0.00  0.00    +0.000 C 
BRANCH  33  36
ATOM     36  O   UNL     1       3.870   3.053  19.982  0.00  0.00    +0.000 OA
ATOM     37  H   UNL     1       3.029   2.569  20.047  0.00  0.00    +0.000 HD
ENDBRANCH  33  36
ENDBRANCH  30  31
ENDBRANCH   6  30
TORSDOF 8
ENDMDL
MODEL 6
REMARK VINA RESULT:      -8.5      1.174      1.613
REMARK  Name = 
REMARK  11 active torsions:
REMARK  status: ('A' for Active; 'I' for Inactive)
REMARK    1  A    between atoms: C_1  and  C_2
REMARK    2  A    between atoms: C_2  and  C_3
REMARK    3  A    between atoms: C_2  and  C_10
REMARK    4  A    between atoms: C_3  and  C_4
REMARK    5  A    between atoms: N_8  and  C_9
REMARK    6  A    between atoms: C_14  and  N_15
REMARK    7  A    between atoms: C_20  and  C_21
REMARK    8  A    between atoms: C_21  and  N_22
REMARK    9  A    between atoms: C_24  and  C_25
REMARK   10  A    between atoms: C_24  and  O_26
REMARK   11  A    between atoms: C_29  and  C_30
REMARK                            x       y       z     vdW  Elec       q    Type
REMARK                         _______ _______ _______ _____ _____    ______ ____
ROOT
ATOM      1  N   UNL     1       1.892   8.093  20.061  0.00  0.00    +0.000 N 
ATOM      2  C   UNL     1       2.538   7.056  20.818  0.00  0.00    +0.000 C 
ATOM      3  C   UNL     1       2.773   6.055  19.758  0.00  0.00    +0.000 A 
ATOM      4  C   UNL     1       3.087   6.738  18.600  0.00  0.00    +0.000 A 
ATOM      5  C   UNL     1       3.622   6.085  17.500  0.00  0.00    +0.000 A 
ATOM      6  C   UNL     1       3.610   4.680  17.524  0.00  0.00    +0.000 A 
ATOM      7  C   UNL     1       2.851   4.045  18.528  0.00  0.00    +0.000 A 
ATOM      8  C   UNL     1       2.319   4.767  19.610  0.00  0.00    +0.000 A 
ATOM      9  C   UNL     1       2.273   7.997  18.711  0.00  0.00    +0.000 C 
ATOM     10  O   UNL     1       1.928   8.666  17.756  0.00  0.00    +0.000 OA
ENDROOT
BRANCH   1  15
ATOM     11  C   UNL     1      -0.593  10.804  20.569  0.00  0.00    +0.000 A 
ATOM     12  C   UNL     1      -1.096  10.486  21.830  0.00  0.00    +0.000 A 
ATOM     13  C   UNL     1      -0.637   9.342  22.508  0.00  0.00    +0.000 A 
ATOM     14  C   UNL     1       0.308   8.479  21.926  0.00  0.00    +0.000 A 
ATOM     15  C   UNL     1       0.837   8.792  20.682  0.00  0.00    +0.000 A 
ATOM     16  C   UNL     1       0.393   9.960  20.044  0.00  0.00    +0.000 A 
BRANCH  11  18
ATOM     17  C   UNL     1      -0.328  13.313  20.051  0.00  0.00    +0.000 C 
ATOM     18  C   UNL     1      -1.013  11.988  19.701  0.00  0.00    +0.000 C 
BRANCH  18  19
ATOM     19  C   UNL     1      -2.559  12.112  19.744  0.00  0.00    +0.000 C 
BRANCH  19  20
ATOM     20  C   UNL     1      -3.225  11.770  18.462  0.00  0.00    +0.000 A 
ATOM     21  N   UNL     1      -2.642  11.331  17.364  0.00  0.00    +0.000 NA
ATOM     22  N   UNL     1      -3.615  11.156  16.408  0.00  0.00    +0.000 NA
ATOM     23  C   UNL     1      -4.767  11.475  16.950  0.00  0.00    +0.000 A 
ATOM     24  N   UNL     1      -4.574  11.836  18.245  0.00  0.00    +0.000 N 
ATOM     25  C   UNL     1      -5.590  12.195  19.197  0.00  0.00    +0.000 C 
ENDBRANCH  19  20
ENDBRANCH  18  19
ENDBRANCH  11  18
ENDBRANCH   1  15
BRANCH   8  26
ATOM     26  C   UNL     1       1.086   4.275  20.324  0.00  0.00    +0.000 C 
ATOM     27  F   UNL     1       1.327   3.706  21.538  0.00  0.00    +0.000 F 
ATOM     28  F   UNL     1       0.223   5.301  20.585  0.00  0.00    +0.000 F 
ATOM     29  F   UNL     1       0.383   3.360  19.612  0.00  0.00    +0.000 F 
ENDBRANCH   8  26
BRANCH   6  30
ATOM     30  C   UNL     1       4.394   3.858  16.512  0.00  0.00    +0.000 C 
BRANCH  30  31
ATOM     31  N   UNL     1       5.603   4.523  16.029  0.00  0.00    +0.000 NA
ATOM     32  C   UNL     1       6.534   3.572  15.395  0.00  0.00    +0.000 C 
ATOM     33  C   UNL     1       6.603   4.489  14.143  0.00  0.00    +0.000 C 
ATOM     34  C   UNL     1       6.356   3.785  12.819  0.00  0.00    +0.000 C 
ATOM     35  C   UNL     1       5.346   5.181  14.732  0.00  0.00    +0.000 C 
BRANCH  33  36
ATOM     36  O   UNL     1       7.780   5.330  14.020  0.00  0.00    +0.000 OA
ATOM     37  H   UNL     1       7.524   6.036  13.403  0.00  0.00    +0.000 HD
ENDBRANCH  33  36
ENDBRANCH  30  31
ENDBRANCH   6  30
TORSDOF 8
ENDMDL
MODEL 7
REMARK VINA RESULT:      -8.5      4.341     10.424
REMARK  Name = 
REMARK  11 active torsions:
REMARK  status: ('A' for Active; 'I' for Inactive)
REMARK    1  A    between atoms: C_1  and  C_2
REMARK    2  A    between atoms: C_2  and  C_3
REMARK    3  A    between atoms: C_2  and  C_10
REMARK    4  A    between atoms: C_3  and  C_4
REMARK    5  A    between atoms: N_8  and  C_9
REMARK    6  A    between atoms: C_14  and  N_15
REMARK    7  A    between atoms: C_20  and  C_21
REMARK    8  A    between atoms: C_21  and  N_22
REMARK    9  A    between atoms: C_24  and  C_25
REMARK   10  A    between atoms: C_24  and  O_26
REMARK   11  A    between atoms: C_29  and  C_30
REMARK                            x       y       z     vdW  Elec       q    Type
REMARK                         _______ _______ _______ _____ _____    ______ ____
ROOT
ATOM      1  N   UNL     1       0.566  10.361  20.576  0.00  0.00    +0.000 N 
ATOM      2  C   UNL     1       0.337  11.683  20.061  0.00  0.00    +0.000 C 
ATOM      3  C   UNL     1      -0.955  12.001  20.701  0.00  0.00    +0.000 A 
ATOM      4  C   UNL     1      -0.942  11.451  21.968  0.00  0.00    +0.000 A 
ATOM      5  C   UNL     1      -1.892  11.798  22.916  0.00  0.00    +0.000 A 
ATOM      6  C   UNL     1      -2.998  12.542  22.468  0.00  0.00    +0.000 A 
ATOM      7  C   UNL     1      -3.186  12.669  21.077  0.00  0.00    +0.000 A 
ATOM      8  C   UNL     1      -2.189  12.281  20.165  0.00  0.00    +0.000 A 
ATOM      9  C   UNL     1      -0.120  10.204  21.792  0.00  0.00    +0.000 C 
ATOM     10  O   UNL     1      -0.201   9.233  22.521  0.00  0.00    +0.000 OA
ENDROOT
BRANCH   1  15
ATOM     11  C   UNL     1       2.338   7.254  19.580  0.00  0.00    +0.000 A 
ATOM     12  C   UNL     1       2.553   7.481  18.221  0.00  0.00    +0.000 A 
ATOM     13  C   UNL     1       2.076   8.657  17.616  0.00  0.00    +0.000 A 
ATOM     14  C   UNL     1       1.350   9.613  18.348  0.00  0.00    +0.000 A 
ATOM     15  C   UNL     1       1.146   9.415  19.707  0.00  0.00    +0.000 A 
ATOM     16  C   UNL     1       1.666   8.253  20.296  0.00  0.00    +0.000 A 
BRANCH  11  18
ATOM     17  C   UNL     1       3.925   5.232  19.748  0.00  0.00    +0.000 C 
ATOM     18  C   UNL     1       2.765   6.018  20.369  0.00  0.00    +0.000 C 
BRANCH  18  19
ATOM     19  C   UNL     1       1.520   5.120  20.597  0.00  0.00    +0.000 C 
BRANCH  19  20
ATOM     20  C   UNL     1       1.486   3.912  19.736  0.00  0.00    +0.000 A 
ATOM     21  N   UNL     1       1.311   3.881  18.430  0.00  0.00    +0.000 NA
ATOM     22  N   UNL     1       1.330   2.565  18.030  0.00  0.00    +0.000 NA
ATOM     23  C   UNL     1       1.531   1.828  19.097  0.00  0.00    +0.000 A 
ATOM     24  N   UNL     1       1.665   2.632  20.184  0.00  0.00    +0.000 N 
ATOM     25  C   UNL     1       1.958   2.216  21.529  0.00  0.00    +0.000 C 
ENDBRANCH  19  20
ENDBRANCH  18  19
ENDBRANCH  11  18
ENDBRANCH   1  15
BRANCH   8  26
ATOM     26  C   UNL     1      -2.556  11.863  18.763  0.00  0.00    +0.000 C 
ATOM     27  F   UNL     1      -2.377  10.538  18.505  0.00  0.00    +0.000 F 
ATOM     28  F   UNL     1      -3.879  12.092  18.510  0.00  0.00    +0.000 F 
ATOM     29  F   UNL     1      -1.865  12.531  17.807  0.00  0.00    +0.000 F 
ENDBRANCH   8  26
BRANCH   6  30
ATOM     30  C   UNL     1      -3.962  13.201  23.441  0.00  0.00    +0.000 C 
BRANCH  30  31
ATOM     31  N   UNL     1      -4.660  14.358  22.881  0.00  0.00    +0.000 NA
ATOM     32  C   UNL     1      -5.709  14.856  23.789  0.00  0.00    +0.000 C 
ATOM     33  C   UNL     1      -5.113  16.286  23.678  0.00  0.00    +0.000 C 
ATOM     34  C   UNL     1      -4.854  16.976  25.007  0.00  0.00    +0.000 C 
ATOM     35  C   UNL     1      -3.865  15.585  23.080  0.00  0.00    +0.000 C 
BRANCH  33  36
ATOM     36  O   UNL     1      -5.799  17.207  22.792  0.00  0.00    +0.000 OA
ATOM     37  H   UNL     1      -5.677  18.084  23.193  0.00  0.00    +0.000 HD
ENDBRANCH  33  36
ENDBRANCH  30  31
ENDBRANCH   6  30
TORSDOF 8
ENDMDL
MODEL 8
REMARK VINA RESULT:      -8.5      3.652      5.570
REMARK  Name = 
REMARK  11 active torsions:
REMARK  status: ('A' for Active; 'I' for Inactive)
REMARK    1  A    between atoms: C_1  and  C_2
REMARK    2  A    between atoms: C_2  and  C_3
REMARK    3  A    between atoms: C_2  and  C_10
REMARK    4  A    between atoms: C_3  and  C_4
REMARK    5  A    between atoms: N_8  and  C_9
REMARK    6  A    between atoms: C_14  and  N_15
REMARK    7  A    between atoms: C_20  and  C_21
REMARK    8  A    between atoms: C_21  and  N_22
REMARK    9  A    between atoms: C_24  and  C_25
REMARK   10  A    between atoms: C_24  and  O_26
REMARK   11  A    between atoms: C_29  and  C_30
REMARK                            x       y       z     vdW  Elec       q    Type
REMARK                         _______ _______ _______ _____ _____    ______ ____
ROOT
ATOM      1  N   UNL     1      -1.452  11.795  19.607  0.00  0.00    +0.000 N 
ATOM      2  C   UNL     1      -0.223  11.947  20.338  0.00  0.00    +0.000 C 
ATOM      3  C   UNL     1       0.457  10.685  19.984  0.00  0.00    +0.000 A 
ATOM      4  C   UNL     1       0.150  10.397  18.670  0.00  0.00    +0.000 A 
ATOM      5  C   UNL     1       0.844   9.429  17.961  0.00  0.00    +0.000 A 
ATOM      6  C   UNL     1       1.704   8.594  18.696  0.00  0.00    +0.000 A 
ATOM      7  C   UNL     1       1.618   8.635  20.102  0.00  0.00    +0.000 A 
ATOM      8  C   UNL     1       0.881   9.634  20.762  0.00  0.00    +0.000 A 
ATOM      9  C   UNL     1      -1.249  10.929  18.519  0.00  0.00    +0.000 C 
ATOM     10  O   UNL     1      -2.038  10.529  17.684  0.00  0.00    +0.000 OA
ENDROOT
BRANCH   1  15
ATOM     11  C   UNL     1      -3.710  12.811  22.373  0.00  0.00    +0.000 A 
ATOM     12  C   UNL     1      -4.923  12.960  21.700  0.00  0.00    +0.000 A 
ATOM     13  C   UNL     1      -4.990  12.759  20.310  0.00  0.00    +0.000 A 
ATOM     14  C   UNL     1      -3.845  12.436  19.562  0.00  0.00    +0.000 A 
ATOM     15  C   UNL     1      -2.634  12.260  20.218  0.00  0.00    +0.000 A 
ATOM     16  C   UNL     1      -2.601  12.428  21.610  0.00  0.00    +0.000 A 
BRANCH  11  18
ATOM     17  C   UNL     1      -4.480  12.321  24.781  0.00  0.00    +0.000 C 
ATOM     18  C   UNL     1      -3.472  13.025  23.866  0.00  0.00    +0.000 C 
BRANCH  18  19
ATOM     19  C   UNL     1      -3.411  14.550  24.146  0.00  0.00    +0.000 C 
BRANCH  19  20
ATOM     20  C   UNL     1      -2.074  15.150  23.910  0.00  0.00    +0.000 A 
ATOM     21  N   UNL     1      -0.998  14.994  24.655  0.00  0.00    +0.000 NA
ATOM     22  N   UNL     1       0.018  15.732  24.093  0.00  0.00    +0.000 NA
ATOM     23  C   UNL     1      -0.457  16.305  23.013  0.00  0.00    +0.000 A 
ATOM     24  N   UNL     1      -1.756  15.943  22.842  0.00  0.00    +0.000 N 
ATOM     25  C   UNL     1      -2.612  16.309  21.745  0.00  0.00    +0.000 C 
ENDBRANCH  19  20
ENDBRANCH  18  19
ENDBRANCH  11  18
ENDBRANCH   1  15
BRANCH   8  26
ATOM     26  C   UNL     1       0.304   9.380  22.132  0.00  0.00    +0.000 C 
ATOM     27  F   UNL     1       1.193   8.873  23.031  0.00  0.00    +0.000 F 
ATOM     28  F   UNL     1      -0.147  10.537  22.701  0.00  0.00    +0.000 F 
ATOM     29  F   UNL     1      -0.749   8.526  22.120  0.00  0.00    +0.000 F 
ENDBRANCH   8  26
BRANCH   6  30
ATOM     30  C   UNL     1       2.707   7.680  18.010  0.00  0.00    +0.000 C 
BRANCH  30  31
ATOM     31  N   UNL     1       3.091   6.522  18.817  0.00  0.00    +0.000 NA
ATOM     32  C   UNL     1       2.358   5.308  18.416  0.00  0.00    +0.000 C 
ATOM     33  C   UNL     1       3.706   4.547  18.291  0.00  0.00    +0.000 C 
ATOM     34  C   UNL     1       3.905   3.807  16.978  0.00  0.00    +0.000 C 
ATOM     35  C   UNL     1       4.362   5.952  18.326  0.00  0.00    +0.000 C 
BRANCH  33  36
ATOM     36  O   UNL     1       4.056   3.665  19.389  0.00  0.00    +0.000 OA
ATOM     37  H   UNL     1       4.843   4.065  19.796  0.00  0.00    +0.000 HD
ENDBRANCH  33  36
ENDBRANCH  30  31
ENDBRANCH   6  30
TORSDOF 8
ENDMDL
MODEL 9
REMARK VINA RESULT:      -8.5      4.174     10.096
REMARK  Name = 
REMARK  11 active torsions:
REMARK  status: ('A' for Active; 'I' for Inactive)
REMARK    1  A    between atoms: C_1  and  C_2
REMARK    2  A    between atoms: C_2  and  C_3
REMARK    3  A    between atoms: C_2  and  C_10
REMARK    4  A    between atoms: C_3  and  C_4
REMARK    5  A    between atoms: N_8  and  C_9
REMARK    6  A    between atoms: C_14  and  N_15
REMARK    7  A    between atoms: C_20  and  C_21
REMARK    8  A    between atoms: C_21  and  N_22
REMARK    9  A    between atoms: C_24  and  C_25
REMARK   10  A    between atoms: C_24  and  O_26
REMARK   11  A    between atoms: C_29  and  C_30
REMARK                            x       y       z     vdW  Elec       q    Type
REMARK                         _______ _______ _______ _____ _____    ______ ____
ROOT
ATOM      1  N   UNL     1       0.485  10.319  20.866  0.00  0.00    +0.000 N 
ATOM      2  C   UNL     1       0.286  11.694  20.496  0.00  0.00    +0.000 C 
ATOM      3  C   UNL     1      -1.002  11.969  21.163  0.00  0.00    +0.000 A 
ATOM      4  C   UNL     1      -1.007  11.286  22.362  0.00  0.00    +0.000 A 
ATOM      5  C   UNL     1      -1.954  11.549  23.340  0.00  0.00    +0.000 A 
ATOM      6  C   UNL     1      -3.042  12.360  22.972  0.00  0.00    +0.000 A 
ATOM      7  C   UNL     1      -3.220  12.641  21.602  0.00  0.00    +0.000 A 
ATOM      8  C   UNL     1      -2.227  12.331  20.656  0.00  0.00    +0.000 A 
ATOM      9  C   UNL     1      -0.211  10.047  22.056  0.00  0.00    +0.000 C 
ATOM     10  O   UNL     1      -0.316   9.005  22.675  0.00  0.00    +0.000 OA
ENDROOT
BRANCH   1  15
ATOM     11  C   UNL     1       2.297   7.356  19.556  0.00  0.00    +0.000 A 
ATOM     12  C   UNL     1       2.438   7.690  18.209  0.00  0.00    +0.000 A 
ATOM     13  C   UNL     1       1.897   8.891  17.717  0.00  0.00    +0.000 A 
ATOM     14  C   UNL     1       1.179   9.765  18.553  0.00  0.00    +0.000 A 
ATOM     15  C   UNL     1       1.050   9.461  19.901  0.00  0.00    +0.000 A 
ATOM     16  C   UNL     1       1.632   8.276  20.375  0.00  0.00    +0.000 A 
BRANCH  11  18
ATOM     17  C   UNL     1       3.920   5.358  19.472  0.00  0.00    +0.000 C 
ATOM     18  C   UNL     1       2.800   6.080  20.228  0.00  0.00    +0.000 C 
BRANCH  18  19
ATOM     19  C   UNL     1       1.588   5.146  20.488  0.00  0.00    +0.000 C 
BRANCH  19  20
ATOM     20  C   UNL     1       1.604   3.902  19.678  0.00  0.00    +0.000 A 
ATOM     21  N   UNL     1       1.248   3.781  18.415  0.00  0.00    +0.000 NA
ATOM     22  N   UNL     1       1.399   2.461  18.057  0.00  0.00    +0.000 NA
ATOM     23  C   UNL     1       1.857   1.815  19.102  0.00  0.00    +0.000 A 
ATOM     24  N   UNL     1       2.030   2.684  20.132  0.00  0.00    +0.000 N 
ATOM     25  C   UNL     1       2.573   2.382  21.429  0.00  0.00    +0.000 C 
ENDBRANCH  19  20
ENDBRANCH  18  19
ENDBRANCH  11  18
ENDBRANCH   1  15
BRANCH   8  26
ATOM     26  C   UNL     1      -2.596  12.076  19.217  0.00  0.00    +0.000 C 
ATOM     27  F   UNL     1      -1.865  12.786  18.313  0.00  0.00    +0.000 F 
ATOM     28  F   UNL     1      -2.393  10.768  18.880  0.00  0.00    +0.000 F 
ATOM     29  F   UNL     1      -3.897  12.342  18.942  0.00  0.00    +0.000 F 
ENDBRANCH   8  26
BRANCH   6  30
ATOM     30  C   UNL     1      -3.997  12.931  24.008  0.00  0.00    +0.000 C 
BRANCH  30  31
ATOM     31  N   UNL     1      -3.511  14.157  24.640  0.00  0.00    +0.000 NA
ATOM     32  C   UNL     1      -2.207  14.574  24.095  0.00  0.00    +0.000 C 
ATOM     33  C   UNL     1      -2.780  15.995  23.837  0.00  0.00    +0.000 C 
ATOM     34  C   UNL     1      -2.558  16.529  22.432  0.00  0.00    +0.000 C 
ATOM     35  C   UNL     1      -4.169  15.338  24.048  0.00  0.00    +0.000 C 
BRANCH  33  36
ATOM     36  O   UNL     1      -2.420  17.022  24.797  0.00  0.00    +0.000 OA
ATOM     37  H   UNL     1      -3.149  17.034  25.441  0.00  0.00    +0.000 HD
ENDBRANCH  33  36
ENDBRANCH  30  31
ENDBRANCH   6  30
TORSDOF 8
ENDMDL
