MODEL 1
REMARK VINA RESULT:      -9.7      0.000      0.000
REMARK  Name = 
REMARK  8 active torsions:
REMARK  status: ('A' for Active; 'I' for Inactive)
REMARK    1  A    between atoms: C_1  and  N_2
REMARK    2  A    between atoms: C_6  and  C_7
REMARK    3  A    between atoms: C_7  and  C_9
REMARK    4  A    between atoms: C_9  and  C_10
REMARK    5  A    between atoms: C_14  and  N_15
REMARK    6  A    between atoms: C_20  and  C_21
REMARK    7  A    between atoms: C_21  and  N_22
REMARK    8  A    between atoms: C_30  and  C_31
REMARK                            x       y       z     vdW  Elec       q    Type
REMARK                         _______ _______ _______ _____ _____    ______ ____
ROOT
ATOM      1  N   UNL     1       2.135   7.490  19.440  0.00  0.00    +0.000 N 
ATOM      2  C   UNL     1       1.319   7.834  20.572  0.00  0.00    +0.000 C 
ATOM      3  C   UNL     1       0.882   9.221  20.326  0.00  0.00    +0.000 A 
ATOM      4  C   UNL     1       1.227   9.615  19.041  0.00  0.00    +0.000 A 
ATOM      5  C   UNL     1       0.806  10.860  18.572  0.00  0.00    +0.000 A 
ATOM      6  C   UNL     1       0.089  11.731  19.450  0.00  0.00    +0.000 A 
ATOM      7  C   UNL     1      -0.161  11.314  20.775  0.00  0.00    +0.000 A 
ATOM      8  C   UNL     1       0.219  10.048  21.228  0.00  0.00    +0.000 A 
ATOM      9  C   UNL     1       2.081   8.516  18.467  0.00  0.00    +0.000 C 
ATOM     10  O   UNL     1       2.618   8.576  17.379  0.00  0.00    +0.000 OA
ENDROOT
BRANCH   1  15
ATOM     11  C   UNL     1       5.178   5.281  18.988  0.00  0.00    +0.000 A 
ATOM     12  C   UNL     1       4.633   4.056  19.395  0.00  0.00    +0.000 A 
ATOM     13  C   UNL     1       3.309   3.955  19.872  0.00  0.00    +0.000 A 
ATOM     14  C   UNL     1       2.463   5.075  19.950  0.00  0.00    +0.000 A 
ATOM     15  C   UNL     1       2.937   6.311  19.542  0.00  0.00    +0.000 A 
ATOM     16  C   UNL     1       4.291   6.374  19.103  0.00  0.00    +0.000 A 
BRANCH  11  17
ATOM     17  C   UNL     1       6.673   5.495  18.344  0.00  0.00    +0.000 C 
ATOM     18  C   UNL     1       7.755   5.800  19.423  0.00  0.00    +0.000 C 
ATOM     19  O   UNL     1       8.086   7.064  18.818  0.00  0.00    +0.000 OA
ATOM     20  C   UNL     1       7.092   6.874  17.788  0.00  0.00    +0.000 C 
BRANCH  17  21
ATOM     21  C   UNL     1       7.136   4.332  17.436  0.00  0.00    +0.000 C 
ATOM     22  F   UNL     1       8.474   4.117  17.640  0.00  0.00    +0.000 F 
BRANCH  21  28
ATOM     23  C   UNL     1       4.432   3.707  15.862  0.00  0.00    +0.000 C 
ATOM     24  N   UNL     1       5.654   4.264  15.342  0.00  0.00    +0.000 N 
ATOM     25  C   UNL     1       5.817   4.704  14.062  0.00  0.00    +0.000 A 
ATOM     26  N   UNL     1       7.038   5.149  13.902  0.00  0.00    +0.000 NA
ATOM     27  N   UNL     1       7.684   5.024  15.101  0.00  0.00    +0.000 NA
ATOM     28  C   UNL     1       6.851   4.497  15.980  0.00  0.00    +0.000 A 
ENDBRANCH  21  28
ENDBRANCH  17  21
ENDBRANCH  11  17
ENDBRANCH   1  15
BRANCH   8  29
ATOM     29  C   UNL     1      -0.057   9.631  22.650  0.00  0.00    +0.000 C 
ATOM     30  F   UNL     1      -0.870   8.538  22.757  0.00  0.00    +0.000 F 
ATOM     31  F   UNL     1       1.078   9.300  23.322  0.00  0.00    +0.000 F 
ATOM     32  F   UNL     1      -0.669  10.602  23.376  0.00  0.00    +0.000 F 
ENDBRANCH   8  29
BRANCH   6  33
ATOM     33  C   UNL     1      -0.540  13.034  18.950  0.00  0.00    +0.000 C 
BRANCH  33  34
ATOM     34  N   UNL     1       0.370  14.194  18.761  0.00  0.00    +0.000 NA
ATOM     35  C   UNL     1      -0.257  15.533  18.740  0.00  0.00    +0.000 C 
ATOM     36  C   UNL     1      -0.793  15.714  20.167  0.00  0.00    +0.000 C 
ATOM     37  C   UNL     1       0.242  14.955  21.012  0.00  0.00    +0.000 C 
ATOM     38  C   UNL     1       1.231  14.457  19.945  0.00  0.00    +0.000 C 
ATOM     39  C   UNL     1       2.033  15.678  19.458  0.00  0.00    +0.000 C 
ATOM     40  C   UNL     1       1.003  16.416  18.594  0.00  0.00    +0.000 C 
ENDBRANCH  33  34
ENDBRANCH   6  33
TORSDOF 7
ENDMDL
MODEL 2
REMARK VINA RESULT:      -9.4      0.427      1.192
REMARK  Name = 
REMARK  8 active torsions:
REMARK  status: ('A' for Active; 'I' for Inactive)
REMARK    1  A    between atoms: C_1  and  N_2
REMARK    2  A    between atoms: C_6  and  C_7
REMARK    3  A    between atoms: C_7  and  C_9
REMARK    4  A    between atoms: C_9  and  C_10
REMARK    5  A    between atoms: C_14  and  N_15
REMARK    6  A    between atoms: C_20  and  C_21
REMARK    7  A    between atoms: C_21  and  N_22
REMARK    8  A    between atoms: C_30  and  C_31
REMARK                            x       y       z     vdW  Elec       q    Type
REMARK                         _______ _______ _______ _____ _____    ______ ____
ROOT
ATOM      1  N   UNL     1       2.105   7.520  19.461  0.00  0.00    +0.000 N 
ATOM      2  C   UNL     1       1.270   7.841  20.586  0.00  0.00    +0.000 C 
ATOM      3  C   UNL     1       0.832   9.230  20.357  0.00  0.00    +0.000 A 
ATOM      4  C   UNL     1       1.197   9.649  19.085  0.00  0.00    +0.000 A 
ATOM      5  C   UNL     1       0.780  10.900  18.631  0.00  0.00    +0.000 A 
ATOM      6  C   UNL     1       0.045  11.753  19.513  0.00  0.00    +0.000 A 
ATOM      7  C   UNL     1      -0.225  11.313  20.825  0.00  0.00    +0.000 A 
ATOM      8  C   UNL     1       0.152  10.040  21.263  0.00  0.00    +0.000 A 
ATOM      9  C   UNL     1       2.064   8.562  18.505  0.00  0.00    +0.000 C 
ATOM     10  O   UNL     1       2.617   8.643  17.427  0.00  0.00    +0.000 OA
ENDROOT
BRANCH   1  15
ATOM     11  C   UNL     1       5.143   5.311  18.974  0.00  0.00    +0.000 A 
ATOM     12  C   UNL     1       4.604   4.087  19.391  0.00  0.00    +0.000 A 
ATOM     13  C   UNL     1       3.287   3.987  19.886  0.00  0.00    +0.000 A 
ATOM     14  C   UNL     1       2.441   5.106  19.973  0.00  0.00    +0.000 A 
ATOM     15  C   UNL     1       2.909   6.341  19.555  0.00  0.00    +0.000 A 
ATOM     16  C   UNL     1       4.257   6.403  19.097  0.00  0.00    +0.000 A 
BRANCH  11  17
ATOM     17  C   UNL     1       6.629   5.525  18.309  0.00  0.00    +0.000 C 
ATOM     18  C   UNL     1       7.718   5.870  19.369  0.00  0.00    +0.000 C 
ATOM     19  O   UNL     1       8.029   7.121  18.726  0.00  0.00    +0.000 OA
ATOM     20  C   UNL     1       7.027   6.892  17.712  0.00  0.00    +0.000 C 
BRANCH  17  21
ATOM     21  C   UNL     1       7.097   4.343  17.428  0.00  0.00    +0.000 C 
ATOM     22  F   UNL     1       8.434   4.134  17.640  0.00  0.00    +0.000 F 
BRANCH  21  28
ATOM     23  C   UNL     1       4.419   3.619  15.852  0.00  0.00    +0.000 C 
ATOM     24  N   UNL     1       5.629   4.199  15.328  0.00  0.00    +0.000 N 
ATOM     25  C   UNL     1       5.786   4.623  14.042  0.00  0.00    +0.000 A 
ATOM     26  N   UNL     1       6.996   5.097  13.880  0.00  0.00    +0.000 NA
ATOM     27  N   UNL     1       7.638   5.009  15.085  0.00  0.00    +0.000 NA
ATOM     28  C   UNL     1       6.816   4.475  15.968  0.00  0.00    +0.000 A 
ENDBRANCH  21  28
ENDBRANCH  17  21
ENDBRANCH  11  17
ENDBRANCH   1  15
BRANCH   8  29
ATOM     29  C   UNL     1      -0.146   9.597  22.672  0.00  0.00    +0.000 C 
ATOM     30  F   UNL     1      -0.809  10.530  23.417  0.00  0.00    +0.000 F 
ATOM     31  F   UNL     1      -0.929   8.486  22.710  0.00  0.00    +0.000 F 
ATOM     32  F   UNL     1       0.975   9.306  23.382  0.00  0.00    +0.000 F 
ENDBRANCH   8  29
BRANCH   6  33
ATOM     33  C   UNL     1      -0.579  13.063  19.026  0.00  0.00    +0.000 C 
BRANCH  33  34
ATOM     34  N   UNL     1      -0.431  14.252  19.906  0.00  0.00    +0.000 NA
ATOM     35  C   UNL     1       0.828  14.357  20.674  0.00  0.00    +0.000 C 
ATOM     36  C   UNL     1       1.903  14.559  19.597  0.00  0.00    +0.000 C 
ATOM     37  C   UNL     1       1.154  15.365  18.524  0.00  0.00    +0.000 C 
ATOM     38  C   UNL     1      -0.243  15.517  19.148  0.00  0.00    +0.000 C 
ATOM     39  C   UNL     1      -0.123  16.532  20.299  0.00  0.00    +0.000 C 
ATOM     40  C   UNL     1       0.601  15.715  21.376  0.00  0.00    +0.000 C 
ENDBRANCH  33  34
ENDBRANCH   6  33
TORSDOF 7
ENDMDL
MODEL 3
REMARK VINA RESULT:      -9.3      1.523      2.444
REMARK  Name = 
REMARK  8 active torsions:
REMARK  status: ('A' for Active; 'I' for Inactive)
REMARK    1  A    between atoms: C_1  and  N_2
REMARK    2  A    between atoms: C_6  and  C_7
REMARK    3  A    between atoms: C_7  and  C_9
REMARK    4  A    between atoms: C_9  and  C_10
REMARK    5  A    between atoms: C_14  and  N_15
REMARK    6  A    between atoms: C_20  and  C_21
REMARK    7  A    between atoms: C_21  and  N_22
REMARK    8  A    between atoms: C_30  and  C_31
REMARK                            x       y       z     vdW  Elec       q    Type
REMARK                         _______ _______ _______ _____ _____    ______ ____
ROOT
ATOM      1  N   UNL     1       2.241   7.485  19.133  0.00  0.00    +0.000 N 
ATOM      2  C   UNL     1       1.467   7.759  20.313  0.00  0.00    +0.000 C 
ATOM      3  C   UNL     1       1.013   9.154  20.161  0.00  0.00    +0.000 A 
ATOM      4  C   UNL     1       1.307   9.623  18.888  0.00  0.00    +0.000 A 
ATOM      5  C   UNL     1       0.862  10.888  18.505  0.00  0.00    +0.000 A 
ATOM      6  C   UNL     1       0.174  11.703  19.457  0.00  0.00    +0.000 A 
ATOM      7  C   UNL     1      -0.024  11.212  20.765  0.00  0.00    +0.000 A 
ATOM      8  C   UNL     1       0.380   9.925  21.132  0.00  0.00    +0.000 A 
ATOM      9  C   UNL     1       2.145   8.563  18.221  0.00  0.00    +0.000 C 
ATOM     10  O   UNL     1       2.639   8.688  17.119  0.00  0.00    +0.000 OA
ENDROOT
BRANCH   1  15
ATOM     11  C   UNL     1       4.771   4.976  17.851  0.00  0.00    +0.000 A 
ATOM     12  C   UNL     1       4.574   3.954  18.788  0.00  0.00    +0.000 A 
ATOM     13  C   UNL     1       3.675   4.099  19.865  0.00  0.00    +0.000 A 
ATOM     14  C   UNL     1       2.918   5.270  20.046  0.00  0.00    +0.000 A 
ATOM     15  C   UNL     1       3.053   6.308  19.139  0.00  0.00    +0.000 A 
ATOM     16  C   UNL     1       3.999   6.134  18.089  0.00  0.00    +0.000 A 
BRANCH  11  17
ATOM     17  C   UNL     1       5.730   4.882  16.520  0.00  0.00    +0.000 C 
ATOM     18  C   UNL     1       5.238   5.794  15.358  0.00  0.00    +0.000 C 
ATOM     19  O   UNL     1       5.092   4.675  14.463  0.00  0.00    +0.000 OA
ATOM     20  C   UNL     1       5.521   3.752  15.488  0.00  0.00    +0.000 C 
BRANCH  17  21
ATOM     21  C   UNL     1       7.227   5.142  16.808  0.00  0.00    +0.000 C 
ATOM     22  F   UNL     1       7.724   4.102  17.548  0.00  0.00    +0.000 F 
BRANCH  21  28
ATOM     23  C   UNL     1       8.142   5.673  19.818  0.00  0.00    +0.000 C 
ATOM     24  N   UNL     1       7.982   6.633  18.757  0.00  0.00    +0.000 N 
ATOM     25  C   UNL     1       8.293   7.956  18.861  0.00  0.00    +0.000 A 
ATOM     26  N   UNL     1       8.032   8.559  17.728  0.00  0.00    +0.000 NA
ATOM     27  N   UNL     1       7.567   7.615  16.855  0.00  0.00    +0.000 NA
ATOM     28  C   UNL     1       7.540   6.445  17.467  0.00  0.00    +0.000 A 
ENDBRANCH  21  28
ENDBRANCH  17  21
ENDBRANCH  11  17
ENDBRANCH   1  15
BRANCH   8  29
ATOM     29  C   UNL     1       0.160   9.427  22.537  0.00  0.00    +0.000 C 
ATOM     30  F   UNL     1      -0.420  10.346  23.365  0.00  0.00    +0.000 F 
ATOM     31  F   UNL     1      -0.656   8.341  22.580  0.00  0.00    +0.000 F 
ATOM     32  F   UNL     1       1.314   9.069  23.158  0.00  0.00    +0.000 F 
ENDBRANCH   8  29
BRANCH   6  33
ATOM     33  C   UNL     1      -0.481  13.027  19.055  0.00  0.00    +0.000 C 
BRANCH  33  34
ATOM     34  N   UNL     1       0.426  14.167  18.757  0.00  0.00    +0.000 NA
ATOM     35  C   UNL     1      -0.164  15.520  18.823  0.00  0.00    +0.000 C 
ATOM     36  C   UNL     1      -0.508  15.701  20.309  0.00  0.00    +0.000 C 
ATOM     37  C   UNL     1       0.608  14.910  21.010  0.00  0.00    +0.000 C 
ATOM     38  C   UNL     1       1.439  14.398  19.822  0.00  0.00    +0.000 C 
ATOM     39  C   UNL     1       2.202  15.603  19.243  0.00  0.00    +0.000 C 
ATOM     40  C   UNL     1       1.089  16.374  18.522  0.00  0.00    +0.000 C 
ENDBRANCH  33  34
ENDBRANCH   6  33
TORSDOF 7
ENDMDL
MODEL 4
REMARK VINA RESULT:      -9.0      0.926      1.037
REMARK  Name = 
REMARK  8 active torsions:
REMARK  status: ('A' for Active; 'I' for Inactive)
REMARK    1  A    between atoms: C_1  and  N_2
REMARK    2  A    between atoms: C_6  and  C_7
REMARK    3  A    between atoms: C_7  and  C_9
REMARK    4  A    between atoms: C_9  and  C_10
REMARK    5  A    between atoms: C_14  and  N_15
REMARK    6  A    between atoms: C_20  and  C_21
REMARK    7  A    between atoms: C_21  and  N_22
REMARK    8  A    between atoms: C_30  and  C_31
REMARK                            x       y       z     vdW  Elec       q    Type
REMARK                         _______ _______ _______ _____ _____    ______ ____
ROOT
ATOM      1  N   UNL     1       1.920   7.733  19.472  0.00  0.00    +0.000 N 
ATOM      2  C   UNL     1       1.112   8.043  20.620  0.00  0.00    +0.000 C 
ATOM      3  C   UNL     1       0.689   9.443  20.428  0.00  0.00    +0.000 A 
ATOM      4  C   UNL     1       1.035   9.883  19.158  0.00  0.00    +0.000 A 
ATOM      5  C   UNL     1       0.627  11.149  18.737  0.00  0.00    +0.000 A 
ATOM      6  C   UNL     1      -0.078  11.993  19.651  0.00  0.00    +0.000 A 
ATOM      7  C   UNL     1      -0.328  11.530  20.960  0.00  0.00    +0.000 A 
ATOM      8  C   UNL     1       0.040  10.243  21.364  0.00  0.00    +0.000 A 
ATOM      9  C   UNL     1       1.875   8.796  18.539  0.00  0.00    +0.000 C 
ATOM     10  O   UNL     1       2.408   8.891  17.451  0.00  0.00    +0.000 OA
ENDROOT
BRANCH   1  15
ATOM     11  C   UNL     1       4.899   5.481  18.845  0.00  0.00    +0.000 A 
ATOM     12  C   UNL     1       4.360   4.263  19.279  0.00  0.00    +0.000 A 
ATOM     13  C   UNL     1       3.064   4.180  19.830  0.00  0.00    +0.000 A 
ATOM     14  C   UNL     1       2.240   5.313  19.958  0.00  0.00    +0.000 A 
ATOM     15  C   UNL     1       2.709   6.542  19.527  0.00  0.00    +0.000 A 
ATOM     16  C   UNL     1       4.036   6.586  19.012  0.00  0.00    +0.000 A 
BRANCH  11  17
ATOM     17  C   UNL     1       6.359   5.675  18.119  0.00  0.00    +0.000 C 
ATOM     18  C   UNL     1       7.176   4.351  18.046  0.00  0.00    +0.000 C 
ATOM     19  O   UNL     1       8.267   4.915  18.798  0.00  0.00    +0.000 OA
ATOM     20  C   UNL     1       7.574   6.174  18.932  0.00  0.00    +0.000 C 
BRANCH  17  21
ATOM     21  C   UNL     1       6.280   6.332  16.721  0.00  0.00    +0.000 C 
ATOM     22  F   UNL     1       5.089   7.001  16.612  0.00  0.00    +0.000 F 
BRANCH  21  28
ATOM     23  C   UNL     1       4.379   3.961  15.749  0.00  0.00    +0.000 C 
ATOM     24  N   UNL     1       5.599   4.428  15.141  0.00  0.00    +0.000 N 
ATOM     25  C   UNL     1       6.099   3.962  13.962  0.00  0.00    +0.000 A 
ATOM     26  N   UNL     1       7.217   4.584  13.682  0.00  0.00    +0.000 NA
ATOM     27  N   UNL     1       7.445   5.492  14.679  0.00  0.00    +0.000 NA
ATOM     28  C   UNL     1       6.467   5.410  15.562  0.00  0.00    +0.000 A 
ENDBRANCH  21  28
ENDBRANCH  17  21
ENDBRANCH  11  17
ENDBRANCH   1  15
BRANCH   8  29
ATOM     29  C   UNL     1      -0.237   9.775  22.769  0.00  0.00    +0.000 C 
ATOM     30  F   UNL     1      -0.972   8.626  22.835  0.00  0.00    +0.000 F 
ATOM     31  F   UNL     1       0.904   9.511  23.460  0.00  0.00    +0.000 F 
ATOM     32  F   UNL     1      -0.932  10.684  23.502  0.00  0.00    +0.000 F 
ENDBRANCH   8  29
BRANCH   6  33
ATOM     33  C   UNL     1      -0.693  13.322  19.204  0.00  0.00    +0.000 C 
BRANCH  33  34
ATOM     34  N   UNL     1       0.247  14.412  18.832  0.00  0.00    +0.000 NA
ATOM     35  C   UNL     1      -0.291  15.788  18.850  0.00  0.00    +0.000 C 
ATOM     36  C   UNL     1      -0.591  16.049  20.334  0.00  0.00    +0.000 C 
ATOM     37  C   UNL     1       0.513  15.249  21.043  0.00  0.00    +0.000 C 
ATOM     38  C   UNL     1       1.294  14.652  19.861  0.00  0.00    +0.000 C 
ATOM     39  C   UNL     1       2.086  15.800  19.209  0.00  0.00    +0.000 C 
ATOM     40  C   UNL     1       0.984  16.579  18.481  0.00  0.00    +0.000 C 
ENDBRANCH  33  34
ENDBRANCH   6  33
TORSDOF 7
ENDMDL
MODEL 5
REMARK VINA RESULT:      -9.0      4.631     11.783
REMARK  Name = 
REMARK  8 active torsions:
REMARK  status: ('A' for Active; 'I' for Inactive)
REMARK    1  A    between atoms: C_1  and  N_2
REMARK    2  A    between atoms: C_6  and  C_7
REMARK    3  A    between atoms: C_7  and  C_9
REMARK    4  A    between atoms: C_9  and  C_10
REMARK    5  A    between atoms: C_14  and  N_15
REMARK    6  A    between atoms: C_20  and  C_21
REMARK    7  A    between atoms: C_21  and  N_22
REMARK    8  A    between atoms: C_30  and  C_31
REMARK                            x       y       z     vdW  Elec       q    Type
REMARK                         _______ _______ _______ _____ _____    ______ ____
ROOT
ATOM      1  N   UNL     1      -0.131  11.247  21.485  0.00  0.00    +0.000 N 
ATOM      2  C   UNL     1       0.222  10.901  20.136  0.00  0.00    +0.000 C 
ATOM      3  C   UNL     1       0.827   9.558  20.227  0.00  0.00    +0.000 A 
ATOM      4  C   UNL     1       0.660   9.039  21.503  0.00  0.00    +0.000 A 
ATOM      5  C   UNL     1       1.066   7.731  21.768  0.00  0.00    +0.000 A 
ATOM      6  C   UNL     1       1.713   6.979  20.737  0.00  0.00    +0.000 A 
ATOM      7  C   UNL     1       1.936   7.586  19.483  0.00  0.00    +0.000 A 
ATOM      8  C   UNL     1       1.484   8.879  19.205  0.00  0.00    +0.000 A 
ATOM      9  C   UNL     1       0.076  10.143  22.346  0.00  0.00    +0.000 C 
ATOM     10  O   UNL     1      -0.126  10.046  23.540  0.00  0.00    +0.000 OA
ENDROOT
BRANCH   1  15
ATOM     11  C   UNL     1      -2.368  14.254  22.029  0.00  0.00    +0.000 A 
ATOM     12  C   UNL     1      -1.400  15.266  22.003  0.00  0.00    +0.000 A 
ATOM     13  C   UNL     1      -0.026  14.975  21.874  0.00  0.00    +0.000 A 
ATOM     14  C   UNL     1       0.443  13.655  21.749  0.00  0.00    +0.000 A 
ATOM     15  C   UNL     1      -0.468  12.612  21.746  0.00  0.00    +0.000 A 
ATOM     16  C   UNL     1      -1.841  12.949  21.917  0.00  0.00    +0.000 A 
BRANCH  11  17
ATOM     17  C   UNL     1      -3.993  14.486  22.095  0.00  0.00    +0.000 C 
ATOM     18  C   UNL     1      -4.780  13.493  21.190  0.00  0.00    +0.000 C 
ATOM     19  O   UNL     1      -5.370  14.563  20.429  0.00  0.00    +0.000 OA
ATOM     20  C   UNL     1      -4.664  15.555  21.206  0.00  0.00    +0.000 C 
BRANCH  17  21
ATOM     21  C   UNL     1      -4.568  14.473  23.531  0.00  0.00    +0.000 C 
ATOM     22  F   UNL     1      -3.571  14.129  24.405  0.00  0.00    +0.000 F 
BRANCH  21  28
ATOM     23  C   UNL     1      -7.652  15.257  23.292  0.00  0.00    +0.000 C 
ATOM     24  N   UNL     1      -7.084  13.965  23.578  0.00  0.00    +0.000 N 
ATOM     25  C   UNL     1      -7.807  12.817  23.711  0.00  0.00    +0.000 A 
ATOM     26  N   UNL     1      -7.002  11.818  23.971  0.00  0.00    +0.000 NA
ATOM     27  N   UNL     1      -5.725  12.308  23.984  0.00  0.00    +0.000 NA
ATOM     28  C   UNL     1      -5.765  13.605  23.739  0.00  0.00    +0.000 A 
ENDBRANCH  21  28
ENDBRANCH  17  21
ENDBRANCH  11  17
ENDBRANCH   1  15
BRANCH   8  29
ATOM     29  C   UNL     1       1.740   9.505  17.858  0.00  0.00    +0.000 C 
ATOM     30  F   UNL     1       2.473   8.720  17.014  0.00  0.00    +0.000 F 
ATOM     31  F   UNL     1       0.589   9.776  17.187  0.00  0.00    +0.000 F 
ATOM     32  F   UNL     1       2.425  10.675  17.941  0.00  0.00    +0.000 F 
ENDBRANCH   8  29
BRANCH   6  33
ATOM     33  C   UNL     1       2.035   5.493  20.911  0.00  0.00    +0.000 C 
BRANCH  33  34
ATOM     34  N   UNL     1       1.694   4.591  19.779  0.00  0.00    +0.000 NA
ATOM     35  C   UNL     1       2.803   3.805  19.199  0.00  0.00    +0.000 C 
ATOM     36  C   UNL     1       3.207   2.845  20.328  0.00  0.00    +0.000 C 
ATOM     37  C   UNL     1       1.869   2.576  21.033  0.00  0.00    +0.000 C 
ATOM     38  C   UNL     1       0.886   3.414  20.198  0.00  0.00    +0.000 C 
ATOM     39  C   UNL     1       0.700   2.693  18.850  0.00  0.00    +0.000 C 
ATOM     40  C   UNL     1       2.027   2.988  18.141  0.00  0.00    +0.000 C 
ENDBRANCH  33  34
ENDBRANCH   6  33
TORSDOF 7
ENDMDL
MODEL 6
REMARK VINA RESULT:      -9.0      1.554      2.571
REMARK  Name = 
REMARK  8 active torsions:
REMARK  status: ('A' for Active; 'I' for Inactive)
REMARK    1  A    between atoms: C_1  and  N_2
REMARK    2  A    between atoms: C_6  and  C_7
REMARK    3  A    between atoms: C_7  and  C_9
REMARK    4  A    between atoms: C_9  and  C_10
REMARK    5  A    between atoms: C_14  and  N_15
REMARK    6  A    between atoms: C_20  and  C_21
REMARK    7  A    between atoms: C_21  and  N_22
REMARK    8  A    between atoms: C_30  and  C_31
REMARK                            x       y       z     vdW  Elec       q    Type
REMARK                         _______ _______ _______ _____ _____    ______ ____
ROOT
ATOM      1  N   UNL     1       2.228   7.463  19.128  0.00  0.00    +0.000 N 
ATOM      2  C   UNL     1       1.463   7.760  20.308  0.00  0.00    +0.000 C 
ATOM      3  C   UNL     1       1.070   9.175  20.168  0.00  0.00    +0.000 A 
ATOM      4  C   UNL     1       1.388   9.641  18.900  0.00  0.00    +0.000 A 
ATOM      5  C   UNL     1       0.999  10.928  18.527  0.00  0.00    +0.000 A 
ATOM      6  C   UNL     1       0.344  11.764  19.484  0.00  0.00    +0.000 A 
ATOM      7  C   UNL     1       0.121  11.270  20.787  0.00  0.00    +0.000 A 
ATOM      8  C   UNL     1       0.469   9.964  21.144  0.00  0.00    +0.000 A 
ATOM      9  C   UNL     1       2.181   8.552  18.225  0.00  0.00    +0.000 C 
ATOM     10  O   UNL     1       2.683   8.665  17.125  0.00  0.00    +0.000 OA
ENDROOT
BRANCH   1  15
ATOM     11  C   UNL     1       4.692   4.884  17.855  0.00  0.00    +0.000 A 
ATOM     12  C   UNL     1       4.418   3.845  18.754  0.00  0.00    +0.000 A 
ATOM     13  C   UNL     1       3.489   3.997  19.804  0.00  0.00    +0.000 A 
ATOM     14  C   UNL     1       2.777   5.195  19.995  0.00  0.00    +0.000 A 
ATOM     15  C   UNL     1       2.988   6.252  19.126  0.00  0.00    +0.000 A 
ATOM     16  C   UNL     1       3.962   6.067  18.103  0.00  0.00    +0.000 A 
BRANCH  11  17
ATOM     17  C   UNL     1       5.691   4.786  16.556  0.00  0.00    +0.000 C 
ATOM     18  C   UNL     1       5.246   5.710  15.383  0.00  0.00    +0.000 C 
ATOM     19  O   UNL     1       5.118   4.596  14.479  0.00  0.00    +0.000 OA
ATOM     20  C   UNL     1       5.504   3.664  15.511  0.00  0.00    +0.000 C 
BRANCH  17  21
ATOM     21  C   UNL     1       7.180   5.031  16.892  0.00  0.00    +0.000 C 
ATOM     22  F   UNL     1       7.609   4.048  17.746  0.00  0.00    +0.000 F 
BRANCH  21  28
ATOM     23  C   UNL     1       8.158   5.782  19.835  0.00  0.00    +0.000 C 
ATOM     24  N   UNL     1       7.973   6.661  18.709  0.00  0.00    +0.000 N 
ATOM     25  C   UNL     1       8.283   7.989  18.709  0.00  0.00    +0.000 A 
ATOM     26  N   UNL     1       7.997   8.506  17.541  0.00  0.00    +0.000 NA
ATOM     27  N   UNL     1       7.515   7.500  16.750  0.00  0.00    +0.000 NA
ATOM     28  C   UNL     1       7.505   6.379  17.446  0.00  0.00    +0.000 A 
ENDBRANCH  21  28
ENDBRANCH  17  21
ENDBRANCH  11  17
ENDBRANCH   1  15
BRANCH   8  29
ATOM     29  C   UNL     1       0.224   9.464  22.544  0.00  0.00    +0.000 C 
ATOM     30  F   UNL     1      -0.602   8.377  22.607  0.00  0.00    +0.000 F 
ATOM     31  F   UNL     1       1.371   9.079  23.164  0.00  0.00    +0.000 F 
ATOM     32  F   UNL     1      -0.355  10.397  23.345  0.00  0.00    +0.000 F 
ENDBRANCH   8  29
BRANCH   6  33
ATOM     33  C   UNL     1      -0.252  13.118  19.092  0.00  0.00    +0.000 C 
BRANCH  33  34
ATOM     34  N   UNL     1      -0.184  14.205  20.104  0.00  0.00    +0.000 NA
ATOM     35  C   UNL     1       1.116  14.892  20.255  0.00  0.00    +0.000 C 
ATOM     36  C   UNL     1       1.308  15.621  18.917  0.00  0.00    +0.000 C 
ATOM     37  C   UNL     1      -0.133  15.985  18.525  0.00  0.00    +0.000 C 
ATOM     38  C   UNL     1      -0.943  15.420  19.704  0.00  0.00    +0.000 C 
ATOM     39  C   UNL     1      -0.689  16.335  20.915  0.00  0.00    +0.000 C 
ATOM     40  C   UNL     1       0.739  15.948  21.318  0.00  0.00    +0.000 C 
ENDBRANCH  33  34
ENDBRANCH   6  33
TORSDOF 7
ENDMDL
MODEL 7
REMARK VINA RESULT:      -9.0      3.621      4.935
REMARK  Name = 
REMARK  8 active torsions:
REMARK  status: ('A' for Active; 'I' for Inactive)
REMARK    1  A    between atoms: C_1  and  N_2
REMARK    2  A    between atoms: C_6  and  C_7
REMARK    3  A    between atoms: C_7  and  C_9
REMARK    4  A    between atoms: C_9  and  C_10
REMARK    5  A    between atoms: C_14  and  N_15
REMARK    6  A    between atoms: C_20  and  C_21
REMARK    7  A    between atoms: C_21  and  N_22
REMARK    8  A    between atoms: C_30  and  C_31
REMARK                            x       y       z     vdW  Elec       q    Type
REMARK                         _______ _______ _______ _____ _____    ______ ____
ROOT
ATOM      1  N   UNL     1       1.438   9.004  19.482  0.00  0.00    +0.000 N 
ATOM      2  C   UNL     1       0.652  10.001  18.810  0.00  0.00    +0.000 C 
ATOM      3  C   UNL     1      -0.236  10.557  19.848  0.00  0.00    +0.000 A 
ATOM      4  C   UNL     1       0.131  10.086  21.101  0.00  0.00    +0.000 A 
ATOM      5  C   UNL     1      -0.517  10.579  22.234  0.00  0.00    +0.000 A 
ATOM      6  C   UNL     1      -1.594  11.506  22.073  0.00  0.00    +0.000 A 
ATOM      7  C   UNL     1      -1.984  11.886  20.772  0.00  0.00    +0.000 A 
ATOM      8  C   UNL     1      -1.303  11.428  19.640  0.00  0.00    +0.000 A 
ATOM      9  C   UNL     1       1.192   9.041  20.875  0.00  0.00    +0.000 C 
ATOM     10  O   UNL     1       1.679   8.371  21.763  0.00  0.00    +0.000 OA
ENDROOT
BRANCH   1  15
ATOM     11  C   UNL     1       3.055   5.729  18.480  0.00  0.00    +0.000 A 
ATOM     12  C   UNL     1       3.797   6.170  17.376  0.00  0.00    +0.000 A 
ATOM     13  C   UNL     1       3.727   7.502  16.919  0.00  0.00    +0.000 A 
ATOM     14  C   UNL     1       2.921   8.462  17.557  0.00  0.00    +0.000 A 
ATOM     15  C   UNL     1       2.180   8.093  18.667  0.00  0.00    +0.000 A 
ATOM     16  C   UNL     1       2.252   6.728  19.071  0.00  0.00    +0.000 A 
BRANCH  11  17
ATOM     17  C   UNL     1       3.124   4.227  19.140  0.00  0.00    +0.000 C 
ATOM     18  C   UNL     1       1.855   3.377  18.835  0.00  0.00    +0.000 C 
ATOM     19  O   UNL     1       1.561   3.209  20.235  0.00  0.00    +0.000 OA
ATOM     20  C   UNL     1       2.708   4.002  20.610  0.00  0.00    +0.000 C 
BRANCH  17  21
ATOM     21  C   UNL     1       4.399   3.437  18.765  0.00  0.00    +0.000 C 
ATOM     22  F   UNL     1       4.449   2.292  19.518  0.00  0.00    +0.000 F 
BRANCH  21  28
ATOM     23  C   UNL     1       6.484   4.161  16.460  0.00  0.00    +0.000 C 
ATOM     24  N   UNL     1       6.535   4.529  17.852  0.00  0.00    +0.000 N 
ATOM     25  C   UNL     1       7.478   5.347  18.399  0.00  0.00    +0.000 A 
ATOM     26  N   UNL     1       7.252   5.484  19.681  0.00  0.00    +0.000 NA
ATOM     27  N   UNL     1       6.128   4.765  19.981  0.00  0.00    +0.000 NA
ATOM     28  C   UNL     1       5.684   4.190  18.879  0.00  0.00    +0.000 A 
ENDBRANCH  21  28
ENDBRANCH  17  21
ENDBRANCH  11  17
ENDBRANCH   1  15
BRANCH   8  29
ATOM     29  C   UNL     1      -1.743  11.847  18.261  0.00  0.00    +0.000 C 
ATOM     30  F   UNL     1      -3.042  12.265  18.199  0.00  0.00    +0.000 F 
ATOM     31  F   UNL     1      -1.008  12.883  17.776  0.00  0.00    +0.000 F 
ATOM     32  F   UNL     1      -1.649  10.844  17.350  0.00  0.00    +0.000 F 
ENDBRANCH   8  29
BRANCH   6  33
ATOM     33  C   UNL     1      -2.236  12.205  23.274  0.00  0.00    +0.000 C 
BRANCH  33  34
ATOM     34  N   UNL     1      -3.721  12.212  23.339  0.00  0.00    +0.000 NA
ATOM     35  C   UNL     1      -4.328  12.653  24.613  0.00  0.00    +0.000 C 
ATOM     36  C   UNL     1      -3.948  14.138  24.711  0.00  0.00    +0.000 C 
ATOM     37  C   UNL     1      -3.944  14.579  23.239  0.00  0.00    +0.000 C 
ATOM     38  C   UNL     1      -4.334  13.283  22.509  0.00  0.00    +0.000 C 
ATOM     39  C   UNL     1      -5.830  13.039  22.777  0.00  0.00    +0.000 C 
ATOM     40  C   UNL     1      -5.825  12.573  24.238  0.00  0.00    +0.000 C 
ENDBRANCH  33  34
ENDBRANCH   6  33
TORSDOF 7
ENDMDL
MODEL 8
REMARK VINA RESULT:      -8.8      4.528     11.474
REMARK  Name = 
REMARK  8 active torsions:
REMARK  status: ('A' for Active; 'I' for Inactive)
REMARK    1  A    between atoms: C_1  and  N_2
REMARK    2  A    between atoms: C_6  and  C_7
REMARK    3  A    between atoms: C_7  and  C_9
REMARK    4  A    between atoms: C_9  and  C_10
REMARK    5  A    between atoms: C_14  and  N_15
REMARK    6  A    between atoms: C_20  and  C_21
REMARK    7  A    between atoms: C_21  and  N_22
REMARK    8  A    between atoms: C_30  and  C_31
REMARK                            x       y       z     vdW  Elec       q    Type
REMARK                         _______ _______ _______ _____ _____    ______ ____
ROOT
ATOM      1  N   UNL     1      -0.153  11.242  21.443  0.00  0.00    +0.000 N 
ATOM      2  C   UNL     1       0.199  10.883  20.096  0.00  0.00    +0.000 C 
ATOM      3  C   UNL     1       0.821   9.549  20.203  0.00  0.00    +0.000 A 
ATOM      4  C   UNL     1       0.665   9.045  21.487  0.00  0.00    +0.000 A 
ATOM      5  C   UNL     1       1.088   7.745  21.767  0.00  0.00    +0.000 A 
ATOM      6  C   UNL     1       1.740   6.988  20.743  0.00  0.00    +0.000 A 
ATOM      7  C   UNL     1       1.951   7.581  19.481  0.00  0.00    +0.000 A 
ATOM      8  C   UNL     1       1.483   8.865  19.188  0.00  0.00    +0.000 A 
ATOM      9  C   UNL     1       0.070  10.152  22.317  0.00  0.00    +0.000 C 
ATOM     10  O   UNL     1      -0.125  10.069  23.513  0.00  0.00    +0.000 OA
ENDROOT
BRANCH   1  15
ATOM     11  C   UNL     1      -2.061  14.144  22.954  0.00  0.00    +0.000 A 
ATOM     12  C   UNL     1      -1.557  15.185  22.162  0.00  0.00    +0.000 A 
ATOM     13  C   UNL     1      -0.560  14.961  21.190  0.00  0.00    +0.000 A 
ATOM     14  C   UNL     1      -0.032  13.680  20.952  0.00  0.00    +0.000 A 
ATOM     15  C   UNL     1      -0.505  12.607  21.687  0.00  0.00    +0.000 A 
ATOM     16  C   UNL     1      -1.484  12.884  22.685  0.00  0.00    +0.000 A 
BRANCH  11  17
ATOM     17  C   UNL     1      -3.272  14.280  24.055  0.00  0.00    +0.000 C 
ATOM     18  C   UNL     1      -4.134  15.560  23.846  0.00  0.00    +0.000 C 
ATOM     19  O   UNL     1      -3.833  16.049  25.166  0.00  0.00    +0.000 OA
ATOM     20  C   UNL     1      -2.998  14.903  25.441  0.00  0.00    +0.000 C 
BRANCH  17  21
ATOM     21  C   UNL     1      -4.180  13.032  24.142  0.00  0.00    +0.000 C 
ATOM     22  F   UNL     1      -3.391  11.916  24.241  0.00  0.00    +0.000 F 
BRANCH  21  28
ATOM     23  C   UNL     1      -7.322  13.584  24.197  0.00  0.00    +0.000 C 
ATOM     24  N   UNL     1      -6.513  13.170  23.080  0.00  0.00    +0.000 N 
ATOM     25  C   UNL     1      -6.974  13.028  21.805  0.00  0.00    +0.000 A 
ATOM     26  N   UNL     1      -5.997  12.637  21.026  0.00  0.00    +0.000 NA
ATOM     27  N   UNL     1      -4.868  12.546  21.793  0.00  0.00    +0.000 NA
ATOM     28  C   UNL     1      -5.170  12.873  23.035  0.00  0.00    +0.000 A 
ENDBRANCH  21  28
ENDBRANCH  17  21
ENDBRANCH  11  17
ENDBRANCH   1  15
BRANCH   8  29
ATOM     29  C   UNL     1       1.726   9.476  17.832  0.00  0.00    +0.000 C 
ATOM     30  F   UNL     1       2.385  10.672  17.874  0.00  0.00    +0.000 F 
ATOM     31  F   UNL     1       2.483   8.678  17.033  0.00  0.00    +0.000 F 
ATOM     32  F   UNL     1       0.577   9.727  17.152  0.00  0.00    +0.000 F 
ENDBRANCH   8  29
BRANCH   6  33
ATOM     33  C   UNL     1       2.080   5.508  20.935  0.00  0.00    +0.000 C 
BRANCH  33  34
ATOM     34  N   UNL     1       1.664   4.573  19.857  0.00  0.00    +0.000 NA
ATOM     35  C   UNL     1       2.745   3.906  19.102  0.00  0.00    +0.000 C 
ATOM     36  C   UNL     1       3.415   2.995  20.142  0.00  0.00    +0.000 C 
ATOM     37  C   UNL     1       2.236   2.590  21.040  0.00  0.00    +0.000 C 
ATOM     38  C   UNL     1       1.056   3.320  20.377  0.00  0.00    +0.000 C 
ATOM     39  C   UNL     1       0.740   2.581  19.064  0.00  0.00    +0.000 C 
ATOM     40  C   UNL     1       1.904   3.011  18.163  0.00  0.00    +0.000 C 
ENDBRANCH  33  34
ENDBRANCH   6  33
TORSDOF 7
ENDMDL
MODEL 9
REMARK VINA RESULT:      -8.8      2.718      9.492
REMARK  Name = 
REMARK  8 active torsions:
REMARK  status: ('A' for Active; 'I' for Inactive)
REMARK    1  A    between atoms: C_1  and  N_2
REMARK    2  A    between atoms: C_6  and  C_7
REMARK    3  A    between atoms: C_7  and  C_9
REMARK    4  A    between atoms: C_9  and  C_10
REMARK    5  A    between atoms: C_14  and  N_15
REMARK    6  A    between atoms: C_20  and  C_21
REMARK    7  A    between atoms: C_21  and  N_22
REMARK    8  A    between atoms: C_30  and  C_31
REMARK                            x       y       z     vdW  Elec       q    Type
REMARK                         _______ _______ _______ _____ _____    ______ ____
ROOT
ATOM      1  N   UNL     1       1.370   8.000  20.474  0.00  0.00    +0.000 N 
ATOM      2  C   UNL     1       1.573   6.706  21.066  0.00  0.00    +0.000 C 
ATOM      3  C   UNL     1       2.132   5.871  19.986  0.00  0.00    +0.000 A 
ATOM      4  C   UNL     1       2.446   6.654  18.884  0.00  0.00    +0.000 A 
ATOM      5  C   UNL     1       3.090   6.071  17.792  0.00  0.00    +0.000 A 
ATOM      6  C   UNL     1       3.347   4.664  17.804  0.00  0.00    +0.000 A 
ATOM      7  C   UNL     1       2.930   3.900  18.913  0.00  0.00    +0.000 A 
ATOM      8  C   UNL     1       2.328   4.494  20.027  0.00  0.00    +0.000 A 
ATOM      9  C   UNL     1       1.916   8.035  19.169  0.00  0.00    +0.000 C 
ATOM     10  O   UNL     1       1.956   8.951  18.373  0.00  0.00    +0.000 OA
ENDROOT
BRANCH   1  15
ATOM     11  C   UNL     1      -0.775  11.071  21.034  0.00  0.00    +0.000 A 
ATOM     12  C   UNL     1      -0.850  11.045  22.432  0.00  0.00    +0.000 A 
ATOM     13  C   UNL     1      -0.265  10.007  23.187  0.00  0.00    +0.000 A 
ATOM     14  C   UNL     1       0.437   8.953  22.577  0.00  0.00    +0.000 A 
ATOM     15  C   UNL     1       0.564   8.934  21.198  0.00  0.00    +0.000 A 
ATOM     16  C   UNL     1      -0.074   9.981  20.473  0.00  0.00    +0.000 A 
BRANCH  11  17
ATOM     17  C   UNL     1      -1.349  12.268  20.068  0.00  0.00    +0.000 C 
ATOM     18  C   UNL     1      -2.905  12.346  20.065  0.00  0.00    +0.000 C 
ATOM     19  O   UNL     1      -2.972  12.131  18.643  0.00  0.00    +0.000 OA
ATOM     20  C   UNL     1      -1.534  12.026  18.554  0.00  0.00    +0.000 C 
BRANCH  17  21
ATOM     21  C   UNL     1      -0.745  13.659  20.369  0.00  0.00    +0.000 C 
ATOM     22  F   UNL     1      -0.933  14.470  19.280  0.00  0.00    +0.000 F 
BRANCH  21  28
ATOM     23  C   UNL     1       1.821  12.930  18.619  0.00  0.00    +0.000 C 
ATOM     24  N   UNL     1       1.778  13.393  19.983  0.00  0.00    +0.000 N 
ATOM     25  C   UNL     1       2.878  13.681  20.734  0.00  0.00    +0.000 A 
ATOM     26  N   UNL     1       2.506  14.073  21.927  0.00  0.00    +0.000 NA
ATOM     27  N   UNL     1       1.138  14.068  21.955  0.00  0.00    +0.000 NA
ATOM     28  C   UNL     1       0.690  13.665  20.781  0.00  0.00    +0.000 A 
ENDBRANCH  21  28
ENDBRANCH  17  21
ENDBRANCH  11  17
ENDBRANCH   1  15
BRANCH   8  29
ATOM     29  C   UNL     1       1.888   3.653  21.197  0.00  0.00    +0.000 C 
ATOM     30  F   UNL     1       2.350   4.098  22.403  0.00  0.00    +0.000 F 
ATOM     31  F   UNL     1       0.535   3.611  21.325  0.00  0.00    +0.000 F 
ATOM     32  F   UNL     1       2.309   2.364  21.109  0.00  0.00    +0.000 F 
ENDBRANCH   8  29
BRANCH   6  33
ATOM     33  C   UNL     1       4.190   3.994  16.716  0.00  0.00    +0.000 C 
BRANCH  33  34
ATOM     34  N   UNL     1       5.628   4.368  16.648  0.00  0.00    +0.000 NA
ATOM     35  C   UNL     1       6.332   4.072  15.382  0.00  0.00    +0.000 C 
ATOM     36  C   UNL     1       5.660   5.001  14.360  0.00  0.00    +0.000 C 
ATOM     37  C   UNL     1       5.311   6.235  15.207  0.00  0.00    +0.000 C 
ATOM     38  C   UNL     1       5.844   5.838  16.594  0.00  0.00    +0.000 C 
ATOM     39  C   UNL     1       7.381   5.905  16.531  0.00  0.00    +0.000 C 
ATOM     40  C   UNL     1       7.725   4.658  15.708  0.00  0.00    +0.000 C 
ENDBRANCH  33  34
ENDBRANCH   6  33
TORSDOF 7
ENDMDL
