MODEL 1
REMARK VINA RESULT:      -7.7      0.000      0.000
REMARK  Name = 
REMARK  9 active torsions:
REMARK  status: ('A' for Active; 'I' for Inactive)
REMARK    1  A    between atoms: C_1  and  C_2
REMARK    2  A    between atoms: C_2  and  C_3
REMARK    3  A    between atoms: C_2  and  C_10
REMARK    4  A    between atoms: C_3  and  C_4
REMARK    5  A    between atoms: N_8  and  C_9
REMARK    6  A    between atoms: C_14  and  N_15
REMARK    7  A    between atoms: C_20  and  C_21
REMARK    8  A    between atoms: C_22  and  C_23
REMARK    9  A    between atoms: C_23  and  O_24
REMARK                            x       y       z     vdW  Elec       q    Type
REMARK                         _______ _______ _______ _____ _____    ______ ____
ROOT
ATOM      1  C   UNL     1       0.317  10.079  19.433  0.00  0.00    +0.000 A 
ATOM      2  C   UNL     1      -0.009   9.617  20.713  0.00  0.00    +0.000 A 
ATOM      3  C   UNL     1       0.628   8.499  21.243  0.00  0.00    +0.000 A 
ATOM      4  C   UNL     1       1.624   7.838  20.517  0.00  0.00    +0.000 A 
ATOM      5  C   UNL     1       1.965   8.261  19.239  0.00  0.00    +0.000 A 
ATOM      6  C   UNL     1       1.298   9.367  18.703  0.00  0.00    +0.000 A 
ENDROOT
BRANCH   5   7
ATOM      7  N   UNL     1       2.957   7.631  18.460  0.00  0.00    +0.000 N 
ATOM      8  C   UNL     1       3.147   6.271  18.363  0.00  0.00    +0.000 C 
ATOM      9  O   UNL     1       2.463   5.415  18.916  0.00  0.00    +0.000 OA
ATOM     10  N   UNL     1       4.230   5.885  17.612  0.00  0.00    +0.000 N 
ATOM     11  C   UNL     1       5.174   6.723  16.900  0.00  0.00    +0.000 C 
ATOM     12  C   UNL     1       6.005   5.733  16.090  0.00  0.00    +0.000 C 
ATOM     13  C   UNL     1       5.311   5.422  14.758  0.00  0.00    +0.000 C 
ATOM     14  C   UNL     1       6.047   4.498  17.014  0.00  0.00    +0.000 C 
ATOM     15  C   UNL     1       4.648   4.488  17.629  0.00  0.00    +0.000 C 
ATOM     16  H   UNL     1       3.442   8.211  17.793  0.00  0.00    +0.000 HD
BRANCH  14  17
ATOM     17  C   UNL     1       7.101   4.614  18.123  0.00  0.00    +0.000 C 
BRANCH  17  18
ATOM     18  O   UNL     1       8.325   4.025  17.706  0.00  0.00    +0.000 OA
ATOM     19  H   UNL     1       8.109   3.240  17.176  0.00  0.00    +0.000 HD
ENDBRANCH  17  18
ENDBRANCH  14  17
ENDBRANCH   5   7
BRANCH   1  21
ATOM     20  C   UNL     1       0.116  12.581  19.577  0.00  0.00    +0.000 C 
ATOM     21  C   UNL     1      -0.360  11.320  18.840  0.00  0.00    +0.000 C 
BRANCH  21  22
ATOM     22  C   UNL     1      -1.897  11.183  18.877  0.00  0.00    +0.000 C 
BRANCH  22  23
ATOM     23  C   UNL     1      -2.526  10.756  17.577  0.00  0.00    +0.000 A 
ATOM     24  N   UNL     1      -1.947  10.103  16.599  0.00  0.00    +0.000 NA
ATOM     25  N   UNL     1      -2.820  10.051  15.531  0.00  0.00    +0.000 NA
ATOM     26  C   UNL     1      -3.911  10.689  15.890  0.00  0.00    +0.000 A 
ATOM     27  N   UNL     1      -3.792  11.107  17.177  0.00  0.00    +0.000 N 
ATOM     28  C   UNL     1      -4.795  11.771  17.955  0.00  0.00    +0.000 C 
ENDBRANCH  22  23
ENDBRANCH  21  22
ENDBRANCH   1  21
TORSDOF 6
ENDMDL
MODEL 2
REMARK VINA RESULT:      -7.6      5.418      7.930
REMARK  Name = 
REMARK  9 active torsions:
REMARK  status: ('A' for Active; 'I' for Inactive)
REMARK    1  A    between atoms: C_1  and  C_2
REMARK    2  A    between atoms: C_2  and  C_3
REMARK    3  A    between atoms: C_2  and  C_10
REMARK    4  A    between atoms: C_3  and  C_4
REMARK    5  A    between atoms: N_8  and  C_9
REMARK    6  A    between atoms: C_14  and  N_15
REMARK    7  A    between atoms: C_20  and  C_21
REMARK    8  A    between atoms: C_22  and  C_23
REMARK    9  A    between atoms: C_23  and  O_24
REMARK                            x       y       z     vdW  Elec       q    Type
REMARK                         _______ _______ _______ _____ _____    ______ ____
ROOT
ATOM      1  C   UNL     1       4.399   5.762  17.236  0.00  0.00    +0.000 A 
ATOM      2  C   UNL     1       4.949   4.780  16.404  0.00  0.00    +0.000 A 
ATOM      3  C   UNL     1       6.218   4.947  15.858  0.00  0.00    +0.000 A 
ATOM      4  C   UNL     1       6.976   6.084  16.155  0.00  0.00    +0.000 A 
ATOM      5  C   UNL     1       6.458   7.085  16.967  0.00  0.00    +0.000 A 
ATOM      6  C   UNL     1       5.170   6.922  17.486  0.00  0.00    +0.000 A 
ENDROOT
BRANCH   5   7
ATOM      7  N   UNL     1       7.173   8.255  17.296  0.00  0.00    +0.000 N 
ATOM      8  C   UNL     1       8.171   8.338  18.241  0.00  0.00    +0.000 C 
ATOM      9  O   UNL     1       8.600   7.401  18.908  0.00  0.00    +0.000 OA
ATOM     10  N   UNL     1       8.668   9.600  18.455  0.00  0.00    +0.000 N 
ATOM     11  C   UNL     1       8.291  10.837  17.802  0.00  0.00    +0.000 C 
ATOM     12  C   UNL     1       9.325  11.843  18.297  0.00  0.00    +0.000 C 
ATOM     13  C   UNL     1      10.582  11.789  17.420  0.00  0.00    +0.000 C 
ATOM     14  C   UNL     1       9.609  11.351  19.732  0.00  0.00    +0.000 C 
ATOM     15  C   UNL     1       9.563   9.831  19.583  0.00  0.00    +0.000 C 
ATOM     16  H   UNL     1       7.066   9.040  16.671  0.00  0.00    +0.000 HD
BRANCH  14  17
ATOM     17  C   UNL     1       8.549  11.807  20.743  0.00  0.00    +0.000 C 
BRANCH  17  18
ATOM     18  O   UNL     1       8.917  11.413  22.058  0.00  0.00    +0.000 OA
ATOM     19  H   UNL     1       8.278  11.810  22.673  0.00  0.00    +0.000 HD
ENDBRANCH  17  18
ENDBRANCH  14  17
ENDBRANCH   5   7
BRANCH   1  21
ATOM     20  C   UNL     1       2.994   6.183  19.278  0.00  0.00    +0.000 C 
ATOM     21  C   UNL     1       3.011   5.587  17.862  0.00  0.00    +0.000 C 
BRANCH  21  22
ATOM     22  C   UNL     1       2.586   4.103  17.861  0.00  0.00    +0.000 C 
BRANCH  22  23
ATOM     23  C   UNL     1       2.143   3.571  19.198  0.00  0.00    +0.000 A 
ATOM     24  N   UNL     1       0.979   3.754  19.773  0.00  0.00    +0.000 NA
ATOM     25  N   UNL     1       1.037   3.238  21.051  0.00  0.00    +0.000 NA
ATOM     26  C   UNL     1       2.249   2.759  21.223  0.00  0.00    +0.000 A 
ATOM     27  N   UNL     1       2.962   2.903  20.075  0.00  0.00    +0.000 N 
ATOM     28  C   UNL     1       4.296   2.440  19.836  0.00  0.00    +0.000 C 
ENDBRANCH  22  23
ENDBRANCH  21  22
ENDBRANCH   1  21
TORSDOF 6
ENDMDL
MODEL 3
REMARK VINA RESULT:      -7.5      3.204      8.758
REMARK  Name = 
REMARK  9 active torsions:
REMARK  status: ('A' for Active; 'I' for Inactive)
REMARK    1  A    between atoms: C_1  and  C_2
REMARK    2  A    between atoms: C_2  and  C_3
REMARK    3  A    between atoms: C_2  and  C_10
REMARK    4  A    between atoms: C_3  and  C_4
REMARK    5  A    between atoms: N_8  and  C_9
REMARK    6  A    between atoms: C_14  and  N_15
REMARK    7  A    between atoms: C_20  and  C_21
REMARK    8  A    between atoms: C_22  and  C_23
REMARK    9  A    between atoms: C_23  and  O_24
REMARK                            x       y       z     vdW  Elec       q    Type
REMARK                         _______ _______ _______ _____ _____    ______ ____
ROOT
ATOM      1  C   UNL     1       2.969   4.926  18.688  0.00  0.00    +0.000 A 
ATOM      2  C   UNL     1       2.644   4.261  19.876  0.00  0.00    +0.000 A 
ATOM      3  C   UNL     1       2.064   4.951  20.936  0.00  0.00    +0.000 A 
ATOM      4  C   UNL     1       1.770   6.314  20.821  0.00  0.00    +0.000 A 
ATOM      5  C   UNL     1       2.089   7.009  19.662  0.00  0.00    +0.000 A 
ATOM      6  C   UNL     1       2.699   6.314  18.614  0.00  0.00    +0.000 A 
ENDROOT
BRANCH   5   7
ATOM      7  N   UNL     1       1.821   8.383  19.492  0.00  0.00    +0.000 N 
ATOM      8  C   UNL     1       0.950   9.124  20.257  0.00  0.00    +0.000 C 
ATOM      9  O   UNL     1       0.307   8.703  21.214  0.00  0.00    +0.000 OA
ATOM     10  N   UNL     1       0.782  10.427  19.855  0.00  0.00    +0.000 N 
ATOM     11  C   UNL     1       1.418  11.114  18.748  0.00  0.00    +0.000 C 
ATOM     12  C   UNL     1       1.005  12.571  18.936  0.00  0.00    +0.000 C 
ATOM     13  C   UNL     1       1.969  13.276  19.898  0.00  0.00    +0.000 C 
ATOM     14  C   UNL     1      -0.410  12.442  19.537  0.00  0.00    +0.000 C 
ATOM     15  C   UNL     1      -0.278  11.228  20.456  0.00  0.00    +0.000 C 
ATOM     16  H   UNL     1       2.443   8.891  18.881  0.00  0.00    +0.000 HD
BRANCH  14  17
ATOM     17  C   UNL     1      -1.490  12.179  18.480  0.00  0.00    +0.000 C 
BRANCH  17  18
ATOM     18  O   UNL     1      -1.140  12.797  17.249  0.00  0.00    +0.000 OA
ATOM     19  H   UNL     1      -1.353  13.741  17.324  0.00  0.00    +0.000 HD
ENDBRANCH  17  18
ENDBRANCH  14  17
ENDBRANCH   5   7
BRANCH   1  21
ATOM     20  C   UNL     1       2.599   3.137  16.961  0.00  0.00    +0.000 C 
ATOM     21  C   UNL     1       3.590   4.179  17.503  0.00  0.00    +0.000 C 
BRANCH  21  22
ATOM     22  C   UNL     1       4.936   3.534  17.899  0.00  0.00    +0.000 C 
BRANCH  22  23
ATOM     23  C   UNL     1       6.048   4.511  18.176  0.00  0.00    +0.000 A 
ATOM     24  N   UNL     1       6.431   4.957  19.348  0.00  0.00    +0.000 NA
ATOM     25  N   UNL     1       7.369   5.950  19.151  0.00  0.00    +0.000 NA
ATOM     26  C   UNL     1       7.525   6.086  17.854  0.00  0.00    +0.000 A 
ATOM     27  N   UNL     1       6.754   5.176  17.204  0.00  0.00    +0.000 N 
ATOM     28  C   UNL     1       6.702   4.957  15.789  0.00  0.00    +0.000 C 
ENDBRANCH  22  23
ENDBRANCH  21  22
ENDBRANCH   1  21
TORSDOF 6
ENDMDL
MODEL 4
REMARK VINA RESULT:      -7.4      3.193      8.512
REMARK  Name = 
REMARK  9 active torsions:
REMARK  status: ('A' for Active; 'I' for Inactive)
REMARK    1  A    between atoms: C_1  and  C_2
REMARK    2  A    between atoms: C_2  and  C_3
REMARK    3  A    between atoms: C_2  and  C_10
REMARK    4  A    between atoms: C_3  and  C_4
REMARK    5  A    between atoms: N_8  and  C_9
REMARK    6  A    between atoms: C_14  and  N_15
REMARK    7  A    between atoms: C_20  and  C_21
REMARK    8  A    between atoms: C_22  and  C_23
REMARK    9  A    between atoms: C_23  and  O_24
REMARK                            x       y       z     vdW  Elec       q    Type
REMARK                         _______ _______ _______ _____ _____    ______ ____
ROOT
ATOM      1  C   UNL     1       2.852   4.864  18.645  0.00  0.00    +0.000 A 
ATOM      2  C   UNL     1       2.558   4.193  19.837  0.00  0.00    +0.000 A 
ATOM      3  C   UNL     1       2.030   4.884  20.924  0.00  0.00    +0.000 A 
ATOM      4  C   UNL     1       1.756   6.252  20.831  0.00  0.00    +0.000 A 
ATOM      5  C   UNL     1       2.046   6.953  19.667  0.00  0.00    +0.000 A 
ATOM      6  C   UNL     1       2.605   6.256  18.592  0.00  0.00    +0.000 A 
ENDROOT
BRANCH   5   7
ATOM      7  N   UNL     1       1.797   8.332  19.518  0.00  0.00    +0.000 N 
ATOM      8  C   UNL     1       0.909   9.066  20.272  0.00  0.00    +0.000 C 
ATOM      9  O   UNL     1       0.232   8.631  21.199  0.00  0.00    +0.000 OA
ATOM     10  N   UNL     1       0.766  10.379  19.892  0.00  0.00    +0.000 N 
ATOM     11  C   UNL     1       1.444  11.083  18.822  0.00  0.00    +0.000 C 
ATOM     12  C   UNL     1       1.039  12.539  19.028  0.00  0.00    +0.000 C 
ATOM     13  C   UNL     1       1.979  13.214  20.035  0.00  0.00    +0.000 C 
ATOM     14  C   UNL     1      -0.396  12.412  19.581  0.00  0.00    +0.000 C 
ATOM     15  C   UNL     1      -0.304  11.177  20.477  0.00  0.00    +0.000 C 
ATOM     16  H   UNL     1       2.443   8.847  18.939  0.00  0.00    +0.000 HD
BRANCH  14  17
ATOM     17  C   UNL     1      -1.444  12.183  18.485  0.00  0.00    +0.000 C 
BRANCH  17  18
ATOM     18  O   UNL     1      -1.083  12.879  17.301  0.00  0.00    +0.000 OA
ATOM     19  H   UNL     1      -1.390  12.353  16.545  0.00  0.00    +0.000 HD
ENDBRANCH  17  18
ENDBRANCH  14  17
ENDBRANCH   5   7
BRANCH   1  21
ATOM     20  C   UNL     1       2.771   2.727  17.322  0.00  0.00    +0.000 C 
ATOM     21  C   UNL     1       3.418   4.116  17.432  0.00  0.00    +0.000 C 
BRANCH  21  22
ATOM     22  C   UNL     1       4.957   4.025  17.505  0.00  0.00    +0.000 C 
BRANCH  22  23
ATOM     23  C   UNL     1       5.678   5.332  17.311  0.00  0.00    +0.000 A 
ATOM     24  N   UNL     1       5.618   6.117  16.263  0.00  0.00    +0.000 NA
ATOM     25  N   UNL     1       6.546   7.127  16.420  0.00  0.00    +0.000 NA
ATOM     26  C   UNL     1       7.156   6.920  17.566  0.00  0.00    +0.000 A 
ATOM     27  N   UNL     1       6.615   5.836  18.180  0.00  0.00    +0.000 N 
ATOM     28  C   UNL     1       6.954   5.333  19.478  0.00  0.00    +0.000 C 
ENDBRANCH  22  23
ENDBRANCH  21  22
ENDBRANCH   1  21
TORSDOF 6
ENDMDL
MODEL 5
REMARK VINA RESULT:      -7.4      3.197      8.644
REMARK  Name = 
REMARK  9 active torsions:
REMARK  status: ('A' for Active; 'I' for Inactive)
REMARK    1  A    between atoms: C_1  and  C_2
REMARK    2  A    between atoms: C_2  and  C_3
REMARK    3  A    between atoms: C_2  and  C_10
REMARK    4  A    between atoms: C_3  and  C_4
REMARK    5  A    between atoms: N_8  and  C_9
REMARK    6  A    between atoms: C_14  and  N_15
REMARK    7  A    between atoms: C_20  and  C_21
REMARK    8  A    between atoms: C_22  and  C_23
REMARK    9  A    between atoms: C_23  and  O_24
REMARK                            x       y       z     vdW  Elec       q    Type
REMARK                         _______ _______ _______ _____ _____    ______ ____
ROOT
ATOM      1  C   UNL     1       2.859   4.675  18.704  0.00  0.00    +0.000 A 
ATOM      2  C   UNL     1       2.516   4.050  19.908  0.00  0.00    +0.000 A 
ATOM      3  C   UNL     1       1.971   4.788  20.956  0.00  0.00    +0.000 A 
ATOM      4  C   UNL     1       1.730   6.157  20.810  0.00  0.00    +0.000 A 
ATOM      5  C   UNL     1       2.069   6.813  19.634  0.00  0.00    +0.000 A 
ATOM      6  C   UNL     1       2.644   6.070  18.599  0.00  0.00    +0.000 A 
ENDROOT
BRANCH   5   7
ATOM      7  N   UNL     1       1.855   8.192  19.433  0.00  0.00    +0.000 N 
ATOM      8  C   UNL     1       1.056   8.995  20.215  0.00  0.00    +0.000 C 
ATOM      9  O   UNL     1       0.443   8.632  21.215  0.00  0.00    +0.000 OA
ATOM     10  N   UNL     1       0.926  10.291  19.780  0.00  0.00    +0.000 N 
ATOM     11  C   UNL     1       1.537  10.915  18.623  0.00  0.00    +0.000 C 
ATOM     12  C   UNL     1       1.199  12.394  18.783  0.00  0.00    +0.000 C 
ATOM     13  C   UNL     1       2.240  13.083  19.676  0.00  0.00    +0.000 C 
ATOM     14  C   UNL     1      -0.189  12.349  19.456  0.00  0.00    +0.000 C 
ATOM     15  C   UNL     1      -0.065  11.158  20.405  0.00  0.00    +0.000 C 
ATOM     16  H   UNL     1       2.468   8.653  18.777  0.00  0.00    +0.000 HD
BRANCH  14  17
ATOM     17  C   UNL     1      -1.330  12.104  18.461  0.00  0.00    +0.000 C 
BRANCH  17  18
ATOM     18  O   UNL     1      -1.103  12.827  17.259  0.00  0.00    +0.000 OA
ATOM     19  H   UNL     1      -1.409  12.274  16.521  0.00  0.00    +0.000 HD
ENDBRANCH  17  18
ENDBRANCH  14  17
ENDBRANCH   5   7
BRANCH   1  21
ATOM     20  C   UNL     1       2.842   2.462  17.510  0.00  0.00    +0.000 C 
ATOM     21  C   UNL     1       3.443   3.876  17.533  0.00  0.00    +0.000 C 
BRANCH  21  22
ATOM     22  C   UNL     1       4.985   3.839  17.601  0.00  0.00    +0.000 C 
BRANCH  22  23
ATOM     23  C   UNL     1       5.683   4.171  16.310  0.00  0.00    +0.000 A 
ATOM     24  N   UNL     1       5.741   3.427  15.232  0.00  0.00    +0.000 NA
ATOM     25  N   UNL     1       6.606   4.022  14.336  0.00  0.00    +0.000 NA
ATOM     26  C   UNL     1       7.061   5.117  14.904  0.00  0.00    +0.000 A 
ATOM     27  N   UNL     1       6.477   5.276  16.120  0.00  0.00    +0.000 N 
ATOM     28  C   UNL     1       6.652   6.382  17.013  0.00  0.00    +0.000 C 
ENDBRANCH  22  23
ENDBRANCH  21  22
ENDBRANCH   1  21
TORSDOF 6
ENDMDL
MODEL 6
REMARK VINA RESULT:      -7.4      1.977      2.827
REMARK  Name = 
REMARK  9 active torsions:
REMARK  status: ('A' for Active; 'I' for Inactive)
REMARK    1  A    between atoms: C_1  and  C_2
REMARK    2  A    between atoms: C_2  and  C_3
REMARK    3  A    between atoms: C_2  and  C_10
REMARK    4  A    between atoms: C_3  and  C_4
REMARK    5  A    between atoms: N_8  and  C_9
REMARK    6  A    between atoms: C_14  and  N_15
REMARK    7  A    between atoms: C_20  and  C_21
REMARK    8  A    between atoms: C_22  and  C_23
REMARK    9  A    between atoms: C_23  and  O_24
REMARK                            x       y       z     vdW  Elec       q    Type
REMARK                         _______ _______ _______ _____ _____    ______ ____
ROOT
ATOM      1  C   UNL     1      -0.871  10.436  18.087  0.00  0.00    +0.000 A 
ATOM      2  C   UNL     1      -0.344  11.648  18.545  0.00  0.00    +0.000 A 
ATOM      3  C   UNL     1       1.017  11.769  18.815  0.00  0.00    +0.000 A 
ATOM      4  C   UNL     1       1.881  10.691  18.604  0.00  0.00    +0.000 A 
ATOM      5  C   UNL     1       1.392   9.469  18.161  0.00  0.00    +0.000 A 
ATOM      6  C   UNL     1       0.019   9.349  17.922  0.00  0.00    +0.000 A 
ENDROOT
BRANCH   5   7
ATOM      7  N   UNL     1       2.215   8.347  17.935  0.00  0.00    +0.000 N 
ATOM      8  C   UNL     1       2.580   7.424  18.889  0.00  0.00    +0.000 C 
ATOM      9  O   UNL     1       2.216   7.430  20.062  0.00  0.00    +0.000 OA
ATOM     10  N   UNL     1       3.459   6.460  18.462  0.00  0.00    +0.000 N 
ATOM     11  C   UNL     1       4.028   6.285  17.141  0.00  0.00    +0.000 C 
ATOM     12  C   UNL     1       4.747   4.942  17.226  0.00  0.00    +0.000 C 
ATOM     13  C   UNL     1       3.769   3.797  16.933  0.00  0.00    +0.000 C 
ATOM     14  C   UNL     1       5.233   4.916  18.690  0.00  0.00    +0.000 C 
ATOM     15  C   UNL     1       4.077   5.574  19.442  0.00  0.00    +0.000 C 
ATOM     16  H   UNL     1       2.401   8.111  16.972  0.00  0.00    +0.000 HD
BRANCH  14  17
ATOM     17  C   UNL     1       6.521   5.720  18.909  0.00  0.00    +0.000 C 
BRANCH  17  18
ATOM     18  O   UNL     1       7.180   5.289  20.091  0.00  0.00    +0.000 OA
ATOM     19  H   UNL     1       7.842   5.962  20.321  0.00  0.00    +0.000 HD
ENDBRANCH  17  18
ENDBRANCH  14  17
ENDBRANCH   5   7
BRANCH   1  21
ATOM     20  C   UNL     1      -2.543   9.702  16.359  0.00  0.00    +0.000 C 
ATOM     21  C   UNL     1      -2.363  10.290  17.767  0.00  0.00    +0.000 C 
BRANCH  21  22
ATOM     22  C   UNL     1      -3.098  11.639  17.920  0.00  0.00    +0.000 C 
BRANCH  22  23
ATOM     23  C   UNL     1      -4.511  11.535  18.429  0.00  0.00    +0.000 A 
ATOM     24  N   UNL     1      -5.514  10.918  17.851  0.00  0.00    +0.000 NA
ATOM     25  N   UNL     1      -6.664  11.196  18.560  0.00  0.00    +0.000 NA
ATOM     26  C   UNL     1      -6.328  11.988  19.554  0.00  0.00    +0.000 A 
ATOM     27  N   UNL     1      -4.984  12.190  19.540  0.00  0.00    +0.000 N 
ATOM     28  C   UNL     1      -4.223  12.932  20.500  0.00  0.00    +0.000 C 
ENDBRANCH  22  23
ENDBRANCH  21  22
ENDBRANCH   1  21
TORSDOF 6
ENDMDL
MODEL 7
REMARK VINA RESULT:      -7.4      0.809      1.353
REMARK  Name = 
REMARK  9 active torsions:
REMARK  status: ('A' for Active; 'I' for Inactive)
REMARK    1  A    between atoms: C_1  and  C_2
REMARK    2  A    between atoms: C_2  and  C_3
REMARK    3  A    between atoms: C_2  and  C_10
REMARK    4  A    between atoms: C_3  and  C_4
REMARK    5  A    between atoms: N_8  and  C_9
REMARK    6  A    between atoms: C_14  and  N_15
REMARK    7  A    between atoms: C_20  and  C_21
REMARK    8  A    between atoms: C_22  and  C_23
REMARK    9  A    between atoms: C_23  and  O_24
REMARK                            x       y       z     vdW  Elec       q    Type
REMARK                         _______ _______ _______ _____ _____    ______ ____
ROOT
ATOM      1  C   UNL     1       0.003   9.868  19.314  0.00  0.00    +0.000 A 
ATOM      2  C   UNL     1      -0.123   9.623  20.686  0.00  0.00    +0.000 A 
ATOM      3  C   UNL     1       0.733   8.730  21.324  0.00  0.00    +0.000 A 
ATOM      4  C   UNL     1       1.749   8.086  20.612  0.00  0.00    +0.000 A 
ATOM      5  C   UNL     1       1.896   8.295  19.247  0.00  0.00    +0.000 A 
ATOM      6  C   UNL     1       1.012   9.171  18.608  0.00  0.00    +0.000 A 
ENDROOT
BRANCH   5   7
ATOM      7  N   UNL     1       2.897   7.670  18.476  0.00  0.00    +0.000 N 
ATOM      8  C   UNL     1       3.078   6.310  18.360  0.00  0.00    +0.000 C 
ATOM      9  O   UNL     1       2.376   5.451  18.884  0.00  0.00    +0.000 OA
ATOM     10  N   UNL     1       4.173   5.928  17.624  0.00  0.00    +0.000 N 
ATOM     11  C   UNL     1       5.138   6.771  16.945  0.00  0.00    +0.000 C 
ATOM     12  C   UNL     1       5.977   5.788  16.135  0.00  0.00    +0.000 C 
ATOM     13  C   UNL     1       5.308   5.505  14.784  0.00  0.00    +0.000 C 
ATOM     14  C   UNL     1       5.990   4.536  17.039  0.00  0.00    +0.000 C 
ATOM     15  C   UNL     1       4.579   4.528  17.624  0.00  0.00    +0.000 C 
ATOM     16  H   UNL     1       3.401   8.258  17.829  0.00  0.00    +0.000 HD
BRANCH  14  17
ATOM     17  C   UNL     1       7.023   4.624  18.170  0.00  0.00    +0.000 C 
BRANCH  17  18
ATOM     18  O   UNL     1       8.266   4.080  17.749  0.00  0.00    +0.000 OA
ATOM     19  H   UNL     1       8.923   4.795  17.771  0.00  0.00    +0.000 HD
ENDBRANCH  17  18
ENDBRANCH  14  17
ENDBRANCH   5   7
BRANCH   1  21
ATOM     20  C   UNL     1      -1.376  11.954  19.576  0.00  0.00    +0.000 C 
ATOM     21  C   UNL     1      -0.918  10.862  18.597  0.00  0.00    +0.000 C 
BRANCH  21  22
ATOM     22  C   UNL     1      -2.117  10.138  17.947  0.00  0.00    +0.000 C 
BRANCH  22  23
ATOM     23  C   UNL     1      -3.324  11.005  17.705  0.00  0.00    +0.000 A 
ATOM     24  N   UNL     1      -4.089  11.561  18.612  0.00  0.00    +0.000 NA
ATOM     25  N   UNL     1      -5.171  12.137  17.977  0.00  0.00    +0.000 NA
ATOM     26  C   UNL     1      -5.036  11.905  16.691  0.00  0.00    +0.000 A 
ATOM     27  N   UNL     1      -3.872  11.240  16.468  0.00  0.00    +0.000 N 
ATOM     28  C   UNL     1      -3.331  10.872  15.194  0.00  0.00    +0.000 C 
ENDBRANCH  22  23
ENDBRANCH  21  22
ENDBRANCH   1  21
TORSDOF 6
ENDMDL
MODEL 8
REMARK VINA RESULT:      -7.3      3.376      8.585
REMARK  Name = 
REMARK  9 active torsions:
REMARK  status: ('A' for Active; 'I' for Inactive)
REMARK    1  A    between atoms: C_1  and  C_2
REMARK    2  A    between atoms: C_2  and  C_3
REMARK    3  A    between atoms: C_2  and  C_10
REMARK    4  A    between atoms: C_3  and  C_4
REMARK    5  A    between atoms: N_8  and  C_9
REMARK    6  A    between atoms: C_14  and  N_15
REMARK    7  A    between atoms: C_20  and  C_21
REMARK    8  A    between atoms: C_22  and  C_23
REMARK    9  A    between atoms: C_23  and  O_24
REMARK                            x       y       z     vdW  Elec       q    Type
REMARK                         _______ _______ _______ _____ _____    ______ ____
ROOT
ATOM      1  C   UNL     1       2.755   6.012  18.814  0.00  0.00    +0.000 A 
ATOM      2  C   UNL     1       2.269   5.090  19.747  0.00  0.00    +0.000 A 
ATOM      3  C   UNL     1       1.527   5.520  20.843  0.00  0.00    +0.000 A 
ATOM      4  C   UNL     1       1.230   6.876  21.013  0.00  0.00    +0.000 A 
ATOM      5  C   UNL     1       1.707   7.821  20.114  0.00  0.00    +0.000 A 
ATOM      6  C   UNL     1       2.477   7.382  19.033  0.00  0.00    +0.000 A 
ENDROOT
BRANCH   5   7
ATOM      7  N   UNL     1       1.445   9.200  20.237  0.00  0.00    +0.000 N 
ATOM      8  C   UNL     1       0.786   9.971  19.306  0.00  0.00    +0.000 C 
ATOM      9  O   UNL     1       0.308   9.562  18.253  0.00  0.00    +0.000 OA
ATOM     10  N   UNL     1       0.721  11.312  19.599  0.00  0.00    +0.000 N 
ATOM     11  C   UNL     1       1.236  12.002  20.764  0.00  0.00    +0.000 C 
ATOM     12  C   UNL     1       0.678  13.416  20.630  0.00  0.00    +0.000 C 
ATOM     13  C   UNL     1      -0.729  13.490  21.236  0.00  0.00    +0.000 C 
ATOM     14  C   UNL     1       0.652  13.620  19.100  0.00  0.00    +0.000 C 
ATOM     15  C   UNL     1       0.245  12.241  18.582  0.00  0.00    +0.000 C 
ATOM     16  H   UNL     1       1.595   9.608  21.148  0.00  0.00    +0.000 HD
BRANCH  14  17
ATOM     17  C   UNL     1       2.020  14.010  18.524  0.00  0.00    +0.000 C 
BRANCH  17  18
ATOM     18  O   UNL     1       2.339  13.190  17.408  0.00  0.00    +0.000 OA
ATOM     19  H   UNL     1       1.816  13.505  16.653  0.00  0.00    +0.000 HD
ENDBRANCH  17  18
ENDBRANCH  14  17
ENDBRANCH   5   7
BRANCH   1  21
ATOM     20  C   UNL     1       3.695   4.025  17.592  0.00  0.00    +0.000 C 
ATOM     21  C   UNL     1       3.559   5.556  17.590  0.00  0.00    +0.000 C 
BRANCH  21  22
ATOM     22  C   UNL     1       4.936   6.252  17.540  0.00  0.00    +0.000 C 
BRANCH  22  23
ATOM     23  C   UNL     1       5.811   5.840  16.387  0.00  0.00    +0.000 A 
ATOM     24  N   UNL     1       5.588   6.053  15.113  0.00  0.00    +0.000 NA
ATOM     25  N   UNL     1       6.547   5.380  14.383  0.00  0.00    +0.000 NA
ATOM     26  C   UNL     1       7.328   4.764  15.242  0.00  0.00    +0.000 A 
ATOM     27  N   UNL     1       6.935   5.059  16.508  0.00  0.00    +0.000 N 
ATOM     28  C   UNL     1       7.576   4.643  17.720  0.00  0.00    +0.000 C 
ENDBRANCH  22  23
ENDBRANCH  21  22
ENDBRANCH   1  21
TORSDOF 6
ENDMDL
MODEL 9
REMARK VINA RESULT:      -7.3      4.928      7.750
REMARK  Name = 
REMARK  9 active torsions:
REMARK  status: ('A' for Active; 'I' for Inactive)
REMARK    1  A    between atoms: C_1  and  C_2
REMARK    2  A    between atoms: C_2  and  C_3
REMARK    3  A    between atoms: C_2  and  C_10
REMARK    4  A    between atoms: C_3  and  C_4
REMARK    5  A    between atoms: N_8  and  C_9
REMARK    6  A    between atoms: C_14  and  N_15
REMARK    7  A    between atoms: C_20  and  C_21
REMARK    8  A    between atoms: C_22  and  C_23
REMARK    9  A    between atoms: C_23  and  O_24
REMARK                            x       y       z     vdW  Elec       q    Type
REMARK                         _______ _______ _______ _____ _____    ______ ____
ROOT
ATOM      1  C   UNL     1       4.456   6.038  17.347  0.00  0.00    +0.000 A 
ATOM      2  C   UNL     1       5.032   4.945  16.689  0.00  0.00    +0.000 A 
ATOM      3  C   UNL     1       6.354   4.998  16.257  0.00  0.00    +0.000 A 
ATOM      4  C   UNL     1       7.136   6.131  16.499  0.00  0.00    +0.000 A 
ATOM      5  C   UNL     1       6.595   7.239  17.138  0.00  0.00    +0.000 A 
ATOM      6  C   UNL     1       5.257   7.188  17.541  0.00  0.00    +0.000 A 
ENDROOT
BRANCH   5   7
ATOM      7  N   UNL     1       7.333   8.410  17.404  0.00  0.00    +0.000 N 
ATOM      8  C   UNL     1       8.306   8.535  18.370  0.00  0.00    +0.000 C 
ATOM      9  O   UNL     1       8.689   7.638  19.115  0.00  0.00    +0.000 OA
ATOM     10  N   UNL     1       8.833   9.796  18.509  0.00  0.00    +0.000 N 
ATOM     11  C   UNL     1       8.509  10.992  17.757  0.00  0.00    +0.000 C 
ATOM     12  C   UNL     1       9.557  12.004  18.210  0.00  0.00    +0.000 C 
ATOM     13  C   UNL     1      10.836  11.853  17.377  0.00  0.00    +0.000 C 
ATOM     14  C   UNL     1       9.786  11.610  19.684  0.00  0.00    +0.000 C 
ATOM     15  C   UNL     1       9.702  10.084  19.643  0.00  0.00    +0.000 C 
ATOM     16  H   UNL     1       7.266   9.150  16.722  0.00  0.00    +0.000 HD
BRANCH  14  17
ATOM     17  C   UNL     1       8.712  12.165  20.628  0.00  0.00    +0.000 C 
BRANCH  17  18
ATOM     18  O   UNL     1       8.500  13.548  20.379  0.00  0.00    +0.000 OA
ATOM     19  H   UNL     1       7.541  13.697  20.347  0.00  0.00    +0.000 HD
ENDBRANCH  17  18
ENDBRANCH  14  17
ENDBRANCH   5   7
BRANCH   1  21
ATOM     20  C   UNL     1       2.470   7.418  18.033  0.00  0.00    +0.000 C 
ATOM     21  C   UNL     1       3.007   5.991  17.846  0.00  0.00    +0.000 C 
BRANCH  21  22
ATOM     22  C   UNL     1       2.895   5.164  19.145  0.00  0.00    +0.000 C 
BRANCH  22  23
ATOM     23  C   UNL     1       2.090   3.898  19.021  0.00  0.00    +0.000 A 
ATOM     24  N   UNL     1       1.409   3.497  17.976  0.00  0.00    +0.000 NA
ATOM     25  N   UNL     1       0.690   2.373  18.328  0.00  0.00    +0.000 NA
ATOM     26  C   UNL     1       0.949   2.126  19.593  0.00  0.00    +0.000 A 
ATOM     27  N   UNL     1       1.855   3.026  20.056  0.00  0.00    +0.000 N 
ATOM     28  C   UNL     1       2.448   3.046  21.360  0.00  0.00    +0.000 C 
ENDBRANCH  22  23
ENDBRANCH  21  22
ENDBRANCH   1  21
TORSDOF 6
ENDMDL
