MODEL 1
REMARK VINA RESULT:      -8.9      0.000      0.000
REMARK  Name = 
REMARK  6 active torsions:
REMARK  status: ('A' for Active; 'I' for Inactive)
REMARK    1  A    between atoms: C_1  and  N_2
REMARK    2  A    between atoms: C_6  and  C_7
REMARK    3  A    between atoms: C_9  and  C_10
REMARK    4  A    between atoms: C_14  and  N_15
REMARK    5  A    between atoms: C_20  and  C_21
REMARK    6  A    between atoms: C_24  and  C_25
REMARK                            x       y       z     vdW  Elec       q    Type
REMARK                         _______ _______ _______ _____ _____    ______ ____
ROOT
ATOM      1  N   UNL     1       2.622   7.399  19.138  0.00  0.00    +0.000 N 
ATOM      2  C   UNL     1       2.980   6.077  19.606  0.00  0.00    +0.000 C 
ATOM      3  C   UNL     1       3.471   5.446  18.355  0.00  0.00    +0.000 A 
ATOM      4  C   UNL     1       3.960   6.447  17.525  0.00  0.00    +0.000 A 
ATOM      5  C   UNL     1       4.735   6.167  16.416  0.00  0.00    +0.000 A 
ATOM      6  C   UNL     1       4.929   4.817  16.099  0.00  0.00    +0.000 A 
ATOM      7  C   UNL     1       4.197   3.822  16.788  0.00  0.00    +0.000 A 
ATOM      8  C   UNL     1       3.389   4.147  17.894  0.00  0.00    +0.000 A 
ATOM      9  C   UNL     1       3.271   7.698  17.940  0.00  0.00    +0.000 C 
ATOM     10  O   UNL     1       3.245   8.704  17.259  0.00  0.00    +0.000 OA
ENDROOT
BRANCH   1  15
ATOM     11  C   UNL     1       0.174  10.134  19.772  0.00  0.00    +0.000 A 
ATOM     12  C   UNL     1      -0.242   9.782  21.066  0.00  0.00    +0.000 A 
ATOM     13  C   UNL     1       0.252   8.640  21.720  0.00  0.00    +0.000 A 
ATOM     14  C   UNL     1       1.169   7.794  21.090  0.00  0.00    +0.000 A 
ATOM     15  C   UNL     1       1.621   8.120  19.821  0.00  0.00    +0.000 A 
ATOM     16  C   UNL     1       1.123   9.283  19.208  0.00  0.00    +0.000 A 
BRANCH  11  19
ATOM     17  C   UNL     1       0.146  12.792  19.139  0.00  0.00    +0.000 C 
ATOM     18  C   UNL     1      -1.163  12.402  19.799  0.00  0.00    +0.000 C 
ATOM     19  C   UNL     1      -0.379  11.362  19.064  0.00  0.00    +0.000 C 
BRANCH  17  25
ATOM     20  C   UNL     1       3.096  13.706  18.405  0.00  0.00    +0.000 C 
ATOM     21  N   UNL     1       2.477  13.778  19.703  0.00  0.00    +0.000 N 
ATOM     22  C   UNL     1       3.092  14.186  20.855  0.00  0.00    +0.000 A 
ATOM     23  N   UNL     1       2.270  14.024  21.862  0.00  0.00    +0.000 NA
ATOM     24  N   UNL     1       1.095  13.509  21.363  0.00  0.00    +0.000 NA
ATOM     25  C   UNL     1       1.225  13.336  20.070  0.00  0.00    +0.000 A 
ENDBRANCH  17  25
ENDBRANCH  11  19
ENDBRANCH   1  15
BRANCH   8  26
ATOM     26  C   UNL     1       2.305   3.203  18.364  0.00  0.00    +0.000 C 
ATOM     27  F   UNL     1       2.229   2.042  17.656  0.00  0.00    +0.000 F 
ATOM     28  F   UNL     1       2.533   2.807  19.650  0.00  0.00    +0.000 F 
ATOM     29  F   UNL     1       1.065   3.744  18.346  0.00  0.00    +0.000 F 
ENDBRANCH   8  26
BRANCH   6  30
ATOM     30  C   UNL     1       5.801   4.434  15.023  0.00  0.00    +0.000 C 
ATOM     31  N   UNL     1       6.517   4.101  14.171  0.00  0.00    +0.000 NA
ENDBRANCH   6  30
TORSDOF 5
ENDMDL
MODEL 2
REMARK VINA RESULT:      -8.8      3.431      8.192
REMARK  Name = 
REMARK  6 active torsions:
REMARK  status: ('A' for Active; 'I' for Inactive)
REMARK    1  A    between atoms: C_1  and  N_2
REMARK    2  A    between atoms: C_6  and  C_7
REMARK    3  A    between atoms: C_9  and  C_10
REMARK    4  A    between atoms: C_14  and  N_15
REMARK    5  A    between atoms: C_20  and  C_21
REMARK    6  A    between atoms: C_24  and  C_25
REMARK                            x       y       z     vdW  Elec       q    Type
REMARK                         _______ _______ _______ _____ _____    ______ ____
ROOT
ATOM      1  N   UNL     1       1.392   8.614  20.051  0.00  0.00    +0.000 N 
ATOM      2  C   UNL     1       1.090   9.408  18.881  0.00  0.00    +0.000 C 
ATOM      3  C   UNL     1       0.039  10.316  19.405  0.00  0.00    +0.000 A 
ATOM      4  C   UNL     1       0.240  10.472  20.771  0.00  0.00    +0.000 A 
ATOM      5  C   UNL     1      -0.391  11.465  21.497  0.00  0.00    +0.000 A 
ATOM      6  C   UNL     1      -1.327  12.253  20.816  0.00  0.00    +0.000 A 
ATOM      7  C   UNL     1      -1.722  11.900  19.505  0.00  0.00    +0.000 A 
ATOM      8  C   UNL     1      -1.080  10.861  18.806  0.00  0.00    +0.000 A 
ATOM      9  C   UNL     1       0.988   9.266  21.216  0.00  0.00    +0.000 C 
ATOM     10  O   UNL     1       1.089   8.936  22.381  0.00  0.00    +0.000 OA
ENDROOT
BRANCH   1  15
ATOM     11  C   UNL     1       3.143   5.786  18.374  0.00  0.00    +0.000 A 
ATOM     12  C   UNL     1       2.836   4.752  19.274  0.00  0.00    +0.000 A 
ATOM     13  C   UNL     1       2.085   4.982  20.440  0.00  0.00    +0.000 A 
ATOM     14  C   UNL     1       1.630   6.264  20.758  0.00  0.00    +0.000 A 
ATOM     15  C   UNL     1       1.892   7.306  19.883  0.00  0.00    +0.000 A 
ATOM     16  C   UNL     1       2.626   7.035  18.716  0.00  0.00    +0.000 A 
BRANCH  11  19
ATOM     17  C   UNL     1       5.482   5.337  17.034  0.00  0.00    +0.000 C 
ATOM     18  C   UNL     1       4.824   6.603  16.520  0.00  0.00    +0.000 C 
ATOM     19  C   UNL     1       3.972   5.533  17.124  0.00  0.00    +0.000 C 
BRANCH  17  25
ATOM     20  C   UNL     1       7.695   7.596  17.302  0.00  0.00    +0.000 C 
ATOM     21  N   UNL     1       7.417   6.556  18.257  0.00  0.00    +0.000 N 
ATOM     22  C   UNL     1       8.118   6.327  19.409  0.00  0.00    +0.000 A 
ATOM     23  N   UNL     1       7.662   5.240  19.981  0.00  0.00    +0.000 NA
ATOM     24  N   UNL     1       6.641   4.752  19.197  0.00  0.00    +0.000 NA
ATOM     25  C   UNL     1       6.509   5.526  18.147  0.00  0.00    +0.000 A 
ENDBRANCH  17  25
ENDBRANCH  11  19
ENDBRANCH   1  15
BRANCH   8  26
ATOM     26  C   UNL     1      -1.740  10.209  17.612  0.00  0.00    +0.000 C 
ATOM     27  F   UNL     1      -0.969   9.280  16.985  0.00  0.00    +0.000 F 
ATOM     28  F   UNL     1      -2.859   9.526  17.993  0.00  0.00    +0.000 F 
ATOM     29  F   UNL     1      -2.135  11.086  16.660  0.00  0.00    +0.000 F 
ENDBRANCH   8  26
BRANCH   6  30
ATOM     30  C   UNL     1      -1.956  13.369  21.467  0.00  0.00    +0.000 C 
ATOM     31  N   UNL     1      -2.489  14.270  21.972  0.00  0.00    +0.000 NA
ENDBRANCH   6  30
TORSDOF 5
ENDMDL
MODEL 3
REMARK VINA RESULT:      -8.8      3.342      8.049
REMARK  Name = 
REMARK  6 active torsions:
REMARK  status: ('A' for Active; 'I' for Inactive)
REMARK    1  A    between atoms: C_1  and  N_2
REMARK    2  A    between atoms: C_6  and  C_7
REMARK    3  A    between atoms: C_9  and  C_10
REMARK    4  A    between atoms: C_14  and  N_15
REMARK    5  A    between atoms: C_20  and  C_21
REMARK    6  A    between atoms: C_24  and  C_25
REMARK                            x       y       z     vdW  Elec       q    Type
REMARK                         _______ _______ _______ _____ _____    ______ ____
ROOT
ATOM      1  N   UNL     1       2.547   5.664  19.436  0.00  0.00    +0.000 N 
ATOM      2  C   UNL     1       3.054   6.981  19.118  0.00  0.00    +0.000 C 
ATOM      3  C   UNL     1       2.029   7.851  19.746  0.00  0.00    +0.000 A 
ATOM      4  C   UNL     1       1.465   7.160  20.811  0.00  0.00    +0.000 A 
ATOM      5  C   UNL     1       0.686   7.789  21.764  0.00  0.00    +0.000 A 
ATOM      6  C   UNL     1       0.401   9.144  21.559  0.00  0.00    +0.000 A 
ATOM      7  C   UNL     1       0.748   9.757  20.333  0.00  0.00    +0.000 A 
ATOM      8  C   UNL     1       1.514   9.076  19.369  0.00  0.00    +0.000 A 
ATOM      9  C   UNL     1       1.665   5.716  20.516  0.00  0.00    +0.000 C 
ATOM     10  O   UNL     1       1.061   4.828  21.085  0.00  0.00    +0.000 OA
ENDROOT
BRANCH   1  15
ATOM     11  C   UNL     1       4.274   3.833  16.690  0.00  0.00    +0.000 A 
ATOM     12  C   UNL     1       3.548   2.631  16.716  0.00  0.00    +0.000 A 
ATOM     13  C   UNL     1       2.516   2.407  17.644  0.00  0.00    +0.000 A 
ATOM     14  C   UNL     1       2.188   3.374  18.598  0.00  0.00    +0.000 A 
ATOM     15  C   UNL     1       2.867   4.582  18.591  0.00  0.00    +0.000 A 
ATOM     16  C   UNL     1       3.876   4.780  17.633  0.00  0.00    +0.000 A 
BRANCH  11  19
ATOM     17  C   UNL     1       6.822   4.528  15.990  0.00  0.00    +0.000 C 
ATOM     18  C   UNL     1       5.826   5.439  15.296  0.00  0.00    +0.000 C 
ATOM     19  C   UNL     1       5.401   4.061  15.694  0.00  0.00    +0.000 C 
BRANCH  17  25
ATOM     20  C   UNL     1       6.798   7.494  17.122  0.00  0.00    +0.000 C 
ATOM     21  N   UNL     1       7.291   6.324  17.802  0.00  0.00    +0.000 N 
ATOM     22  C   UNL     1       7.902   6.314  19.025  0.00  0.00    +0.000 A 
ATOM     23  N   UNL     1       8.317   5.101  19.289  0.00  0.00    +0.000 NA
ATOM     24  N   UNL     1       7.967   4.299  18.227  0.00  0.00    +0.000 NA
ATOM     25  C   UNL     1       7.373   5.036  17.320  0.00  0.00    +0.000 A 
ENDBRANCH  17  25
ENDBRANCH  11  19
ENDBRANCH   1  15
BRANCH   8  26
ATOM     26  C   UNL     1       1.535   9.538  17.930  0.00  0.00    +0.000 C 
ATOM     27  F   UNL     1       2.119   8.660  17.069  0.00  0.00    +0.000 F 
ATOM     28  F   UNL     1       0.266   9.694  17.454  0.00  0.00    +0.000 F 
ATOM     29  F   UNL     1       2.159  10.726  17.747  0.00  0.00    +0.000 F 
ENDBRANCH   8  26
BRANCH   6  30
ATOM     30  C   UNL     1      -0.318   9.900  22.548  0.00  0.00    +0.000 C 
ATOM     31  N   UNL     1      -0.913  10.528  23.324  0.00  0.00    +0.000 NA
ENDBRANCH   6  30
TORSDOF 5
ENDMDL
MODEL 4
REMARK VINA RESULT:      -8.6      2.229      3.230
REMARK  Name = 
REMARK  6 active torsions:
REMARK  status: ('A' for Active; 'I' for Inactive)
REMARK    1  A    between atoms: C_1  and  N_2
REMARK    2  A    between atoms: C_6  and  C_7
REMARK    3  A    between atoms: C_9  and  C_10
REMARK    4  A    between atoms: C_14  and  N_15
REMARK    5  A    between atoms: C_20  and  C_21
REMARK    6  A    between atoms: C_24  and  C_25
REMARK                            x       y       z     vdW  Elec       q    Type
REMARK                         _______ _______ _______ _____ _____    ______ ____
ROOT
ATOM      1  N   UNL     1       2.377   7.498  19.388  0.00  0.00    +0.000 N 
ATOM      2  C   UNL     1       2.787   6.201  19.880  0.00  0.00    +0.000 C 
ATOM      3  C   UNL     1       3.252   5.546  18.632  0.00  0.00    +0.000 A 
ATOM      4  C   UNL     1       3.684   6.535  17.756  0.00  0.00    +0.000 A 
ATOM      5  C   UNL     1       4.428   6.242  16.629  0.00  0.00    +0.000 A 
ATOM      6  C   UNL     1       4.648   4.889  16.345  0.00  0.00    +0.000 A 
ATOM      7  C   UNL     1       3.967   3.896  17.087  0.00  0.00    +0.000 A 
ATOM      8  C   UNL     1       3.189   4.232  18.211  0.00  0.00    +0.000 A 
ATOM      9  C   UNL     1       2.976   7.779  18.160  0.00  0.00    +0.000 C 
ATOM     10  O   UNL     1       2.899   8.763  17.451  0.00  0.00    +0.000 OA
ENDROOT
BRANCH   1  15
ATOM     11  C   UNL     1       0.245  10.405  20.326  0.00  0.00    +0.000 A 
ATOM     12  C   UNL     1      -0.426   9.857  21.431  0.00  0.00    +0.000 A 
ATOM     13  C   UNL     1      -0.206   8.535  21.853  0.00  0.00    +0.000 A 
ATOM     14  C   UNL     1       0.683   7.702  21.167  0.00  0.00    +0.000 A 
ATOM     15  C   UNL     1       1.381   8.214  20.085  0.00  0.00    +0.000 A 
ATOM     16  C   UNL     1       1.153   9.548  19.707  0.00  0.00    +0.000 A 
BRANCH  11  19
ATOM     17  C   UNL     1      -1.151  12.332  18.983  0.00  0.00    +0.000 C 
ATOM     18  C   UNL     1       0.272  12.265  18.463  0.00  0.00    +0.000 C 
ATOM     19  C   UNL     1      -0.013  11.831  19.866  0.00  0.00    +0.000 C 
BRANCH  17  25
ATOM     20  C   UNL     1      -4.300  12.253  19.375  0.00  0.00    +0.000 C 
ATOM     21  N   UNL     1      -3.544  11.528  18.388  0.00  0.00    +0.000 N 
ATOM     22  C   UNL     1      -4.058  10.624  17.500  0.00  0.00    +0.000 A 
ATOM     23  N   UNL     1      -3.077  10.077  16.825  0.00  0.00    +0.000 NA
ATOM     24  N   UNL     1      -1.901  10.638  17.271  0.00  0.00    +0.000 NA
ATOM     25  C   UNL     1      -2.177  11.491  18.227  0.00  0.00    +0.000 A 
ENDBRANCH  17  25
ENDBRANCH  11  19
ENDBRANCH   1  15
BRANCH   8  26
ATOM     26  C   UNL     1       2.148   3.275  18.746  0.00  0.00    +0.000 C 
ATOM     27  F   UNL     1       0.898   3.804  18.841  0.00  0.00    +0.000 F 
ATOM     28  F   UNL     1       2.006   2.202  17.914  0.00  0.00    +0.000 F 
ATOM     29  F   UNL     1       2.445   2.772  19.967  0.00  0.00    +0.000 F 
ENDBRANCH   8  26
BRANCH   6  30
ATOM     30  C   UNL     1       5.492   4.497  15.250  0.00  0.00    +0.000 C 
ATOM     31  N   UNL     1       6.174   4.150  14.376  0.00  0.00    +0.000 NA
ENDBRANCH   6  30
TORSDOF 5
ENDMDL
MODEL 5
REMARK VINA RESULT:      -8.6      2.484      3.524
REMARK  Name = 
REMARK  6 active torsions:
REMARK  status: ('A' for Active; 'I' for Inactive)
REMARK    1  A    between atoms: C_1  and  N_2
REMARK    2  A    between atoms: C_6  and  C_7
REMARK    3  A    between atoms: C_9  and  C_10
REMARK    4  A    between atoms: C_14  and  N_15
REMARK    5  A    between atoms: C_20  and  C_21
REMARK    6  A    between atoms: C_24  and  C_25
REMARK                            x       y       z     vdW  Elec       q    Type
REMARK                         _______ _______ _______ _____ _____    ______ ____
ROOT
ATOM      1  N   UNL     1       1.772   7.990  20.216  0.00  0.00    +0.000 N 
ATOM      2  C   UNL     1       2.178   6.773  20.885  0.00  0.00    +0.000 C 
ATOM      3  C   UNL     1       2.555   5.916  19.733  0.00  0.00    +0.000 A 
ATOM      4  C   UNL     1       2.961   6.741  18.691  0.00  0.00    +0.000 A 
ATOM      5  C   UNL     1       3.633   6.252  17.587  0.00  0.00    +0.000 A 
ATOM      6  C   UNL     1       3.803   4.864  17.509  0.00  0.00    +0.000 A 
ATOM      7  C   UNL     1       3.141   4.022  18.433  0.00  0.00    +0.000 A 
ATOM      8  C   UNL     1       2.437   4.555  19.529  0.00  0.00    +0.000 A 
ATOM      9  C   UNL     1       2.308   8.055  18.929  0.00  0.00    +0.000 C 
ATOM     10  O   UNL     1       2.215   8.919  18.080  0.00  0.00    +0.000 OA
ENDROOT
BRANCH   1  15
ATOM     11  C   UNL     1      -0.286  11.048  20.751  0.00  0.00    +0.000 A 
ATOM     12  C   UNL     1      -0.861  10.731  21.992  0.00  0.00    +0.000 A 
ATOM     13  C   UNL     1      -0.601   9.511  22.641  0.00  0.00    +0.000 A 
ATOM     14  C   UNL     1       0.231   8.552  22.056  0.00  0.00    +0.000 A 
ATOM     15  C   UNL     1       0.835   8.838  20.842  0.00  0.00    +0.000 A 
ATOM     16  C   UNL     1       0.571  10.077  20.235  0.00  0.00    +0.000 A 
BRANCH  11  19
ATOM     17  C   UNL     1      -1.575  12.605  18.912  0.00  0.00    +0.000 C 
ATOM     18  C   UNL     1      -0.078  12.648  18.670  0.00  0.00    +0.000 C 
ATOM     19  C   UNL     1      -0.586  12.363  20.048  0.00  0.00    +0.000 C 
BRANCH  17  25
ATOM     20  C   UNL     1      -4.703  12.065  18.892  0.00  0.00    +0.000 C 
ATOM     21  N   UNL     1      -3.715  11.391  18.091  0.00  0.00    +0.000 N 
ATOM     22  C   UNL     1      -3.959  10.349  17.240  0.00  0.00    +0.000 A 
ATOM     23  N   UNL     1      -2.822   9.911  16.758  0.00  0.00    +0.000 NA
ATOM     24  N   UNL     1      -1.817  10.683  17.296  0.00  0.00    +0.000 NA
ATOM     25  C   UNL     1      -2.348  11.556  18.117  0.00  0.00    +0.000 A 
ENDBRANCH  17  25
ENDBRANCH  11  19
ENDBRANCH   1  15
BRANCH   8  26
ATOM     26  C   UNL     1       1.405   3.727  20.261  0.00  0.00    +0.000 C 
ATOM     27  F   UNL     1       1.201   2.491  19.730  0.00  0.00    +0.000 F 
ATOM     28  F   UNL     1       1.800   3.490  21.546  0.00  0.00    +0.000 F 
ATOM     29  F   UNL     1       0.189   4.316  20.339  0.00  0.00    +0.000 F 
ENDBRANCH   8  26
BRANCH   6  30
ATOM     30  C   UNL     1       4.575   4.279  16.447  0.00  0.00    +0.000 C 
ATOM     31  N   UNL     1       5.211   3.833  15.583  0.00  0.00    +0.000 NA
ENDBRANCH   6  30
TORSDOF 5
ENDMDL
MODEL 6
REMARK VINA RESULT:      -8.5      0.876      1.324
REMARK  Name = 
REMARK  6 active torsions:
REMARK  status: ('A' for Active; 'I' for Inactive)
REMARK    1  A    between atoms: C_1  and  N_2
REMARK    2  A    between atoms: C_6  and  C_7
REMARK    3  A    between atoms: C_9  and  C_10
REMARK    4  A    between atoms: C_14  and  N_15
REMARK    5  A    between atoms: C_20  and  C_21
REMARK    6  A    between atoms: C_24  and  C_25
REMARK                            x       y       z     vdW  Elec       q    Type
REMARK                         _______ _______ _______ _____ _____    ______ ____
ROOT
ATOM      1  N   UNL     1       2.483   7.521  19.182  0.00  0.00    +0.000 N 
ATOM      2  C   UNL     1       2.835   6.211  19.685  0.00  0.00    +0.000 C 
ATOM      3  C   UNL     1       3.345   5.551  18.457  0.00  0.00    +0.000 A 
ATOM      4  C   UNL     1       3.846   6.533  17.612  0.00  0.00    +0.000 A 
ATOM      5  C   UNL     1       4.639   6.228  16.521  0.00  0.00    +0.000 A 
ATOM      6  C   UNL     1       4.837   4.871  16.238  0.00  0.00    +0.000 A 
ATOM      7  C   UNL     1       4.094   3.892  16.938  0.00  0.00    +0.000 A 
ATOM      8  C   UNL     1       3.270   4.242  18.024  0.00  0.00    +0.000 A 
ATOM      9  C   UNL     1       3.151   7.793  17.988  0.00  0.00    +0.000 C 
ATOM     10  O   UNL     1       3.136   8.783  17.284  0.00  0.00    +0.000 OA
ENDROOT
BRANCH   1  15
ATOM     11  C   UNL     1      -0.201  10.072  19.587  0.00  0.00    +0.000 A 
ATOM     12  C   UNL     1      -0.450   9.935  20.962  0.00  0.00    +0.000 A 
ATOM     13  C   UNL     1       0.234   8.993  21.750  0.00  0.00    +0.000 A 
ATOM     14  C   UNL     1       1.182   8.137  21.183  0.00  0.00    +0.000 A 
ATOM     15  C   UNL     1       1.473   8.258  19.833  0.00  0.00    +0.000 A 
ATOM     16  C   UNL     1       0.786   9.226  19.082  0.00  0.00    +0.000 A 
BRANCH  11  19
ATOM     17  C   UNL     1      -0.498  12.471  18.315  0.00  0.00    +0.000 C 
ATOM     18  C   UNL     1      -1.599  12.289  19.342  0.00  0.00    +0.000 C 
ATOM     19  C   UNL     1      -0.958  11.080  18.737  0.00  0.00    +0.000 C 
BRANCH  17  25
ATOM     20  C   UNL     1      -0.223  15.551  19.034  0.00  0.00    +0.000 C 
ATOM     21  N   UNL     1       0.806  14.551  19.152  0.00  0.00    +0.000 N 
ATOM     22  C   UNL     1       2.101  14.784  19.527  0.00  0.00    +0.000 A 
ATOM     23  N   UNL     1       2.786  13.672  19.423  0.00  0.00    +0.000 NA
ATOM     24  N   UNL     1       1.925  12.692  18.982  0.00  0.00    +0.000 NA
ATOM     25  C   UNL     1       0.742  13.223  18.794  0.00  0.00    +0.000 A 
ENDBRANCH  17  25
ENDBRANCH  11  19
ENDBRANCH   1  15
BRANCH   8  26
ATOM     26  C   UNL     1       2.179   3.308  18.499  0.00  0.00    +0.000 C 
ATOM     27  F   UNL     1       0.925   3.834  18.432  0.00  0.00    +0.000 F 
ATOM     28  F   UNL     1       2.126   2.191  17.717  0.00  0.00    +0.000 F 
ATOM     29  F   UNL     1       2.346   2.876  19.770  0.00  0.00    +0.000 F 
ENDBRANCH   8  26
BRANCH   6  30
ATOM     30  C   UNL     1       5.725   4.464  15.185  0.00  0.00    +0.000 C 
ATOM     31  N   UNL     1       6.429   4.106  14.332  0.00  0.00    +0.000 NA
ENDBRANCH   6  30
TORSDOF 5
ENDMDL
MODEL 7
REMARK VINA RESULT:      -8.5      0.705      1.185
REMARK  Name = 
REMARK  6 active torsions:
REMARK  status: ('A' for Active; 'I' for Inactive)
REMARK    1  A    between atoms: C_1  and  N_2
REMARK    2  A    between atoms: C_6  and  C_7
REMARK    3  A    between atoms: C_9  and  C_10
REMARK    4  A    between atoms: C_14  and  N_15
REMARK    5  A    between atoms: C_20  and  C_21
REMARK    6  A    between atoms: C_24  and  C_25
REMARK                            x       y       z     vdW  Elec       q    Type
REMARK                         _______ _______ _______ _____ _____    ______ ____
ROOT
ATOM      1  N   UNL     1       2.612   7.375  19.109  0.00  0.00    +0.000 N 
ATOM      2  C   UNL     1       2.942   6.055  19.601  0.00  0.00    +0.000 C 
ATOM      3  C   UNL     1       3.437   5.396  18.366  0.00  0.00    +0.000 A 
ATOM      4  C   UNL     1       3.953   6.375  17.527  0.00  0.00    +0.000 A 
ATOM      5  C   UNL     1       4.737   6.064  16.432  0.00  0.00    +0.000 A 
ATOM      6  C   UNL     1       4.911   4.705  16.139  0.00  0.00    +0.000 A 
ATOM      7  C   UNL     1       4.152   3.735  16.834  0.00  0.00    +0.000 A 
ATOM      8  C   UNL     1       3.338   4.091  17.925  0.00  0.00    +0.000 A 
ATOM      9  C   UNL     1       3.281   7.644  17.914  0.00  0.00    +0.000 C 
ATOM     10  O   UNL     1       3.282   8.639  17.217  0.00  0.00    +0.000 OA
ENDROOT
BRANCH   1  15
ATOM     11  C   UNL     1       0.130  10.105  19.620  0.00  0.00    +0.000 A 
ATOM     12  C   UNL     1      -0.245   9.836  20.946  0.00  0.00    +0.000 A 
ATOM     13  C   UNL     1       0.288   8.750  21.663  0.00  0.00    +0.000 A 
ATOM     14  C   UNL     1       1.204   7.879  21.068  0.00  0.00    +0.000 A 
ATOM     15  C   UNL     1       1.617   8.124  19.768  0.00  0.00    +0.000 A 
ATOM     16  C   UNL     1       1.080   9.233  19.090  0.00  0.00    +0.000 A 
BRANCH  11  19
ATOM     17  C   UNL     1      -0.101  12.747  18.964  0.00  0.00    +0.000 C 
ATOM     18  C   UNL     1      -1.428  12.223  19.481  0.00  0.00    +0.000 C 
ATOM     19  C   UNL     1      -0.465  11.270  18.846  0.00  0.00    +0.000 C 
BRANCH  17  25
ATOM     20  C   UNL     1      -0.299  15.665  20.197  0.00  0.00    +0.000 C 
ATOM     21  N   UNL     1       0.654  14.649  20.557  0.00  0.00    +0.000 N 
ATOM     22  C   UNL     1       1.684  14.804  21.444  0.00  0.00    +0.000 A 
ATOM     23  N   UNL     1       2.414  13.716  21.450  0.00  0.00    +0.000 NA
ATOM     24  N   UNL     1       1.851  12.830  20.560  0.00  0.00    +0.000 NA
ATOM     25  C   UNL     1       0.808  13.397  20.003  0.00  0.00    +0.000 A 
ENDBRANCH  17  25
ENDBRANCH  11  19
ENDBRANCH   1  15
BRANCH   8  26
ATOM     26  C   UNL     1       2.231   3.173  18.395  0.00  0.00    +0.000 C 
ATOM     27  F   UNL     1       2.302   2.842  19.713  0.00  0.00    +0.000 F 
ATOM     28  F   UNL     1       1.014   3.774  18.256  0.00  0.00    +0.000 F 
ATOM     29  F   UNL     1       2.161   2.008  17.711  0.00  0.00    +0.000 F 
ENDBRANCH   8  26
BRANCH   6  30
ATOM     30  C   UNL     1       5.788   4.291  15.080  0.00  0.00    +0.000 C 
ATOM     31  N   UNL     1       6.518   3.943  14.245  0.00  0.00    +0.000 NA
ENDBRANCH   6  30
TORSDOF 5
ENDMDL
MODEL 8
REMARK VINA RESULT:      -8.4      3.627      8.953
REMARK  Name = 
REMARK  6 active torsions:
REMARK  status: ('A' for Active; 'I' for Inactive)
REMARK    1  A    between atoms: C_1  and  N_2
REMARK    2  A    between atoms: C_6  and  C_7
REMARK    3  A    between atoms: C_9  and  C_10
REMARK    4  A    between atoms: C_14  and  N_15
REMARK    5  A    between atoms: C_20  and  C_21
REMARK    6  A    between atoms: C_24  and  C_25
REMARK                            x       y       z     vdW  Elec       q    Type
REMARK                         _______ _______ _______ _____ _____    ______ ____
ROOT
ATOM      1  N   UNL     1       0.861   9.566  19.946  0.00  0.00    +0.000 N 
ATOM      2  C   UNL     1       0.359  10.065  18.684  0.00  0.00    +0.000 C 
ATOM      3  C   UNL     1      -0.673  11.030  19.138  0.00  0.00    +0.000 A 
ATOM      4  C   UNL     1      -0.308  11.498  20.394  0.00  0.00    +0.000 A 
ATOM      5  C   UNL     1      -0.904  12.606  20.966  0.00  0.00    +0.000 A 
ATOM      6  C   UNL     1      -1.970  13.187  20.268  0.00  0.00    +0.000 A 
ATOM      7  C   UNL     1      -2.506  12.533  19.134  0.00  0.00    +0.000 A 
ATOM      8  C   UNL     1      -1.892  11.386  18.597  0.00  0.00    +0.000 A 
ATOM      9  C   UNL     1       0.568  10.451  20.984  0.00  0.00    +0.000 C 
ATOM     10  O   UNL     1       0.841  10.396  22.167  0.00  0.00    +0.000 OA
ENDROOT
BRANCH   1  15
ATOM     11  C   UNL     1       2.800   6.602  18.793  0.00  0.00    +0.000 A 
ATOM     12  C   UNL     1       2.493   5.703  19.827  0.00  0.00    +0.000 A 
ATOM     13  C   UNL     1       1.679   6.071  20.913  0.00  0.00    +0.000 A 
ATOM     14  C   UNL     1       1.159   7.365  21.013  0.00  0.00    +0.000 A 
ATOM     15  C   UNL     1       1.420   8.273  20.000  0.00  0.00    +0.000 A 
ATOM     16  C   UNL     1       2.218   7.862  18.918  0.00  0.00    +0.000 A 
BRANCH  11  19
ATOM     17  C   UNL     1       4.377   4.856  17.404  0.00  0.00    +0.000 C 
ATOM     18  C   UNL     1       5.178   6.085  17.789  0.00  0.00    +0.000 C 
ATOM     19  C   UNL     1       3.695   6.201  17.631  0.00  0.00    +0.000 C 
BRANCH  17  25
ATOM     20  C   UNL     1       2.460   2.332  17.588  0.00  0.00    +0.000 C 
ATOM     21  N   UNL     1       3.635   2.572  18.384  0.00  0.00    +0.000 N 
ATOM     22  C   UNL     1       4.077   1.780  19.408  0.00  0.00    +0.000 A 
ATOM     23  N   UNL     1       5.108   2.351  19.980  0.00  0.00    +0.000 NA
ATOM     24  N   UNL     1       5.353   3.532  19.317  0.00  0.00    +0.000 NA
ATOM     25  C   UNL     1       4.454   3.680  18.374  0.00  0.00    +0.000 A 
ENDBRANCH  17  25
ENDBRANCH  11  19
ENDBRANCH   1  15
BRANCH   8  26
ATOM     26  C   UNL     1      -2.657  10.457  17.681  0.00  0.00    +0.000 C 
ATOM     27  F   UNL     1      -2.923   9.235  18.218  0.00  0.00    +0.000 F 
ATOM     28  F   UNL     1      -3.884  10.976  17.382  0.00  0.00    +0.000 F 
ATOM     29  F   UNL     1      -2.042  10.230  16.497  0.00  0.00    +0.000 F 
ENDBRANCH   8  26
BRANCH   6  30
ATOM     30  C   UNL     1      -2.582  14.398  20.739  0.00  0.00    +0.000 C 
ATOM     31  N   UNL     1      -3.102  15.372  21.103  0.00  0.00    +0.000 NA
ENDBRANCH   6  30
TORSDOF 5
ENDMDL
MODEL 9
REMARK VINA RESULT:      -8.3      1.261      1.655
REMARK  Name = 
REMARK  6 active torsions:
REMARK  status: ('A' for Active; 'I' for Inactive)
REMARK    1  A    between atoms: C_1  and  N_2
REMARK    2  A    between atoms: C_6  and  C_7
REMARK    3  A    between atoms: C_9  and  C_10
REMARK    4  A    between atoms: C_14  and  N_15
REMARK    5  A    between atoms: C_20  and  C_21
REMARK    6  A    between atoms: C_24  and  C_25
REMARK                            x       y       z     vdW  Elec       q    Type
REMARK                         _______ _______ _______ _____ _____    ______ ____
ROOT
ATOM      1  N   UNL     1       1.832   8.049  19.938  0.00  0.00    +0.000 N 
ATOM      2  C   UNL     1       2.229   6.863  20.664  0.00  0.00    +0.000 C 
ATOM      3  C   UNL     1       2.641   5.964  19.557  0.00  0.00    +0.000 A 
ATOM      4  C   UNL     1       3.067   6.750  18.494  0.00  0.00    +0.000 A 
ATOM      5  C   UNL     1       3.769   6.222  17.427  0.00  0.00    +0.000 A 
ATOM      6  C   UNL     1       3.950   4.833  17.408  0.00  0.00    +0.000 A 
ATOM      7  C   UNL     1       3.271   4.024  18.349  0.00  0.00    +0.000 A 
ATOM      8  C   UNL     1       2.537   4.595  19.405  0.00  0.00    +0.000 A 
ATOM      9  C   UNL     1       2.399   8.067  18.663  0.00  0.00    +0.000 C 
ATOM     10  O   UNL     1       2.322   8.896  17.778  0.00  0.00    +0.000 OA
ENDROOT
BRANCH   1  15
ATOM     11  C   UNL     1      -0.542  10.914  20.123  0.00  0.00    +0.000 A 
ATOM     12  C   UNL     1      -0.905  10.831  21.476  0.00  0.00    +0.000 A 
ATOM     13  C   UNL     1      -0.400   9.827  22.321  0.00  0.00    +0.000 A 
ATOM     14  C   UNL     1       0.475   8.853  21.832  0.00  0.00    +0.000 A 
ATOM     15  C   UNL     1       0.875   8.914  20.507  0.00  0.00    +0.000 A 
ATOM     16  C   UNL     1       0.368   9.946  19.699  0.00  0.00    +0.000 A 
BRANCH  11  19
ATOM     17  C   UNL     1      -0.441  13.300  18.795  0.00  0.00    +0.000 C 
ATOM     18  C   UNL     1      -1.615  13.290  19.756  0.00  0.00    +0.000 C 
ATOM     19  C   UNL     1      -1.107  11.992  19.211  0.00  0.00    +0.000 C 
BRANCH  17  25
ATOM     20  C   UNL     1       2.542  12.461  18.104  0.00  0.00    +0.000 C 
ATOM     21  N   UNL     1       2.136  13.539  18.968  0.00  0.00    +0.000 N 
ATOM     22  C   UNL     1       2.978  14.335  19.694  0.00  0.00    +0.000 A 
ATOM     23  N   UNL     1       2.269  15.137  20.449  0.00  0.00    +0.000 NA
ATOM     24  N   UNL     1       0.940  14.870  20.208  0.00  0.00    +0.000 NA
ATOM     25  C   UNL     1       0.857  13.892  19.338  0.00  0.00    +0.000 A 
ENDBRANCH  17  25
ENDBRANCH  11  19
ENDBRANCH   1  15
BRANCH   8  26
ATOM     26  C   UNL     1       1.492   3.790  20.144  0.00  0.00    +0.000 C 
ATOM     27  F   UNL     1       0.294   4.420  20.282  0.00  0.00    +0.000 F 
ATOM     28  F   UNL     1       1.200   2.641  19.467  0.00  0.00    +0.000 F 
ATOM     29  F   UNL     1       1.872   3.413  21.387  0.00  0.00    +0.000 F 
ENDBRANCH   8  26
BRANCH   6  30
ATOM     30  C   UNL     1       4.751   4.212  16.390  0.00  0.00    +0.000 C 
ATOM     31  N   UNL     1       5.404   3.738  15.553  0.00  0.00    +0.000 NA
ENDBRANCH   6  30
TORSDOF 5
ENDMDL
