MODEL 1
REMARK VINA RESULT:     -10.0      0.000      0.000
REMARK  Name = 
REMARK  10 active torsions:
REMARK  status: ('A' for Active; 'I' for Inactive)
REMARK    1  A    between atoms: C_1  and  N_2
REMARK    2  A    between atoms: N_2  and  C_3
REMARK    3  A    between atoms: N_2  and  C_35
REMARK    4  A    between atoms: C_7  and  C_8
REMARK    5  A    between atoms: N_14  and  C_15
REMARK    6  A    between atoms: C_19  and  C_20
REMARK    7  A    between atoms: C_20  and  C_21
REMARK    8  A    between atoms: C_20  and  C_23
REMARK    9  A    between atoms: C_23  and  C_26
REMARK   10  A    between atoms: N_30  and  C_31
REMARK                            x       y       z     vdW  Elec       q    Type
REMARK                         _______ _______ _______ _____ _____    ______ ____
ROOT
ATOM      1  C   UNL     1       3.855   5.409  17.853  0.00  0.00    +0.000 A 
ATOM      2  C   UNL     1       3.370   6.724  17.909  0.00  0.00    +0.000 A 
ATOM      3  C   UNL     1       2.560   7.108  18.969  0.00  0.00    +0.000 A 
ATOM      4  C   UNL     1       2.166   6.232  19.970  0.00  0.00    +0.000 A 
ATOM      5  C   UNL     1       2.591   4.914  19.944  0.00  0.00    +0.000 A 
ATOM      6  C   UNL     1       3.474   4.542  18.907  0.00  0.00    +0.000 A 
ATOM      7  C   UNL     1       1.280   6.937  20.941  0.00  0.00    +0.000 C 
ATOM      8  N   UNL     1       1.225   8.295  20.426  0.00  0.00    +0.000 N 
ATOM      9  C   UNL     1       1.953   8.419  19.240  0.00  0.00    +0.000 C 
ATOM     10  O   UNL     1       2.127   9.373  18.498  0.00  0.00    +0.000 OA
ENDROOT
BRANCH   8  11
ATOM     11  C   UNL     1       0.436   9.297  21.052  0.00  0.00    +0.000 A 
ATOM     12  C   UNL     1       0.101   9.218  22.407  0.00  0.00    +0.000 A 
ATOM     13  C   UNL     1      -0.615  10.240  23.031  0.00  0.00    +0.000 A 
ATOM     14  C   UNL     1      -1.044  11.347  22.302  0.00  0.00    +0.000 A 
ATOM     15  C   UNL     1      -0.771  11.441  20.933  0.00  0.00    +0.000 A 
ATOM     16  C   UNL     1      -0.015  10.416  20.328  0.00  0.00    +0.000 A 
BRANCH  15  17
ATOM     17  C   UNL     1      -1.284  12.612  20.086  0.00  0.00    +0.000 C 
ATOM     18  C   UNL     1      -2.058  12.055  18.881  0.00  0.00    +0.000 C 
ATOM     19  F   UNL     1      -2.211  13.367  20.776  0.00  0.00    +0.000 F 
BRANCH  17  20
ATOM     20  C   UNL     1      -0.156  13.563  19.595  0.00  0.00    +0.000 C 
ATOM     21  F   UNL     1       0.639  12.907  18.690  0.00  0.00    +0.000 F 
ATOM     22  F   UNL     1      -0.718  14.579  18.863  0.00  0.00    +0.000 F 
BRANCH  20  23
ATOM     23  C   UNL     1       0.692  14.161  20.671  0.00  0.00    +0.000 A 
ATOM     24  N   UNL     1       1.808  13.690  21.199  0.00  0.00    +0.000 NA
ATOM     25  N   UNL     1       2.236  14.568  22.164  0.00  0.00    +0.000 NA
ATOM     26  C   UNL     1       1.373  15.555  22.216  0.00  0.00    +0.000 A 
ATOM     27  N   UNL     1       0.388  15.341  21.304  0.00  0.00    +0.000 N 
ATOM     28  C   UNL     1      -0.751  16.191  21.076  0.00  0.00    +0.000 C 
ENDBRANCH  20  23
ENDBRANCH  17  20
ENDBRANCH  15  17
ENDBRANCH   8  11
BRANCH   5  29
ATOM     29  C   UNL     1       2.121   3.880  20.925  0.00  0.00    +0.000 C 
ATOM     30  F   UNL     1       0.771   3.696  20.921  0.00  0.00    +0.000 F 
ATOM     31  F   UNL     1       2.656   2.654  20.664  0.00  0.00    +0.000 F 
ATOM     32  F   UNL     1       2.457   4.171  22.210  0.00  0.00    +0.000 F 
ENDBRANCH   5  29
BRANCH   1  34
ATOM     33  C   UNL     1       4.416   3.652  16.207  0.00  0.00    +0.000 C 
ATOM     34  N   UNL     1       4.684   4.951  16.826  0.00  0.00    +0.000 N 
BRANCH  34  35
ATOM     35  C   UNL     1       5.994   5.633  16.588  0.00  0.00    +0.000 C 
ATOM     36  C   UNL     1       7.068   4.769  15.900  0.00  0.00    +0.000 C 
ATOM     37  N   UNL     1       7.988   4.236  16.930  0.00  0.00    +0.000 NA
ATOM     38  C   UNL     1       7.561   4.832  18.212  0.00  0.00    +0.000 C 
ATOM     39  C   UNL     1       6.719   6.046  17.867  0.00  0.00    +0.000 C 
ATOM     40  F   UNL     1       7.569   7.080  17.573  0.00  0.00    +0.000 F 
ATOM     41  H   UNL     1       8.924   4.593  16.718  0.00  0.00    +0.000 HD
ENDBRANCH  34  35
ENDBRANCH   1  34
TORSDOF 7
ENDMDL
MODEL 2
REMARK VINA RESULT:      -9.8      0.754      1.306
REMARK  Name = 
REMARK  10 active torsions:
REMARK  status: ('A' for Active; 'I' for Inactive)
REMARK    1  A    between atoms: C_1  and  N_2
REMARK    2  A    between atoms: N_2  and  C_3
REMARK    3  A    between atoms: N_2  and  C_35
REMARK    4  A    between atoms: C_7  and  C_8
REMARK    5  A    between atoms: N_14  and  C_15
REMARK    6  A    between atoms: C_19  and  C_20
REMARK    7  A    between atoms: C_20  and  C_21
REMARK    8  A    between atoms: C_20  and  C_23
REMARK    9  A    between atoms: C_23  and  C_26
REMARK   10  A    between atoms: N_30  and  C_31
REMARK                            x       y       z     vdW  Elec       q    Type
REMARK                         _______ _______ _______ _____ _____    ______ ____
ROOT
ATOM      1  C   UNL     1       3.853   5.539  17.816  0.00  0.00    +0.000 A 
ATOM      2  C   UNL     1       3.352   6.849  17.863  0.00  0.00    +0.000 A 
ATOM      3  C   UNL     1       2.543   7.231  18.925  0.00  0.00    +0.000 A 
ATOM      4  C   UNL     1       2.164   6.359  19.934  0.00  0.00    +0.000 A 
ATOM      5  C   UNL     1       2.605   5.046  19.916  0.00  0.00    +0.000 A 
ATOM      6  C   UNL     1       3.487   4.676  18.878  0.00  0.00    +0.000 A 
ATOM      7  C   UNL     1       1.273   7.060  20.903  0.00  0.00    +0.000 C 
ATOM      8  N   UNL     1       1.200   8.414  20.378  0.00  0.00    +0.000 N 
ATOM      9  C   UNL     1       1.921   8.537  19.187  0.00  0.00    +0.000 C 
ATOM     10  O   UNL     1       2.080   9.487  18.438  0.00  0.00    +0.000 OA
ENDROOT
BRANCH   8  11
ATOM     11  C   UNL     1       0.402   9.411  21.000  0.00  0.00    +0.000 A 
ATOM     12  C   UNL     1       0.123   9.371  22.370  0.00  0.00    +0.000 A 
ATOM     13  C   UNL     1      -0.602  10.390  22.985  0.00  0.00    +0.000 A 
ATOM     14  C   UNL     1      -1.098  11.455  22.235  0.00  0.00    +0.000 A 
ATOM     15  C   UNL     1      -0.883  11.507  20.854  0.00  0.00    +0.000 A 
ATOM     16  C   UNL     1      -0.116  10.487  20.255  0.00  0.00    +0.000 A 
BRANCH  15  17
ATOM     17  C   UNL     1      -1.470  12.628  19.988  0.00  0.00    +0.000 C 
ATOM     18  C   UNL     1      -2.505  12.026  19.025  0.00  0.00    +0.000 C 
ATOM     19  F   UNL     1      -2.186  13.532  20.746  0.00  0.00    +0.000 F 
BRANCH  17  20
ATOM     20  C   UNL     1      -0.397  13.416  19.183  0.00  0.00    +0.000 C 
ATOM     21  F   UNL     1       0.819  12.793  19.303  0.00  0.00    +0.000 F 
ATOM     22  F   UNL     1      -0.686  13.320  17.844  0.00  0.00    +0.000 F 
BRANCH  20  23
ATOM     23  C   UNL     1      -0.261  14.861  19.540  0.00  0.00    +0.000 A 
ATOM     24  N   UNL     1      -0.661  15.921  18.859  0.00  0.00    +0.000 NA
ATOM     25  N   UNL     1      -0.314  17.046  19.566  0.00  0.00    +0.000 NA
ATOM     26  C   UNL     1       0.296  16.659  20.659  0.00  0.00    +0.000 A 
ATOM     27  N   UNL     1       0.358  15.301  20.685  0.00  0.00    +0.000 N 
ATOM     28  C   UNL     1       0.972  14.502  21.713  0.00  0.00    +0.000 C 
ENDBRANCH  20  23
ENDBRANCH  17  20
ENDBRANCH  15  17
ENDBRANCH   8  11
BRANCH   5  29
ATOM     29  C   UNL     1       2.151   4.014  20.907  0.00  0.00    +0.000 C 
ATOM     30  F   UNL     1       2.682   2.778  20.692  0.00  0.00    +0.000 F 
ATOM     31  F   UNL     1       2.504   4.345  22.181  0.00  0.00    +0.000 F 
ATOM     32  F   UNL     1       0.801   3.846  20.923  0.00  0.00    +0.000 F 
ENDBRANCH   5  29
BRANCH   1  34
ATOM     33  C   UNL     1       4.388   3.807  16.135  0.00  0.00    +0.000 C 
ATOM     34  N   UNL     1       4.683   5.083  16.788  0.00  0.00    +0.000 N 
BRANCH  34  35
ATOM     35  C   UNL     1       6.015   5.734  16.584  0.00  0.00    +0.000 C 
ATOM     36  C   UNL     1       7.079   4.852  15.903  0.00  0.00    +0.000 C 
ATOM     37  N   UNL     1       7.965   4.280  16.941  0.00  0.00    +0.000 NA
ATOM     38  C   UNL     1       7.530   4.868  18.224  0.00  0.00    +0.000 C 
ATOM     39  C   UNL     1       6.726   6.109  17.882  0.00  0.00    +0.000 C 
ATOM     40  F   UNL     1       7.609   7.124  17.618  0.00  0.00    +0.000 F 
ATOM     41  H   UNL     1       8.913   4.616  16.751  0.00  0.00    +0.000 HD
ENDBRANCH  34  35
ENDBRANCH   1  34
TORSDOF 7
ENDMDL
MODEL 3
REMARK VINA RESULT:      -9.7      2.034      3.152
REMARK  Name = 
REMARK  10 active torsions:
REMARK  status: ('A' for Active; 'I' for Inactive)
REMARK    1  A    between atoms: C_1  and  N_2
REMARK    2  A    between atoms: N_2  and  C_3
REMARK    3  A    between atoms: N_2  and  C_35
REMARK    4  A    between atoms: C_7  and  C_8
REMARK    5  A    between atoms: N_14  and  C_15
REMARK    6  A    between atoms: C_19  and  C_20
REMARK    7  A    between atoms: C_20  and  C_21
REMARK    8  A    between atoms: C_20  and  C_23
REMARK    9  A    between atoms: C_23  and  C_26
REMARK   10  A    between atoms: N_30  and  C_31
REMARK                            x       y       z     vdW  Elec       q    Type
REMARK                         _______ _______ _______ _____ _____    ______ ____
ROOT
ATOM      1  C   UNL     1       3.862   5.311  17.805  0.00  0.00    +0.000 A 
ATOM      2  C   UNL     1       3.376   6.627  17.819  0.00  0.00    +0.000 A 
ATOM      3  C   UNL     1       2.558   7.040  18.863  0.00  0.00    +0.000 A 
ATOM      4  C   UNL     1       2.157   6.193  19.885  0.00  0.00    +0.000 A 
ATOM      5  C   UNL     1       2.584   4.875  19.900  0.00  0.00    +0.000 A 
ATOM      6  C   UNL     1       3.474   4.475  18.881  0.00  0.00    +0.000 A 
ATOM      7  C   UNL     1       1.263   6.924  20.828  0.00  0.00    +0.000 C 
ATOM      8  N   UNL     1       1.211   8.267  20.275  0.00  0.00    +0.000 N 
ATOM      9  C   UNL     1       1.947   8.358  19.091  0.00  0.00    +0.000 C 
ATOM     10  O   UNL     1       2.126   9.290  18.324  0.00  0.00    +0.000 OA
ENDROOT
BRANCH   8  11
ATOM     11  C   UNL     1       0.416   9.286  20.866  0.00  0.00    +0.000 A 
ATOM     12  C   UNL     1       0.180   9.317  22.244  0.00  0.00    +0.000 A 
ATOM     13  C   UNL     1      -0.542  10.358  22.825  0.00  0.00    +0.000 A 
ATOM     14  C   UNL     1      -1.078  11.373  22.034  0.00  0.00    +0.000 A 
ATOM     15  C   UNL     1      -0.905  11.353  20.646  0.00  0.00    +0.000 A 
ATOM     16  C   UNL     1      -0.141  10.312  20.080  0.00  0.00    +0.000 A 
BRANCH  15  17
ATOM     17  C   UNL     1      -1.536  12.416  19.739  0.00  0.00    +0.000 C 
ATOM     18  C   UNL     1      -1.603  13.748  20.502  0.00  0.00    +0.000 C 
ATOM     19  F   UNL     1      -0.741  12.683  18.643  0.00  0.00    +0.000 F 
BRANCH  17  20
ATOM     20  C   UNL     1      -2.953  12.031  19.225  0.00  0.00    +0.000 C 
ATOM     21  F   UNL     1      -3.528  11.134  20.089  0.00  0.00    +0.000 F 
ATOM     22  F   UNL     1      -3.769  13.132  19.303  0.00  0.00    +0.000 F 
BRANCH  20  23
ATOM     23  C   UNL     1      -3.005  11.494  17.831  0.00  0.00    +0.000 A 
ATOM     24  N   UNL     1      -2.039  10.933  17.126  0.00  0.00    +0.000 NA
ATOM     25  N   UNL     1      -2.539  10.601  15.891  0.00  0.00    +0.000 NA
ATOM     26  C   UNL     1      -3.797  10.971  15.858  0.00  0.00    +0.000 A 
ATOM     27  N   UNL     1      -4.132  11.538  17.047  0.00  0.00    +0.000 N 
ATOM     28  C   UNL     1      -5.418  12.087  17.388  0.00  0.00    +0.000 C 
ENDBRANCH  20  23
ENDBRANCH  17  20
ENDBRANCH  15  17
ENDBRANCH   8  11
BRANCH   5  29
ATOM     29  C   UNL     1       2.107   3.869  20.906  0.00  0.00    +0.000 C 
ATOM     30  F   UNL     1       0.757   3.689  20.902  0.00  0.00    +0.000 F 
ATOM     31  F   UNL     1       2.640   2.635  20.681  0.00  0.00    +0.000 F 
ATOM     32  F   UNL     1       2.438   4.194  22.185  0.00  0.00    +0.000 F 
ENDBRANCH   5  29
BRANCH   1  34
ATOM     33  C   UNL     1       4.464   3.491  16.245  0.00  0.00    +0.000 C 
ATOM     34  N   UNL     1       4.699   4.825  16.797  0.00  0.00    +0.000 N 
BRANCH  34  35
ATOM     35  C   UNL     1       5.991   5.529  16.521  0.00  0.00    +0.000 C 
ATOM     36  C   UNL     1       7.099   4.650  15.909  0.00  0.00    +0.000 C 
ATOM     37  N   UNL     1       8.023   4.224  16.984  0.00  0.00    +0.000 NA
ATOM     38  C   UNL     1       7.564   4.901  18.214  0.00  0.00    +0.000 C 
ATOM     39  C   UNL     1       6.688   6.058  17.771  0.00  0.00    +0.000 C 
ATOM     40  F   UNL     1       7.510   7.094  17.407  0.00  0.00    +0.000 F 
ATOM     41  H   UNL     1       8.949   4.594  16.753  0.00  0.00    +0.000 HD
ENDBRANCH  34  35
ENDBRANCH   1  34
TORSDOF 7
ENDMDL
MODEL 4
REMARK VINA RESULT:      -9.6      2.466      9.718
REMARK  Name = 
REMARK  10 active torsions:
REMARK  status: ('A' for Active; 'I' for Inactive)
REMARK    1  A    between atoms: C_1  and  N_2
REMARK    2  A    between atoms: N_2  and  C_3
REMARK    3  A    between atoms: N_2  and  C_35
REMARK    4  A    between atoms: C_7  and  C_8
REMARK    5  A    between atoms: N_14  and  C_15
REMARK    6  A    between atoms: C_19  and  C_20
REMARK    7  A    between atoms: C_20  and  C_21
REMARK    8  A    between atoms: C_20  and  C_23
REMARK    9  A    between atoms: C_23  and  C_26
REMARK   10  A    between atoms: N_30  and  C_31
REMARK                            x       y       z     vdW  Elec       q    Type
REMARK                         _______ _______ _______ _____ _____    ______ ____
ROOT
ATOM      1  C   UNL     1      -0.074  11.087  19.042  0.00  0.00    +0.000 A 
ATOM      2  C   UNL     1       0.797  10.270  18.304  0.00  0.00    +0.000 A 
ATOM      3  C   UNL     1       1.316   9.123  18.890  0.00  0.00    +0.000 A 
ATOM      4  C   UNL     1       1.047   8.761  20.201  0.00  0.00    +0.000 A 
ATOM      5  C   UNL     1       0.219   9.551  20.982  0.00  0.00    +0.000 A 
ATOM      6  C   UNL     1      -0.368  10.676  20.365  0.00  0.00    +0.000 A 
ATOM      7  C   UNL     1       1.773   7.503  20.540  0.00  0.00    +0.000 C 
ATOM      8  N   UNL     1       2.456   7.162  19.302  0.00  0.00    +0.000 N 
ATOM      9  C   UNL     1       2.225   8.123  18.313  0.00  0.00    +0.000 C 
ATOM     10  O   UNL     1       2.635   8.212  17.167  0.00  0.00    +0.000 OA
ENDROOT
BRANCH   8  11
ATOM     11  C   UNL     1       3.308   6.029  19.209  0.00  0.00    +0.000 A 
ATOM     12  C   UNL     1       3.134   4.918  20.041  0.00  0.00    +0.000 A 
ATOM     13  C   UNL     1       3.929   3.782  19.897  0.00  0.00    +0.000 A 
ATOM     14  C   UNL     1       4.942   3.747  18.941  0.00  0.00    +0.000 A 
ATOM     15  C   UNL     1       5.181   4.856  18.122  0.00  0.00    +0.000 A 
ATOM     16  C   UNL     1       4.343   5.982  18.258  0.00  0.00    +0.000 A 
BRANCH  15  17
ATOM     17  C   UNL     1       6.329   4.877  17.106  0.00  0.00    +0.000 C 
ATOM     18  C   UNL     1       6.820   6.323  16.937  0.00  0.00    +0.000 C 
ATOM     19  F   UNL     1       7.430   4.189  17.573  0.00  0.00    +0.000 F 
BRANCH  17  20
ATOM     20  C   UNL     1       5.941   4.286  15.721  0.00  0.00    +0.000 C 
ATOM     21  F   UNL     1       5.920   2.917  15.793  0.00  0.00    +0.000 F 
ATOM     22  F   UNL     1       4.639   4.621  15.443  0.00  0.00    +0.000 F 
BRANCH  20  23
ATOM     23  C   UNL     1       6.800   4.718  14.576  0.00  0.00    +0.000 A 
ATOM     24  N   UNL     1       7.834   5.541  14.585  0.00  0.00    +0.000 NA
ATOM     25  N   UNL     1       8.311   5.653  13.302  0.00  0.00    +0.000 NA
ATOM     26  C   UNL     1       7.559   4.905  12.530  0.00  0.00    +0.000 A 
ATOM     27  N   UNL     1       6.598   4.304  13.282  0.00  0.00    +0.000 N 
ATOM     28  C   UNL     1       5.569   3.425  12.792  0.00  0.00    +0.000 C 
ENDBRANCH  20  23
ENDBRANCH  17  20
ENDBRANCH  15  17
ENDBRANCH   8  11
BRANCH   5  29
ATOM     29  C   UNL     1      -0.032   9.288  22.439  0.00  0.00    +0.000 C 
ATOM     30  F   UNL     1       1.083   9.398  23.214  0.00  0.00    +0.000 F 
ATOM     31  F   UNL     1      -0.930  10.168  22.965  0.00  0.00    +0.000 F 
ATOM     32  F   UNL     1      -0.536   8.048  22.679  0.00  0.00    +0.000 F 
ENDBRANCH   5  29
BRANCH   1  34
ATOM     33  C   UNL     1      -1.890  12.159  17.752  0.00  0.00    +0.000 C 
ATOM     34  N   UNL     1      -0.645  12.249  18.518  0.00  0.00    +0.000 N 
BRANCH  34  35
ATOM     35  C   UNL     1       0.167  13.506  18.475  0.00  0.00    +0.000 C 
ATOM     36  C   UNL     1       1.568  13.403  19.106  0.00  0.00    +0.000 C 
ATOM     37  N   UNL     1       1.519  13.957  20.478  0.00  0.00    +0.000 NA
ATOM     38  C   UNL     1       0.151  14.483  20.661  0.00  0.00    +0.000 C 
ATOM     39  C   UNL     1      -0.435  14.660  19.272  0.00  0.00    +0.000 C 
ATOM     40  F   UNL     1       0.041  15.839  18.760  0.00  0.00    +0.000 F 
ATOM     41  H   UNL     1       2.164  14.752  20.509  0.00  0.00    +0.000 HD
ENDBRANCH  34  35
ENDBRANCH   1  34
TORSDOF 7
ENDMDL
MODEL 5
REMARK VINA RESULT:      -9.6      2.452      9.013
REMARK  Name = 
REMARK  10 active torsions:
REMARK  status: ('A' for Active; 'I' for Inactive)
REMARK    1  A    between atoms: C_1  and  N_2
REMARK    2  A    between atoms: N_2  and  C_3
REMARK    3  A    between atoms: N_2  and  C_35
REMARK    4  A    between atoms: C_7  and  C_8
REMARK    5  A    between atoms: N_14  and  C_15
REMARK    6  A    between atoms: C_19  and  C_20
REMARK    7  A    between atoms: C_20  and  C_21
REMARK    8  A    between atoms: C_20  and  C_23
REMARK    9  A    between atoms: C_23  and  C_26
REMARK   10  A    between atoms: N_30  and  C_31
REMARK                            x       y       z     vdW  Elec       q    Type
REMARK                         _______ _______ _______ _____ _____    ______ ____
ROOT
ATOM      1  C   UNL     1       0.377  11.874  19.704  0.00  0.00    +0.000 A 
ATOM      2  C   UNL     1       1.110  11.044  18.843  0.00  0.00    +0.000 A 
ATOM      3  C   UNL     1       1.380   9.736  19.222  0.00  0.00    +0.000 A 
ATOM      4  C   UNL     1       0.992   9.213  20.447  0.00  0.00    +0.000 A 
ATOM      5  C   UNL     1       0.294  10.001  21.347  0.00  0.00    +0.000 A 
ATOM      6  C   UNL     1      -0.045  11.307  20.932  0.00  0.00    +0.000 A 
ATOM      7  C   UNL     1       1.456   7.801  20.565  0.00  0.00    +0.000 C 
ATOM      8  N   UNL     1       2.115   7.552  19.293  0.00  0.00    +0.000 N 
ATOM      9  C   UNL     1       2.110   8.694  18.487  0.00  0.00    +0.000 C 
ATOM     10  O   UNL     1       2.578   8.898  17.378  0.00  0.00    +0.000 OA
ENDROOT
BRANCH   8  11
ATOM     11  C   UNL     1       2.743   6.310  19.010  0.00  0.00    +0.000 A 
ATOM     12  C   UNL     1       2.487   5.173  19.782  0.00  0.00    +0.000 A 
ATOM     13  C   UNL     1       3.054   3.941  19.456  0.00  0.00    +0.000 A 
ATOM     14  C   UNL     1       3.919   3.829  18.370  0.00  0.00    +0.000 A 
ATOM     15  C   UNL     1       4.239   4.952  17.601  0.00  0.00    +0.000 A 
ATOM     16  C   UNL     1       3.629   6.181  17.924  0.00  0.00    +0.000 A 
BRANCH  15  17
ATOM     17  C   UNL     1       5.240   4.879  16.441  0.00  0.00    +0.000 C 
ATOM     18  C   UNL     1       4.976   3.598  15.634  0.00  0.00    +0.000 C 
ATOM     19  F   UNL     1       5.044   5.904  15.539  0.00  0.00    +0.000 F 
BRANCH  17  20
ATOM     20  C   UNL     1       6.725   4.916  16.901  0.00  0.00    +0.000 C 
ATOM     21  F   UNL     1       6.916   4.016  17.917  0.00  0.00    +0.000 F 
ATOM     22  F   UNL     1       7.517   4.439  15.886  0.00  0.00    +0.000 F 
BRANCH  20  23
ATOM     23  C   UNL     1       7.235   6.259  17.314  0.00  0.00    +0.000 A 
ATOM     24  N   UNL     1       7.294   7.373  16.606  0.00  0.00    +0.000 NA
ATOM     25  N   UNL     1       7.846   8.357  17.389  0.00  0.00    +0.000 NA
ATOM     26  C   UNL     1       8.122   7.829  18.557  0.00  0.00    +0.000 A 
ATOM     27  N   UNL     1       7.762   6.517  18.556  0.00  0.00    +0.000 N 
ATOM     28  C   UNL     1       7.927   5.595  19.648  0.00  0.00    +0.000 C 
ENDBRANCH  20  23
ENDBRANCH  17  20
ENDBRANCH  15  17
ENDBRANCH   8  11
BRANCH   5  29
ATOM     29  C   UNL     1      -0.063   9.546  22.732  0.00  0.00    +0.000 C 
ATOM     30  F   UNL     1      -0.833   8.423  22.757  0.00  0.00    +0.000 F 
ATOM     31  F   UNL     1       1.045   9.245  23.468  0.00  0.00    +0.000 F 
ATOM     32  F   UNL     1      -0.743  10.485  23.444  0.00  0.00    +0.000 F 
ENDBRANCH   5  29
BRANCH   1  34
ATOM     33  C   UNL     1      -0.676  13.486  18.153  0.00  0.00    +0.000 C 
ATOM     34  N   UNL     1       0.055  13.197  19.388  0.00  0.00    +0.000 N 
BRANCH  34  35
ATOM     35  C   UNL     1       0.721  14.308  20.138  0.00  0.00    +0.000 C 
ATOM     36  C   UNL     1       0.804  15.649  19.385  0.00  0.00    +0.000 C 
ATOM     37  N   UNL     1       2.153  15.782  18.788  0.00  0.00    +0.000 NA
ATOM     38  C   UNL     1       2.921  14.604  19.240  0.00  0.00    +0.000 C 
ATOM     39  C   UNL     1       2.193  14.050  20.450  0.00  0.00    +0.000 C 
ATOM     40  F   UNL     1       2.547  14.805  21.538  0.00  0.00    +0.000 F 
ATOM     41  H   UNL     1       2.587  16.613  19.198  0.00  0.00    +0.000 HD
ENDBRANCH  34  35
ENDBRANCH   1  34
TORSDOF 7
ENDMDL
MODEL 6
REMARK VINA RESULT:      -9.6      2.532      9.776
REMARK  Name = 
REMARK  10 active torsions:
REMARK  status: ('A' for Active; 'I' for Inactive)
REMARK    1  A    between atoms: C_1  and  N_2
REMARK    2  A    between atoms: N_2  and  C_3
REMARK    3  A    between atoms: N_2  and  C_35
REMARK    4  A    between atoms: C_7  and  C_8
REMARK    5  A    between atoms: N_14  and  C_15
REMARK    6  A    between atoms: C_19  and  C_20
REMARK    7  A    between atoms: C_20  and  C_21
REMARK    8  A    between atoms: C_20  and  C_23
REMARK    9  A    between atoms: C_23  and  C_26
REMARK   10  A    between atoms: N_30  and  C_31
REMARK                            x       y       z     vdW  Elec       q    Type
REMARK                         _______ _______ _______ _____ _____    ______ ____
ROOT
ATOM      1  C   UNL     1       0.553  11.952  19.731  0.00  0.00    +0.000 A 
ATOM      2  C   UNL     1       1.235  11.130  18.821  0.00  0.00    +0.000 A 
ATOM      3  C   UNL     1       1.448   9.795  19.137  0.00  0.00    +0.000 A 
ATOM      4  C   UNL     1       1.053   9.235  20.343  0.00  0.00    +0.000 A 
ATOM      5  C   UNL     1       0.404  10.012  21.288  0.00  0.00    +0.000 A 
ATOM      6  C   UNL     1       0.121  11.350  20.939  0.00  0.00    +0.000 A 
ATOM      7  C   UNL     1       1.451   7.798  20.390  0.00  0.00    +0.000 C 
ATOM      8  N   UNL     1       2.080   7.578  19.098  0.00  0.00    +0.000 N 
ATOM      9  C   UNL     1       2.119   8.754  18.344  0.00  0.00    +0.000 C 
ATOM     10  O   UNL     1       2.581   8.987  17.239  0.00  0.00    +0.000 OA
ENDROOT
BRANCH   8  11
ATOM     11  C   UNL     1       2.646   6.322  18.750  0.00  0.00    +0.000 A 
ATOM     12  C   UNL     1       2.005   5.122  19.071  0.00  0.00    +0.000 A 
ATOM     13  C   UNL     1       2.531   3.896  18.664  0.00  0.00    +0.000 A 
ATOM     14  C   UNL     1       3.731   3.843  17.959  0.00  0.00    +0.000 A 
ATOM     15  C   UNL     1       4.428   5.018  17.660  0.00  0.00    +0.000 A 
ATOM     16  C   UNL     1       3.863   6.250  18.047  0.00  0.00    +0.000 A 
BRANCH  15  17
ATOM     17  C   UNL     1       5.784   4.993  16.944  0.00  0.00    +0.000 C 
ATOM     18  C   UNL     1       6.265   6.436  16.731  0.00  0.00    +0.000 C 
ATOM     19  F   UNL     1       6.760   4.414  17.730  0.00  0.00    +0.000 F 
BRANCH  17  20
ATOM     20  C   UNL     1       5.752   4.241  15.583  0.00  0.00    +0.000 C 
ATOM     21  F   UNL     1       5.921   2.896  15.794  0.00  0.00    +0.000 F 
ATOM     22  F   UNL     1       4.489   4.334  15.053  0.00  0.00    +0.000 F 
BRANCH  20  23
ATOM     23  C   UNL     1       6.735   4.719  14.563  0.00  0.00    +0.000 A 
ATOM     24  N   UNL     1       7.750   5.550  14.721  0.00  0.00    +0.000 NA
ATOM     25  N   UNL     1       8.374   5.709  13.508  0.00  0.00    +0.000 NA
ATOM     26  C   UNL     1       7.727   4.982  12.629  0.00  0.00    +0.000 A 
ATOM     27  N   UNL     1       6.692   4.348  13.241  0.00  0.00    +0.000 N 
ATOM     28  C   UNL     1       5.739   3.478  12.604  0.00  0.00    +0.000 C 
ENDBRANCH  20  23
ENDBRANCH  17  20
ENDBRANCH  15  17
ENDBRANCH   8  11
BRANCH   5  29
ATOM     29  C   UNL     1       0.045   9.511  22.657  0.00  0.00    +0.000 C 
ATOM     30  F   UNL     1       1.124   9.197  23.426  0.00  0.00    +0.000 F 
ATOM     31  F   UNL     1      -0.652  10.441  23.370  0.00  0.00    +0.000 F 
ATOM     32  F   UNL     1      -0.734   8.396  22.630  0.00  0.00    +0.000 F 
ENDBRANCH   5  29
BRANCH   1  34
ATOM     33  C   UNL     1      -1.097  13.768  19.424  0.00  0.00    +0.000 C 
ATOM     34  N   UNL     1       0.290  13.302  19.480  0.00  0.00    +0.000 N 
BRANCH  34  35
ATOM     35  C   UNL     1       1.391  14.176  18.969  0.00  0.00    +0.000 C 
ATOM     36  C   UNL     1       2.655  14.222  19.848  0.00  0.00    +0.000 C 
ATOM     37  N   UNL     1       2.615  15.443  20.683  0.00  0.00    +0.000 NA
ATOM     38  C   UNL     1       1.411  16.190  20.265  0.00  0.00    +0.000 C 
ATOM     39  C   UNL     1       1.024  15.657  18.898  0.00  0.00    +0.000 C 
ATOM     40  F   UNL     1       1.827  16.261  17.966  0.00  0.00    +0.000 F 
ATOM     41  H   UNL     1       3.433  16.008  20.437  0.00  0.00    +0.000 HD
ENDBRANCH  34  35
ENDBRANCH   1  34
TORSDOF 7
ENDMDL
MODEL 7
REMARK VINA RESULT:      -9.6      1.134      1.384
REMARK  Name = 
REMARK  10 active torsions:
REMARK  status: ('A' for Active; 'I' for Inactive)
REMARK    1  A    between atoms: C_1  and  N_2
REMARK    2  A    between atoms: N_2  and  C_3
REMARK    3  A    between atoms: N_2  and  C_35
REMARK    4  A    between atoms: C_7  and  C_8
REMARK    5  A    between atoms: N_14  and  C_15
REMARK    6  A    between atoms: C_19  and  C_20
REMARK    7  A    between atoms: C_20  and  C_21
REMARK    8  A    between atoms: C_20  and  C_23
REMARK    9  A    between atoms: C_23  and  C_26
REMARK   10  A    between atoms: N_30  and  C_31
REMARK                            x       y       z     vdW  Elec       q    Type
REMARK                         _______ _______ _______ _____ _____    ______ ____
ROOT
ATOM      1  C   UNL     1       3.860   5.356  17.894  0.00  0.00    +0.000 A 
ATOM      2  C   UNL     1       3.377   6.673  17.934  0.00  0.00    +0.000 A 
ATOM      3  C   UNL     1       2.560   7.067  18.985  0.00  0.00    +0.000 A 
ATOM      4  C   UNL     1       2.157   6.201  19.991  0.00  0.00    +0.000 A 
ATOM      5  C   UNL     1       2.581   4.882  19.980  0.00  0.00    +0.000 A 
ATOM      6  C   UNL     1       3.470   4.499  18.953  0.00  0.00    +0.000 A 
ATOM      7  C   UNL     1       1.265   6.915  20.949  0.00  0.00    +0.000 C 
ATOM      8  N   UNL     1       1.216   8.269  20.422  0.00  0.00    +0.000 N 
ATOM      9  C   UNL     1       1.952   8.382  19.239  0.00  0.00    +0.000 C 
ATOM     10  O   UNL     1       2.133   9.328  18.491  0.00  0.00    +0.000 OA
ENDROOT
BRANCH   8  11
ATOM     11  C   UNL     1       0.423   9.278  21.032  0.00  0.00    +0.000 A 
ATOM     12  C   UNL     1       0.113   9.233  22.395  0.00  0.00    +0.000 A 
ATOM     13  C   UNL     1      -0.606  10.263  23.002  0.00  0.00    +0.000 A 
ATOM     14  C   UNL     1      -1.063  11.342  22.249  0.00  0.00    +0.000 A 
ATOM     15  C   UNL     1      -0.815  11.401  20.874  0.00  0.00    +0.000 A 
ATOM     16  C   UNL     1      -0.055  10.370  20.285  0.00  0.00    +0.000 A 
BRANCH  15  17
ATOM     17  C   UNL     1      -1.359  12.540  20.003  0.00  0.00    +0.000 C 
ATOM     18  C   UNL     1      -1.469  12.051  18.551  0.00  0.00    +0.000 C 
ATOM     19  F   UNL     1      -2.651  12.874  20.357  0.00  0.00    +0.000 F 
BRANCH  17  20
ATOM     20  C   UNL     1      -0.494  13.831  20.061  0.00  0.00    +0.000 C 
ATOM     21  F   UNL     1      -1.247  14.909  19.671  0.00  0.00    +0.000 F 
ATOM     22  F   UNL     1      -0.185  14.102  21.371  0.00  0.00    +0.000 F 
BRANCH  20  23
ATOM     23  C   UNL     1       0.774  13.790  19.269  0.00  0.00    +0.000 A 
ATOM     24  N   UNL     1       1.369  12.746  18.720  0.00  0.00    +0.000 NA
ATOM     25  N   UNL     1       2.516  13.178  18.099  0.00  0.00    +0.000 NA
ATOM     26  C   UNL     1       2.607  14.472  18.286  0.00  0.00    +0.000 A 
ATOM     27  N   UNL     1       1.543  14.899  19.017  0.00  0.00    +0.000 N 
ATOM     28  C   UNL     1       1.300  16.252  19.444  0.00  0.00    +0.000 C 
ENDBRANCH  20  23
ENDBRANCH  17  20
ENDBRANCH  15  17
ENDBRANCH   8  11
BRANCH   5  29
ATOM     29  C   UNL     1       2.101   3.857  20.967  0.00  0.00    +0.000 C 
ATOM     30  F   UNL     1       0.749   3.697  20.976  0.00  0.00    +0.000 F 
ATOM     31  F   UNL     1       2.613   2.622  20.703  0.00  0.00    +0.000 F 
ATOM     32  F   UNL     1       2.455   4.145  22.249  0.00  0.00    +0.000 F 
ENDBRANCH   5  29
BRANCH   1  34
ATOM     33  C   UNL     1       4.449   3.570  16.289  0.00  0.00    +0.000 C 
ATOM     34  N   UNL     1       4.696   4.888  16.877  0.00  0.00    +0.000 N 
BRANCH  34  35
ATOM     35  C   UNL     1       5.995   5.586  16.622  0.00  0.00    +0.000 C 
ATOM     36  C   UNL     1       7.090   4.717  15.974  0.00  0.00    +0.000 C 
ATOM     37  N   UNL     1       8.012   4.241  17.030  0.00  0.00    +0.000 NA
ATOM     38  C   UNL     1       7.565   4.877  18.286  0.00  0.00    +0.000 C 
ATOM     39  C   UNL     1       6.702   6.060  17.889  0.00  0.00    +0.000 C 
ATOM     40  F   UNL     1       7.535   7.098  17.561  0.00  0.00    +0.000 F 
ATOM     41  H   UNL     1       8.942   4.608  16.810  0.00  0.00    +0.000 HD
ENDBRANCH  34  35
ENDBRANCH   1  34
TORSDOF 7
ENDMDL
MODEL 8
REMARK VINA RESULT:      -9.5      2.101      2.793
REMARK  Name = 
REMARK  10 active torsions:
REMARK  status: ('A' for Active; 'I' for Inactive)
REMARK    1  A    between atoms: C_1  and  N_2
REMARK    2  A    between atoms: N_2  and  C_3
REMARK    3  A    between atoms: N_2  and  C_35
REMARK    4  A    between atoms: C_7  and  C_8
REMARK    5  A    between atoms: N_14  and  C_15
REMARK    6  A    between atoms: C_19  and  C_20
REMARK    7  A    between atoms: C_20  and  C_21
REMARK    8  A    between atoms: C_20  and  C_23
REMARK    9  A    between atoms: C_23  and  C_26
REMARK   10  A    between atoms: N_30  and  C_31
REMARK                            x       y       z     vdW  Elec       q    Type
REMARK                         _______ _______ _______ _____ _____    ______ ____
ROOT
ATOM      1  C   UNL     1       3.771   5.478  17.896  0.00  0.00    +0.000 A 
ATOM      2  C   UNL     1       3.273   6.786  17.996  0.00  0.00    +0.000 A 
ATOM      3  C   UNL     1       2.466   7.127  19.073  0.00  0.00    +0.000 A 
ATOM      4  C   UNL     1       2.087   6.216  20.048  0.00  0.00    +0.000 A 
ATOM      5  C   UNL     1       2.526   4.904  19.977  0.00  0.00    +0.000 A 
ATOM      6  C   UNL     1       3.406   4.574  18.924  0.00  0.00    +0.000 A 
ATOM      7  C   UNL     1       1.200   6.880  21.046  0.00  0.00    +0.000 C 
ATOM      8  N   UNL     1       1.128   8.253  20.575  0.00  0.00    +0.000 N 
ATOM      9  C   UNL     1       1.847   8.422  19.389  0.00  0.00    +0.000 C 
ATOM     10  O   UNL     1       2.006   9.401  18.677  0.00  0.00    +0.000 OA
ENDROOT
BRANCH   8  11
ATOM     11  C   UNL     1       0.333   9.226  21.238  0.00  0.00    +0.000 A 
ATOM     12  C   UNL     1       0.205   9.236  22.630  0.00  0.00    +0.000 A 
ATOM     13  C   UNL     1      -0.520  10.236  23.277  0.00  0.00    +0.000 A 
ATOM     14  C   UNL     1      -1.166  11.227  22.542  0.00  0.00    +0.000 A 
ATOM     15  C   UNL     1      -1.103  11.225  21.144  0.00  0.00    +0.000 A 
ATOM     16  C   UNL     1      -0.335  10.228  20.509  0.00  0.00    +0.000 A 
BRANCH  15  17
ATOM     17  C   UNL     1      -1.855  12.262  20.301  0.00  0.00    +0.000 C 
ATOM     18  C   UNL     1      -0.875  12.906  19.308  0.00  0.00    +0.000 C 
ATOM     19  F   UNL     1      -2.814  11.667  19.506  0.00  0.00    +0.000 F 
BRANCH  17  20
ATOM     20  C   UNL     1      -2.548  13.366  21.149  0.00  0.00    +0.000 C 
ATOM     21  F   UNL     1      -1.717  13.754  22.169  0.00  0.00    +0.000 F 
ATOM     22  F   UNL     1      -2.680  14.498  20.384  0.00  0.00    +0.000 F 
BRANCH  20  23
ATOM     23  C   UNL     1      -3.889  13.003  21.702  0.00  0.00    +0.000 A 
ATOM     24  N   UNL     1      -4.179  12.458  22.870  0.00  0.00    +0.000 NA
ATOM     25  N   UNL     1      -5.541  12.294  22.946  0.00  0.00    +0.000 NA
ATOM     26  C   UNL     1      -6.058  12.733  21.824  0.00  0.00    +0.000 A 
ATOM     27  N   UNL     1      -5.063  13.182  21.013  0.00  0.00    +0.000 N 
ATOM     28  C   UNL     1      -5.231  13.719  19.688  0.00  0.00    +0.000 C 
ENDBRANCH  20  23
ENDBRANCH  17  20
ENDBRANCH  15  17
ENDBRANCH   8  11
BRANCH   5  29
ATOM     29  C   UNL     1       2.072   3.834  20.927  0.00  0.00    +0.000 C 
ATOM     30  F   UNL     1       2.392   4.085  22.227  0.00  0.00    +0.000 F 
ATOM     31  F   UNL     1       0.718   3.681  20.908  0.00  0.00    +0.000 F 
ATOM     32  F   UNL     1       2.594   2.610  20.642  0.00  0.00    +0.000 F 
ENDBRANCH   5  29
BRANCH   1  34
ATOM     33  C   UNL     1       4.374   3.755  16.228  0.00  0.00    +0.000 C 
ATOM     34  N   UNL     1       4.598   5.062  16.849  0.00  0.00    +0.000 N 
BRANCH  34  35
ATOM     35  C   UNL     1       5.873   5.802  16.589  0.00  0.00    +0.000 C 
ATOM     36  C   UNL     1       6.843   5.113  15.610  0.00  0.00    +0.000 C 
ATOM     37  N   UNL     1       7.883   4.401  16.386  0.00  0.00    +0.000 NA
ATOM     38  C   UNL     1       7.628   4.719  17.805  0.00  0.00    +0.000 C 
ATOM     39  C   UNL     1       6.758   5.962  17.822  0.00  0.00    +0.000 C 
ATOM     40  F   UNL     1       7.572   7.049  17.636  0.00  0.00    +0.000 F 
ATOM     41  H   UNL     1       8.786   4.811  16.132  0.00  0.00    +0.000 HD
ENDBRANCH  34  35
ENDBRANCH   1  34
TORSDOF 7
ENDMDL
MODEL 9
REMARK VINA RESULT:      -9.5      2.015      2.519
REMARK  Name = 
REMARK  10 active torsions:
REMARK  status: ('A' for Active; 'I' for Inactive)
REMARK    1  A    between atoms: C_1  and  N_2
REMARK    2  A    between atoms: N_2  and  C_3
REMARK    3  A    between atoms: N_2  and  C_35
REMARK    4  A    between atoms: C_7  and  C_8
REMARK    5  A    between atoms: N_14  and  C_15
REMARK    6  A    between atoms: C_19  and  C_20
REMARK    7  A    between atoms: C_20  and  C_21
REMARK    8  A    between atoms: C_20  and  C_23
REMARK    9  A    between atoms: C_23  and  C_26
REMARK   10  A    between atoms: N_30  and  C_31
REMARK                            x       y       z     vdW  Elec       q    Type
REMARK                         _______ _______ _______ _____ _____    ______ ____
ROOT
ATOM      1  C   UNL     1       3.771   5.685  17.846  0.00  0.00    +0.000 A 
ATOM      2  C   UNL     1       3.252   6.983  17.965  0.00  0.00    +0.000 A 
ATOM      3  C   UNL     1       2.446   7.299  19.051  0.00  0.00    +0.000 A 
ATOM      4  C   UNL     1       2.089   6.370  20.017  0.00  0.00    +0.000 A 
ATOM      5  C   UNL     1       2.548   5.067  19.928  0.00  0.00    +0.000 A 
ATOM      6  C   UNL     1       3.427   4.763  18.866  0.00  0.00    +0.000 A 
ATOM      7  C   UNL     1       1.197   7.008  21.028  0.00  0.00    +0.000 C 
ATOM      8  N   UNL     1       1.100   8.386  20.574  0.00  0.00    +0.000 N 
ATOM      9  C   UNL     1       1.809   8.581  19.385  0.00  0.00    +0.000 C 
ATOM     10  O   UNL     1       1.948   9.569  18.684  0.00  0.00    +0.000 OA
ENDROOT
BRANCH   8  11
ATOM     11  C   UNL     1       0.293   9.338  21.252  0.00  0.00    +0.000 A 
ATOM     12  C   UNL     1       0.066   9.251  22.629  0.00  0.00    +0.000 A 
ATOM     13  C   UNL     1      -0.669  10.229  23.299  0.00  0.00    +0.000 A 
ATOM     14  C   UNL     1      -1.226  11.296  22.598  0.00  0.00    +0.000 A 
ATOM     15  C   UNL     1      -1.064  11.394  21.212  0.00  0.00    +0.000 A 
ATOM     16  C   UNL     1      -0.287  10.416  20.558  0.00  0.00    +0.000 A 
BRANCH  15  17
ATOM     17  C   UNL     1      -1.718  12.518  20.400  0.00  0.00    +0.000 C 
ATOM     18  C   UNL     1      -0.680  13.105  19.432  0.00  0.00    +0.000 C 
ATOM     19  F   UNL     1      -2.721  12.035  19.584  0.00  0.00    +0.000 F 
BRANCH  17  20
ATOM     20  C   UNL     1      -2.317  13.651  21.282  0.00  0.00    +0.000 C 
ATOM     21  F   UNL     1      -1.345  14.158  22.105  0.00  0.00    +0.000 F 
ATOM     22  F   UNL     1      -2.652  14.711  20.476  0.00  0.00    +0.000 F 
BRANCH  20  23
ATOM     23  C   UNL     1      -3.514  13.269  22.091  0.00  0.00    +0.000 A 
ATOM     24  N   UNL     1      -4.511  12.466  21.762  0.00  0.00    +0.000 NA
ATOM     25  N   UNL     1      -5.394  12.417  22.813  0.00  0.00    +0.000 NA
ATOM     26  C   UNL     1      -4.929  13.195  23.761  0.00  0.00    +0.000 A 
ATOM     27  N   UNL     1      -3.758  13.753  23.353  0.00  0.00    +0.000 N 
ATOM     28  C   UNL     1      -2.957  14.681  24.108  0.00  0.00    +0.000 C 
ENDBRANCH  20  23
ENDBRANCH  17  20
ENDBRANCH  15  17
ENDBRANCH   8  11
BRANCH   5  29
ATOM     29  C   UNL     1       2.118   3.979  20.869  0.00  0.00    +0.000 C 
ATOM     30  F   UNL     1       0.772   3.768  20.883  0.00  0.00    +0.000 F 
ATOM     31  F   UNL     1       2.672   2.777  20.541  0.00  0.00    +0.000 F 
ATOM     32  F   UNL     1       2.474   4.218  22.160  0.00  0.00    +0.000 F 
ENDBRANCH   5  29
BRANCH   1  34
ATOM     33  C   UNL     1       4.326   4.039  16.087  0.00  0.00    +0.000 C 
ATOM     34  N   UNL     1       4.598   5.294  16.790  0.00  0.00    +0.000 N 
BRANCH  34  35
ATOM     35  C   UNL     1       5.910   5.987  16.597  0.00  0.00    +0.000 C 
ATOM     36  C   UNL     1       6.929   5.231  15.723  0.00  0.00    +0.000 C 
ATOM     37  N   UNL     1       7.887   4.525  16.604  0.00  0.00    +0.000 NA
ATOM     38  C   UNL     1       7.537   4.911  17.987  0.00  0.00    +0.000 C 
ATOM     39  C   UNL     1       6.706   6.176  17.887  0.00  0.00    +0.000 C 
ATOM     40  F   UNL     1       7.564   7.232  17.719  0.00  0.00    +0.000 F 
ATOM     41  H   UNL     1       8.818   4.899  16.404  0.00  0.00    +0.000 HD
ENDBRANCH  34  35
ENDBRANCH   1  34
TORSDOF 7
ENDMDL
