MODEL 1
REMARK VINA RESULT:      -9.7      0.000      0.000
REMARK  Name = 
REMARK  7 active torsions:
REMARK  status: ('A' for Active; 'I' for Inactive)
REMARK    1  A    between atoms: C_1  and  N_2
REMARK    2  A    between atoms: C_6  and  C_7
REMARK    3  A    between atoms: C_7  and  C_9
REMARK    4  A    between atoms: C_9  and  C_10
REMARK    5  A    between atoms: C_9  and  C_12
REMARK    6  A    between atoms: C_16  and  N_17
REMARK    7  A    between atoms: C_24  and  C_25
REMARK                            x       y       z     vdW  Elec       q    Type
REMARK                         _______ _______ _______ _____ _____    ______ ____
ROOT
ATOM      1  C   UNL     1       4.241   5.025  18.057  0.00  0.00    +0.000 A 
ATOM      2  C   UNL     1       4.039   3.999  18.983  0.00  0.00    +0.000 A 
ATOM      3  C   UNL     1       3.176   4.187  20.071  0.00  0.00    +0.000 A 
ATOM      4  C   UNL     1       2.482   5.396  20.252  0.00  0.00    +0.000 A 
ATOM      5  C   UNL     1       2.667   6.441  19.347  0.00  0.00    +0.000 A 
ATOM      6  C   UNL     1       3.566   6.232  18.281  0.00  0.00    +0.000 A 
ENDROOT
BRANCH   5   7
ATOM      7  N   UNL     1       1.973   7.678  19.428  0.00  0.00    +0.000 N 
ATOM      8  C   UNL     1       1.292   8.016  20.662  0.00  0.00    +0.000 C 
ATOM      9  C   UNL     1       0.793   9.391  20.445  0.00  0.00    +0.000 A 
ATOM     10  C   UNL     1       1.119   9.812  19.161  0.00  0.00    +0.000 A 
ATOM     11  C   UNL     1       0.766  11.067  18.715  0.00  0.00    +0.000 A 
ATOM     12  C   UNL     1       0.073  11.904  19.604  0.00  0.00    +0.000 A 
ATOM     13  C   UNL     1      -0.245  11.481  20.909  0.00  0.00    +0.000 A 
ATOM     14  C   UNL     1       0.117  10.200  21.355  0.00  0.00    +0.000 A 
ATOM     15  C   UNL     1       1.882   8.717  18.497  0.00  0.00    +0.000 C 
ATOM     16  O   UNL     1       2.319   8.804  17.367  0.00  0.00    +0.000 OA
BRANCH  14  17
ATOM     17  C   UNL     1      -0.197   9.738  22.759  0.00  0.00    +0.000 C 
ATOM     18  F   UNL     1       0.910   9.438  23.497  0.00  0.00    +0.000 F 
ATOM     19  F   UNL     1      -0.869  10.677  23.477  0.00  0.00    +0.000 F 
ATOM     20  F   UNL     1      -0.965   8.616  22.780  0.00  0.00    +0.000 F 
ENDBRANCH  14  17
ENDBRANCH   5   7
BRANCH   1  21
ATOM     21  C   UNL     1       5.120   4.905  16.802  0.00  0.00    +0.000 C 
ATOM     22  C   UNL     1       4.650   3.726  15.944  0.00  0.00    +0.000 C 
ATOM     23  F   UNL     1       4.955   6.021  16.010  0.00  0.00    +0.000 F 
BRANCH  21  24
ATOM     24  C   UNL     1       6.621   4.820  17.167  0.00  0.00    +0.000 C 
ATOM     25  F   UNL     1       7.300   4.206  16.150  0.00  0.00    +0.000 F 
BRANCH  24  31
ATOM     26  C   UNL     1       8.093   5.659  19.802  0.00  0.00    +0.000 C 
ATOM     27  N   UNL     1       7.856   6.491  18.653  0.00  0.00    +0.000 N 
ATOM     28  C   UNL     1       8.223   7.796  18.531  0.00  0.00    +0.000 A 
ATOM     29  N   UNL     1       7.896   8.233  17.340  0.00  0.00    +0.000 NA
ATOM     30  N   UNL     1       7.272   7.203  16.677  0.00  0.00    +0.000 NA
ATOM     31  C   UNL     1       7.240   6.151  17.473  0.00  0.00    +0.000 A 
ENDBRANCH  24  31
ENDBRANCH  21  24
ENDBRANCH   1  21
TORSDOF 5
ENDMDL
MODEL 2
REMARK VINA RESULT:      -9.3      1.672      2.599
REMARK  Name = 
REMARK  7 active torsions:
REMARK  status: ('A' for Active; 'I' for Inactive)
REMARK    1  A    between atoms: C_1  and  N_2
REMARK    2  A    between atoms: C_6  and  C_7
REMARK    3  A    between atoms: C_7  and  C_9
REMARK    4  A    between atoms: C_9  and  C_10
REMARK    5  A    between atoms: C_9  and  C_12
REMARK    6  A    between atoms: C_16  and  N_17
REMARK    7  A    between atoms: C_24  and  C_25
REMARK                            x       y       z     vdW  Elec       q    Type
REMARK                         _______ _______ _______ _____ _____    ______ ____
ROOT
ATOM      1  C   UNL     1       5.042   4.946  18.287  0.00  0.00    +0.000 A 
ATOM      2  C   UNL     1       4.671   3.814  19.017  0.00  0.00    +0.000 A 
ATOM      3  C   UNL     1       3.543   3.846  19.849  0.00  0.00    +0.000 A 
ATOM      4  C   UNL     1       2.749   5.001  19.959  0.00  0.00    +0.000 A 
ATOM      5  C   UNL     1       3.096   6.149  19.246  0.00  0.00    +0.000 A 
ATOM      6  C   UNL     1       4.255   6.095  18.444  0.00  0.00    +0.000 A 
ENDROOT
BRANCH   5   7
ATOM      7  N   UNL     1       2.327   7.342  19.264  0.00  0.00    +0.000 N 
ATOM      8  C   UNL     1       1.646   7.715  20.488  0.00  0.00    +0.000 C 
ATOM      9  C   UNL     1       1.058   9.040  20.196  0.00  0.00    +0.000 A 
ATOM     10  C   UNL     1       1.334   9.398  18.881  0.00  0.00    +0.000 A 
ATOM     11  C   UNL     1       0.895  10.596  18.364  0.00  0.00    +0.000 A 
ATOM     12  C   UNL     1       0.166  11.444  19.213  0.00  0.00    +0.000 A 
ATOM     13  C   UNL     1      -0.103  11.086  20.548  0.00  0.00    +0.000 A 
ATOM     14  C   UNL     1       0.347   9.862  21.067  0.00  0.00    +0.000 A 
ATOM     15  C   UNL     1       2.154   8.311  18.271  0.00  0.00    +0.000 C 
ATOM     16  O   UNL     1       2.566   8.354  17.129  0.00  0.00    +0.000 OA
BRANCH  14  17
ATOM     17  C   UNL     1       0.086   9.472  22.503  0.00  0.00    +0.000 C 
ATOM     18  F   UNL     1       1.216   9.150  23.196  0.00  0.00    +0.000 F 
ATOM     19  F   UNL     1      -0.504  10.470  23.214  0.00  0.00    +0.000 F 
ATOM     20  F   UNL     1      -0.730   8.390  22.611  0.00  0.00    +0.000 F 
ENDBRANCH  14  17
ENDBRANCH   5   7
BRANCH   1  21
ATOM     21  C   UNL     1       6.224   5.003  17.308  0.00  0.00    +0.000 C 
ATOM     22  C   UNL     1       6.688   6.452  17.130  0.00  0.00    +0.000 C 
ATOM     23  F   UNL     1       7.305   4.337  17.844  0.00  0.00    +0.000 F 
BRANCH  21  24
ATOM     24  C   UNL     1       5.881   4.314  15.966  0.00  0.00    +0.000 C 
ATOM     25  F   UNL     1       4.566   4.541  15.663  0.00  0.00    +0.000 F 
BRANCH  24  31
ATOM     26  C   UNL     1       5.627   3.476  12.958  0.00  0.00    +0.000 C 
ATOM     27  N   UNL     1       6.629   4.340  13.523  0.00  0.00    +0.000 N 
ATOM     28  C   UNL     1       7.648   4.925  12.836  0.00  0.00    +0.000 A 
ATOM     29  N   UNL     1       8.343   5.682  13.648  0.00  0.00    +0.000 NA
ATOM     30  N   UNL     1       7.789   5.569  14.900  0.00  0.00    +0.000 NA
ATOM     31  C   UNL     1       6.755   4.750  14.828  0.00  0.00    +0.000 A 
ENDBRANCH  24  31
ENDBRANCH  21  24
ENDBRANCH   1  21
TORSDOF 5
ENDMDL
MODEL 3
REMARK VINA RESULT:      -8.9      1.841      2.738
REMARK  Name = 
REMARK  7 active torsions:
REMARK  status: ('A' for Active; 'I' for Inactive)
REMARK    1  A    between atoms: C_1  and  N_2
REMARK    2  A    between atoms: C_6  and  C_7
REMARK    3  A    between atoms: C_7  and  C_9
REMARK    4  A    between atoms: C_9  and  C_10
REMARK    5  A    between atoms: C_9  and  C_12
REMARK    6  A    between atoms: C_16  and  N_17
REMARK    7  A    between atoms: C_24  and  C_25
REMARK                            x       y       z     vdW  Elec       q    Type
REMARK                         _______ _______ _______ _____ _____    ______ ____
ROOT
ATOM      1  C   UNL     1       4.613   5.892  17.688  0.00  0.00    +0.000 A 
ATOM      2  C   UNL     1       4.482   4.723  18.441  0.00  0.00    +0.000 A 
ATOM      3  C   UNL     1       3.530   4.646  19.467  0.00  0.00    +0.000 A 
ATOM      4  C   UNL     1       2.676   5.725  19.754  0.00  0.00    +0.000 A 
ATOM      5  C   UNL     1       2.786   6.907  19.023  0.00  0.00    +0.000 A 
ATOM      6  C   UNL     1       3.775   6.965  18.019  0.00  0.00    +0.000 A 
ENDROOT
BRANCH   5   7
ATOM      7  N   UNL     1       1.936   8.028  19.216  0.00  0.00    +0.000 N 
ATOM      8  C   UNL     1       1.287   8.199  20.500  0.00  0.00    +0.000 C 
ATOM      9  C   UNL     1       0.593   9.500  20.395  0.00  0.00    +0.000 A 
ATOM     10  C   UNL     1       0.783  10.033  19.125  0.00  0.00    +0.000 A 
ATOM     11  C   UNL     1       0.236  11.248  18.777  0.00  0.00    +0.000 A 
ATOM     12  C   UNL     1      -0.511  11.930  19.750  0.00  0.00    +0.000 A 
ATOM     13  C   UNL     1      -0.692  11.396  21.040  0.00  0.00    +0.000 A 
ATOM     14  C   UNL     1      -0.133  10.156  21.386  0.00  0.00    +0.000 A 
ATOM     15  C   UNL     1       1.649   9.093  18.356  0.00  0.00    +0.000 C 
ATOM     16  O   UNL     1       2.004   9.303  17.214  0.00  0.00    +0.000 OA
BRANCH  14  17
ATOM     17  C   UNL     1      -0.299   9.578  22.772  0.00  0.00    +0.000 C 
ATOM     18  F   UNL     1      -1.032  10.366  23.610  0.00  0.00    +0.000 F 
ATOM     19  F   UNL     1      -0.931   8.374  22.762  0.00  0.00    +0.000 F 
ATOM     20  F   UNL     1       0.890   9.382  23.403  0.00  0.00    +0.000 F 
ENDBRANCH  14  17
ENDBRANCH   5   7
BRANCH   1  21
ATOM     21  C   UNL     1       5.583   6.064  16.508  0.00  0.00    +0.000 C 
ATOM     22  C   UNL     1       5.052   7.129  15.544  0.00  0.00    +0.000 C 
ATOM     23  F   UNL     1       6.788   6.554  16.964  0.00  0.00    +0.000 F 
BRANCH  21  24
ATOM     24  C   UNL     1       5.871   4.714  15.810  0.00  0.00    +0.000 C 
ATOM     25  F   UNL     1       4.687   4.106  15.493  0.00  0.00    +0.000 F 
BRANCH  24  31
ATOM     26  C   UNL     1       5.364   3.425  13.001  0.00  0.00    +0.000 C 
ATOM     27  N   UNL     1       6.488   4.239  13.377  0.00  0.00    +0.000 N 
ATOM     28  C   UNL     1       7.531   4.571  12.568  0.00  0.00    +0.000 A 
ATOM     29  N   UNL     1       8.351   5.361  13.215  0.00  0.00    +0.000 NA
ATOM     30  N   UNL     1       7.854   5.528  14.485  0.00  0.00    +0.000 NA
ATOM     31  C   UNL     1       6.730   4.843  14.587  0.00  0.00    +0.000 A 
ENDBRANCH  24  31
ENDBRANCH  21  24
ENDBRANCH   1  21
TORSDOF 5
ENDMDL
MODEL 4
REMARK VINA RESULT:      -8.8      1.385      2.472
REMARK  Name = 
REMARK  7 active torsions:
REMARK  status: ('A' for Active; 'I' for Inactive)
REMARK    1  A    between atoms: C_1  and  N_2
REMARK    2  A    between atoms: C_6  and  C_7
REMARK    3  A    between atoms: C_7  and  C_9
REMARK    4  A    between atoms: C_9  and  C_10
REMARK    5  A    between atoms: C_9  and  C_12
REMARK    6  A    between atoms: C_16  and  N_17
REMARK    7  A    between atoms: C_24  and  C_25
REMARK                            x       y       z     vdW  Elec       q    Type
REMARK                         _______ _______ _______ _____ _____    ______ ____
ROOT
ATOM      1  C   UNL     1       4.472   5.052  18.768  0.00  0.00    +0.000 A 
ATOM      2  C   UNL     1       3.961   3.924  19.413  0.00  0.00    +0.000 A 
ATOM      3  C   UNL     1       2.777   4.010  20.158  0.00  0.00    +0.000 A 
ATOM      4  C   UNL     1       2.067   5.218  20.264  0.00  0.00    +0.000 A 
ATOM      5  C   UNL     1       2.554   6.364  19.635  0.00  0.00    +0.000 A 
ATOM      6  C   UNL     1       3.765   6.252  18.920  0.00  0.00    +0.000 A 
ENDROOT
BRANCH   5   7
ATOM      7  N   UNL     1       1.879   7.613  19.653  0.00  0.00    +0.000 N 
ATOM      8  C   UNL     1       1.171   8.006  20.854  0.00  0.00    +0.000 C 
ATOM      9  C   UNL     1       0.700   9.380  20.574  0.00  0.00    +0.000 A 
ATOM     10  C   UNL     1       1.066   9.748  19.285  0.00  0.00    +0.000 A 
ATOM     11  C   UNL     1       0.745  10.991  18.784  0.00  0.00    +0.000 A 
ATOM     12  C   UNL     1       0.043  11.871  19.623  0.00  0.00    +0.000 A 
ATOM     13  C   UNL     1      -0.316  11.501  20.933  0.00  0.00    +0.000 A 
ATOM     14  C   UNL     1       0.014  10.232  21.435  0.00  0.00    +0.000 A 
ATOM     15  C   UNL     1       1.829   8.618  18.681  0.00  0.00    +0.000 C 
ATOM     16  O   UNL     1       2.297   8.657  17.561  0.00  0.00    +0.000 OA
BRANCH  14  17
ATOM     17  C   UNL     1      -0.344   9.827  22.846  0.00  0.00    +0.000 C 
ATOM     18  F   UNL     1      -1.058  10.772  23.523  0.00  0.00    +0.000 F 
ATOM     19  F   UNL     1      -1.105   8.700  22.887  0.00  0.00    +0.000 F 
ATOM     20  F   UNL     1       0.751   9.579  23.613  0.00  0.00    +0.000 F 
ENDBRANCH  14  17
ENDBRANCH   5   7
BRANCH   1  21
ATOM     21  C   UNL     1       5.728   5.055  17.883  0.00  0.00    +0.000 C 
ATOM     22  C   UNL     1       6.952   5.461  18.711  0.00  0.00    +0.000 C 
ATOM     23  F   UNL     1       5.993   3.776  17.445  0.00  0.00    +0.000 F 
BRANCH  21  24
ATOM     24  C   UNL     1       5.535   5.939  16.628  0.00  0.00    +0.000 C 
ATOM     25  F   UNL     1       5.765   7.247  16.956  0.00  0.00    +0.000 F 
BRANCH  24  31
ATOM     26  C   UNL     1       4.761   4.044  14.256  0.00  0.00    +0.000 C 
ATOM     27  N   UNL     1       6.035   4.680  14.462  0.00  0.00    +0.000 N 
ATOM     28  C   UNL     1       7.125   4.546  13.658  0.00  0.00    +0.000 A 
ATOM     29  N   UNL     1       8.097   5.298  14.112  0.00  0.00    +0.000 NA
ATOM     30  N   UNL     1       7.647   5.916  15.254  0.00  0.00    +0.000 NA
ATOM     31  C   UNL     1       6.401   5.536  15.472  0.00  0.00    +0.000 A 
ENDBRANCH  24  31
ENDBRANCH  21  24
ENDBRANCH   1  21
TORSDOF 5
ENDMDL
MODEL 5
REMARK VINA RESULT:      -8.8      2.316      3.136
REMARK  Name = 
REMARK  7 active torsions:
REMARK  status: ('A' for Active; 'I' for Inactive)
REMARK    1  A    between atoms: C_1  and  N_2
REMARK    2  A    between atoms: C_6  and  C_7
REMARK    3  A    between atoms: C_7  and  C_9
REMARK    4  A    between atoms: C_9  and  C_10
REMARK    5  A    between atoms: C_9  and  C_12
REMARK    6  A    between atoms: C_16  and  N_17
REMARK    7  A    between atoms: C_24  and  C_25
REMARK                            x       y       z     vdW  Elec       q    Type
REMARK                         _______ _______ _______ _____ _____    ______ ____
ROOT
ATOM      1  C   UNL     1       4.562   4.540  16.594  0.00  0.00    +0.000 A 
ATOM      2  C   UNL     1       4.155   3.210  16.720  0.00  0.00    +0.000 A 
ATOM      3  C   UNL     1       3.213   2.847  17.692  0.00  0.00    +0.000 A 
ATOM      4  C   UNL     1       2.643   3.804  18.549  0.00  0.00    +0.000 A 
ATOM      5  C   UNL     1       3.032   5.140  18.451  0.00  0.00    +0.000 A 
ATOM      6  C   UNL     1       4.005   5.467  17.485  0.00  0.00    +0.000 A 
ENDROOT
BRANCH   5   7
ATOM      7  N   UNL     1       2.475   6.177  19.245  0.00  0.00    +0.000 N 
ATOM      8  C   UNL     1       2.267   7.480  18.645  0.00  0.00    +0.000 C 
ATOM      9  C   UNL     1       1.576   8.264  19.691  0.00  0.00    +0.000 A 
ATOM     10  C   UNL     1       1.429   7.491  20.837  0.00  0.00    +0.000 A 
ATOM     11  C   UNL     1       0.809   7.997  21.959  0.00  0.00    +0.000 A 
ATOM     12  C   UNL     1       0.326   9.314  21.899  0.00  0.00    +0.000 A 
ATOM     13  C   UNL     1       0.464  10.091  20.733  0.00  0.00    +0.000 A 
ATOM     14  C   UNL     1       1.099   9.569  19.595  0.00  0.00    +0.000 A 
ATOM     15  C   UNL     1       2.003   6.143  20.561  0.00  0.00    +0.000 C 
ATOM     16  O   UNL     1       2.001   5.242  21.376  0.00  0.00    +0.000 OA
BRANCH  14  17
ATOM     17  C   UNL     1       1.236  10.380  18.329  0.00  0.00    +0.000 C 
ATOM     18  F   UNL     1       0.589   9.838  17.258  0.00  0.00    +0.000 F 
ATOM     19  F   UNL     1       0.732  11.637  18.459  0.00  0.00    +0.000 F 
ATOM     20  F   UNL     1       2.530  10.525  17.937  0.00  0.00    +0.000 F 
ENDBRANCH  14  17
ENDBRANCH   5   7
BRANCH   1  21
ATOM     21  C   UNL     1       5.544   5.054  15.530  0.00  0.00    +0.000 C 
ATOM     22  C   UNL     1       5.199   4.452  14.164  0.00  0.00    +0.000 C 
ATOM     23  F   UNL     1       5.393   6.416  15.375  0.00  0.00    +0.000 F 
BRANCH  21  24
ATOM     24  C   UNL     1       7.013   4.799  15.943  0.00  0.00    +0.000 C 
ATOM     25  F   UNL     1       7.846   5.465  15.087  0.00  0.00    +0.000 F 
BRANCH  24  31
ATOM     26  C   UNL     1       7.500   7.687  17.053  0.00  0.00    +0.000 C 
ATOM     27  N   UNL     1       7.547   6.463  17.806  0.00  0.00    +0.000 N 
ATOM     28  C   UNL     1       7.829   6.361  19.134  0.00  0.00    +0.000 A 
ATOM     29  N   UNL     1       7.739   5.108  19.504  0.00  0.00    +0.000 NA
ATOM     30  N   UNL     1       7.421   4.367  18.391  0.00  0.00    +0.000 NA
ATOM     31  C   UNL     1       7.312   5.185  17.361  0.00  0.00    +0.000 A 
ENDBRANCH  24  31
ENDBRANCH  21  24
ENDBRANCH   1  21
TORSDOF 5
ENDMDL
MODEL 6
REMARK VINA RESULT:      -8.8      2.206      2.779
REMARK  Name = 
REMARK  7 active torsions:
REMARK  status: ('A' for Active; 'I' for Inactive)
REMARK    1  A    between atoms: C_1  and  N_2
REMARK    2  A    between atoms: C_6  and  C_7
REMARK    3  A    between atoms: C_7  and  C_9
REMARK    4  A    between atoms: C_9  and  C_10
REMARK    5  A    between atoms: C_9  and  C_12
REMARK    6  A    between atoms: C_16  and  N_17
REMARK    7  A    between atoms: C_24  and  C_25
REMARK                            x       y       z     vdW  Elec       q    Type
REMARK                         _______ _______ _______ _____ _____    ______ ____
ROOT
ATOM      1  C   UNL     1       4.270   4.697  16.761  0.00  0.00    +0.000 A 
ATOM      2  C   UNL     1       3.554   3.504  16.651  0.00  0.00    +0.000 A 
ATOM      3  C   UNL     1       2.401   3.296  17.421  0.00  0.00    +0.000 A 
ATOM      4  C   UNL     1       1.928   4.280  18.307  0.00  0.00    +0.000 A 
ATOM      5  C   UNL     1       2.624   5.481  18.443  0.00  0.00    +0.000 A 
ATOM      6  C   UNL     1       3.798   5.646  17.678  0.00  0.00    +0.000 A 
ENDROOT
BRANCH   5   7
ATOM      7  N   UNL     1       2.193   6.545  19.278  0.00  0.00    +0.000 N 
ATOM      8  C   UNL     1       1.984   7.853  18.690  0.00  0.00    +0.000 C 
ATOM      9  C   UNL     1       1.433   8.671  19.792  0.00  0.00    +0.000 A 
ATOM     10  C   UNL     1       1.367   7.911  20.954  0.00  0.00    +0.000 A 
ATOM     11  C   UNL     1       0.883   8.448  22.126  0.00  0.00    +0.000 A 
ATOM     12  C   UNL     1       0.453   9.784  22.103  0.00  0.00    +0.000 A 
ATOM     13  C   UNL     1       0.509  10.549  20.922  0.00  0.00    +0.000 A 
ATOM     14  C   UNL     1       1.005   9.995  19.732  0.00  0.00    +0.000 A 
ATOM     15  C   UNL     1       1.853   6.538  20.634  0.00  0.00    +0.000 C 
ATOM     16  O   UNL     1       1.892   5.641  21.453  0.00  0.00    +0.000 OA
BRANCH  14  17
ATOM     17  C   UNL     1       1.052  10.794  18.451  0.00  0.00    +0.000 C 
ATOM     18  F   UNL     1       2.293  10.857  17.889  0.00  0.00    +0.000 F 
ATOM     19  F   UNL     1       0.242  10.280  17.487  0.00  0.00    +0.000 F 
ATOM     20  F   UNL     1       0.666  12.087  18.627  0.00  0.00    +0.000 F 
ENDBRANCH  14  17
ENDBRANCH   5   7
BRANCH   1  21
ATOM     21  C   UNL     1       5.512   5.048  15.926  0.00  0.00    +0.000 C 
ATOM     22  C   UNL     1       5.519   4.232  14.630  0.00  0.00    +0.000 C 
ATOM     23  F   UNL     1       5.446   6.366  15.526  0.00  0.00    +0.000 F 
BRANCH  21  24
ATOM     24  C   UNL     1       6.812   4.882  16.747  0.00  0.00    +0.000 C 
ATOM     25  F   UNL     1       7.744   4.224  15.990  0.00  0.00    +0.000 F 
BRANCH  24  31
ATOM     26  C   UNL     1       7.692   5.554  19.677  0.00  0.00    +0.000 C 
ATOM     27  N   UNL     1       7.726   6.445  18.549  0.00  0.00    +0.000 N 
ATOM     28  C   UNL     1       8.137   7.743  18.577  0.00  0.00    +0.000 A 
ATOM     29  N   UNL     1       8.084   8.244  17.368  0.00  0.00    +0.000 NA
ATOM     30  N   UNL     1       7.600   7.265  16.533  0.00  0.00    +0.000 NA
ATOM     31  C   UNL     1       7.376   6.178  17.247  0.00  0.00    +0.000 A 
ENDBRANCH  24  31
ENDBRANCH  21  24
ENDBRANCH   1  21
TORSDOF 5
ENDMDL
MODEL 7
REMARK VINA RESULT:      -8.7      0.754      1.421
REMARK  Name = 
REMARK  7 active torsions:
REMARK  status: ('A' for Active; 'I' for Inactive)
REMARK    1  A    between atoms: C_1  and  N_2
REMARK    2  A    between atoms: C_6  and  C_7
REMARK    3  A    between atoms: C_7  and  C_9
REMARK    4  A    between atoms: C_9  and  C_10
REMARK    5  A    between atoms: C_9  and  C_12
REMARK    6  A    between atoms: C_16  and  N_17
REMARK    7  A    between atoms: C_24  and  C_25
REMARK                            x       y       z     vdW  Elec       q    Type
REMARK                         _______ _______ _______ _____ _____    ______ ____
ROOT
ATOM      1  C   UNL     1       4.328   5.236  17.522  0.00  0.00    +0.000 A 
ATOM      2  C   UNL     1       4.101   4.120  18.331  0.00  0.00    +0.000 A 
ATOM      3  C   UNL     1       3.223   4.203  19.420  0.00  0.00    +0.000 A 
ATOM      4  C   UNL     1       2.537   5.393  19.717  0.00  0.00    +0.000 A 
ATOM      5  C   UNL     1       2.746   6.526  18.930  0.00  0.00    +0.000 A 
ATOM      6  C   UNL     1       3.661   6.420  17.862  0.00  0.00    +0.000 A 
ENDROOT
BRANCH   5   7
ATOM      7  N   UNL     1       2.063   7.754  19.131  0.00  0.00    +0.000 N 
ATOM      8  C   UNL     1       1.417   7.994  20.406  0.00  0.00    +0.000 C 
ATOM      9  C   UNL     1       0.922   9.384  20.317  0.00  0.00    +0.000 A 
ATOM     10  C   UNL     1       1.215   9.907  19.063  0.00  0.00    +0.000 A 
ATOM     11  C   UNL     1       0.858  11.195  18.730  0.00  0.00    +0.000 A 
ATOM     12  C   UNL     1       0.196  11.960  19.703  0.00  0.00    +0.000 A 
ATOM     13  C   UNL     1      -0.090  11.433  20.977  0.00  0.00    +0.000 A 
ATOM     14  C   UNL     1       0.276  10.119  21.307  0.00  0.00    +0.000 A 
ATOM     15  C   UNL     1       1.953   8.866  18.290  0.00  0.00    +0.000 C 
ATOM     16  O   UNL     1       2.360   9.044  17.160  0.00  0.00    +0.000 OA
BRANCH  14  17
ATOM     17  C   UNL     1      -0.003   9.545  22.677  0.00  0.00    +0.000 C 
ATOM     18  F   UNL     1      -0.765   8.414  22.652  0.00  0.00    +0.000 F 
ATOM     19  F   UNL     1       1.134   9.201  23.339  0.00  0.00    +0.000 F 
ATOM     20  F   UNL     1      -0.668  10.415  23.483  0.00  0.00    +0.000 F 
ENDBRANCH  14  17
ENDBRANCH   5   7
BRANCH   1  21
ATOM     21  C   UNL     1       5.226   5.239  16.275  0.00  0.00    +0.000 C 
ATOM     22  C   UNL     1       4.584   4.402  15.164  0.00  0.00    +0.000 C 
ATOM     23  F   UNL     1       5.309   6.517  15.765  0.00  0.00    +0.000 F 
BRANCH  21  24
ATOM     24  C   UNL     1       6.666   4.785  16.612  0.00  0.00    +0.000 C 
ATOM     25  F   UNL     1       7.511   5.179  15.610  0.00  0.00    +0.000 F 
BRANCH  24  31
ATOM     26  C   UNL     1       7.661   7.679  17.277  0.00  0.00    +0.000 C 
ATOM     27  N   UNL     1       7.615   6.563  18.181  0.00  0.00    +0.000 N 
ATOM     28  C   UNL     1       8.015   6.580  19.482  0.00  0.00    +0.000 A 
ATOM     29  N   UNL     1       7.790   5.410  20.025  0.00  0.00    +0.000 NA
ATOM     30  N   UNL     1       7.260   4.596  19.053  0.00  0.00    +0.000 NA
ATOM     31  C   UNL     1       7.160   5.290  17.934  0.00  0.00    +0.000 A 
ENDBRANCH  24  31
ENDBRANCH  21  24
ENDBRANCH   1  21
TORSDOF 5
ENDMDL
MODEL 8
REMARK VINA RESULT:      -8.7      1.562      2.524
REMARK  Name = 
REMARK  7 active torsions:
REMARK  status: ('A' for Active; 'I' for Inactive)
REMARK    1  A    between atoms: C_1  and  N_2
REMARK    2  A    between atoms: C_6  and  C_7
REMARK    3  A    between atoms: C_7  and  C_9
REMARK    4  A    between atoms: C_9  and  C_10
REMARK    5  A    between atoms: C_9  and  C_12
REMARK    6  A    between atoms: C_16  and  N_17
REMARK    7  A    between atoms: C_24  and  C_25
REMARK                            x       y       z     vdW  Elec       q    Type
REMARK                         _______ _______ _______ _____ _____    ______ ____
ROOT
ATOM      1  C   UNL     1       5.222   5.086  19.087  0.00  0.00    +0.000 A 
ATOM      2  C   UNL     1       4.628   3.845  19.329  0.00  0.00    +0.000 A 
ATOM      3  C   UNL     1       3.262   3.760  19.630  0.00  0.00    +0.000 A 
ATOM      4  C   UNL     1       2.453   4.909  19.681  0.00  0.00    +0.000 A 
ATOM      5  C   UNL     1       3.017   6.163  19.448  0.00  0.00    +0.000 A 
ATOM      6  C   UNL     1       4.401   6.217  19.180  0.00  0.00    +0.000 A 
ENDROOT
BRANCH   5   7
ATOM      7  N   UNL     1       2.267   7.368  19.435  0.00  0.00    +0.000 N 
ATOM      8  C   UNL     1       1.539   7.750  20.629  0.00  0.00    +0.000 C 
ATOM      9  C   UNL     1       0.984   9.084  20.315  0.00  0.00    +0.000 A 
ATOM     10  C   UNL     1       1.323   9.440  19.014  0.00  0.00    +0.000 A 
ATOM     11  C   UNL     1       0.925  10.646  18.481  0.00  0.00    +0.000 A 
ATOM     12  C   UNL     1       0.173  11.504  19.300  0.00  0.00    +0.000 A 
ATOM     13  C   UNL     1      -0.159  11.148  20.621  0.00  0.00    +0.000 A 
ATOM     14  C   UNL     1       0.249   9.916  21.156  0.00  0.00    +0.000 A 
ATOM     15  C   UNL     1       2.152   8.342  18.438  0.00  0.00    +0.000 C 
ATOM     16  O   UNL     1       2.614   8.379  17.315  0.00  0.00    +0.000 OA
BRANCH  14  17
ATOM     17  C   UNL     1      -0.079   9.528  22.578  0.00  0.00    +0.000 C 
ATOM     18  F   UNL     1      -0.878   8.427  22.675  0.00  0.00    +0.000 F 
ATOM     19  F   UNL     1       1.031   9.236  23.308  0.00  0.00    +0.000 F 
ATOM     20  F   UNL     1      -0.733  10.513  23.251  0.00  0.00    +0.000 F 
ENDBRANCH  14  17
ENDBRANCH   5   7
BRANCH   1  21
ATOM     21  C   UNL     1       6.694   5.285  18.696  0.00  0.00    +0.000 C 
ATOM     22  C   UNL     1       7.510   5.707  19.922  0.00  0.00    +0.000 C 
ATOM     23  F   UNL     1       7.236   4.084  18.293  0.00  0.00    +0.000 F 
BRANCH  21  24
ATOM     24  C   UNL     1       6.838   6.272  17.513  0.00  0.00    +0.000 C 
ATOM     25  F   UNL     1       8.033   6.930  17.615  0.00  0.00    +0.000 F 
BRANCH  24  31
ATOM     26  C   UNL     1       4.619   6.767  15.358  0.00  0.00    +0.000 C 
ATOM     27  N   UNL     1       5.716   5.843  15.259  0.00  0.00    +0.000 N 
ATOM     28  C   UNL     1       5.960   5.013  14.207  0.00  0.00    +0.000 A 
ATOM     29  N   UNL     1       7.063   4.343  14.426  0.00  0.00    +0.000 NA
ATOM     30  N   UNL     1       7.540   4.717  15.659  0.00  0.00    +0.000 NA
ATOM     31  C   UNL     1       6.720   5.619  16.169  0.00  0.00    +0.000 A 
ENDBRANCH  24  31
ENDBRANCH  21  24
ENDBRANCH   1  21
TORSDOF 5
ENDMDL
MODEL 9
REMARK VINA RESULT:      -8.6      3.627      8.443
REMARK  Name = 
REMARK  7 active torsions:
REMARK  status: ('A' for Active; 'I' for Inactive)
REMARK    1  A    between atoms: C_1  and  N_2
REMARK    2  A    between atoms: C_6  and  C_7
REMARK    3  A    between atoms: C_7  and  C_9
REMARK    4  A    between atoms: C_9  and  C_10
REMARK    5  A    between atoms: C_9  and  C_12
REMARK    6  A    between atoms: C_16  and  N_17
REMARK    7  A    between atoms: C_24  and  C_25
REMARK                            x       y       z     vdW  Elec       q    Type
REMARK                         _______ _______ _______ _____ _____    ______ ____
ROOT
ATOM      1  C   UNL     1      -0.461  10.756  20.289  0.00  0.00    +0.000 A 
ATOM      2  C   UNL     1      -0.439  10.950  21.671  0.00  0.00    +0.000 A 
ATOM      3  C   UNL     1       0.272  10.069  22.499  0.00  0.00    +0.000 A 
ATOM      4  C   UNL     1       0.991   8.986  21.965  0.00  0.00    +0.000 A 
ATOM      5  C   UNL     1       0.985   8.763  20.588  0.00  0.00    +0.000 A 
ATOM      6  C   UNL     1       0.234   9.648  19.786  0.00  0.00    +0.000 A 
ENDROOT
BRANCH   5   7
ATOM      7  N   UNL     1       1.718   7.722  19.961  0.00  0.00    +0.000 N 
ATOM      8  C   UNL     1       1.649   6.386  20.519  0.00  0.00    +0.000 C 
ATOM      9  C   UNL     1       2.413   5.547  19.570  0.00  0.00    +0.000 A 
ATOM     10  C   UNL     1       2.932   6.341  18.554  0.00  0.00    +0.000 A 
ATOM     11  C   UNL     1       3.683   5.793  17.538  0.00  0.00    +0.000 A 
ATOM     12  C   UNL     1       3.900   4.406  17.563  0.00  0.00    +0.000 A 
ATOM     13  C   UNL     1       3.363   3.601  18.587  0.00  0.00    +0.000 A 
ATOM     14  C   UNL     1       2.600   4.168  19.619  0.00  0.00    +0.000 A 
ATOM     15  C   UNL     1       2.489   7.745  18.794  0.00  0.00    +0.000 C 
ATOM     16  O   UNL     1       2.773   8.665  18.055  0.00  0.00    +0.000 OA
BRANCH  14  17
ATOM     17  C   UNL     1       1.999   3.317  20.712  0.00  0.00    +0.000 C 
ATOM     18  F   UNL     1       2.506   3.577  21.951  0.00  0.00    +0.000 F 
ATOM     19  F   UNL     1       0.655   3.489  20.827  0.00  0.00    +0.000 F 
ATOM     20  F   UNL     1       2.199   1.987  20.509  0.00  0.00    +0.000 F 
ENDBRANCH  14  17
ENDBRANCH   5   7
BRANCH   1  21
ATOM     21  C   UNL     1      -1.161  11.690  19.289  0.00  0.00    +0.000 C 
ATOM     22  C   UNL     1      -1.120  13.132  19.802  0.00  0.00    +0.000 C 
ATOM     23  F   UNL     1      -0.463  11.706  18.100  0.00  0.00    +0.000 F 
BRANCH  21  24
ATOM     24  C   UNL     1      -2.596  11.207  18.972  0.00  0.00    +0.000 C 
ATOM     25  F   UNL     1      -3.489  12.182  19.325  0.00  0.00    +0.000 F 
BRANCH  24  31
ATOM     26  C   UNL     1      -4.989  12.002  17.114  0.00  0.00    +0.000 C 
ATOM     27  N   UNL     1      -3.874  11.165  16.761  0.00  0.00    +0.000 N 
ATOM     28  C   UNL     1      -3.685  10.565  15.554  0.00  0.00    +0.000 A 
ATOM     29  N   UNL     1      -2.546   9.917  15.561  0.00  0.00    +0.000 NA
ATOM     30  N   UNL     1      -1.989  10.070  16.808  0.00  0.00    +0.000 NA
ATOM     31  C   UNL     1      -2.795  10.818  17.538  0.00  0.00    +0.000 A 
ENDBRANCH  24  31
ENDBRANCH  21  24
ENDBRANCH   1  21
TORSDOF 5
ENDMDL
