MODEL 1
REMARK VINA RESULT:      -8.9      0.000      0.000
REMARK  Name = 
REMARK  8 active torsions:
REMARK  status: ('A' for Active; 'I' for Inactive)
REMARK    1  A    between atoms: C_1  and  C_2
REMARK    2  A    between atoms: C_2  and  S_3
REMARK    3  A    between atoms: C_2  and  C_10
REMARK    4  A    between atoms: S_3  and  C_4
REMARK    5  A    between atoms: N_8  and  C_9
REMARK    6  A    between atoms: C_14  and  N_15
REMARK    7  A    between atoms: C_18  and  C_19
REMARK    8  A    between atoms: C_23  and  C_24
REMARK                            x       y       z     vdW  Elec       q    Type
REMARK                         _______ _______ _______ _____ _____    ______ ____
ROOT
ATOM      1  N   UNL     1       1.381   9.034  19.573  0.00  0.00    +0.000 N 
ATOM      2  N   UNL     1       1.372   9.712  18.393  0.00  0.00    +0.000 NA
ATOM      3  C   UNL     1       2.121   8.928  17.618  0.00  0.00    +0.000 A 
ATOM      4  C   UNL     1       2.556   7.788  18.325  0.00  0.00    +0.000 A 
ATOM      5  N   UNL     1       2.096   7.882  19.584  0.00  0.00    +0.000 NA
ENDROOT
BRANCH   1  10
ATOM      6  C   UNL     1      -0.952  11.014  21.737  0.00  0.00    +0.000 A 
ATOM      7  C   UNL     1      -0.720  10.372  22.963  0.00  0.00    +0.000 A 
ATOM      8  C   UNL     1       0.229   9.353  23.082  0.00  0.00    +0.000 A 
ATOM      9  C   UNL     1       0.939   8.924  21.966  0.00  0.00    +0.000 A 
ATOM     10  C   UNL     1       0.681   9.500  20.717  0.00  0.00    +0.000 A 
ATOM     11  C   UNL     1      -0.256  10.545  20.604  0.00  0.00    +0.000 A 
BRANCH   6  13
ATOM     12  C   UNL     1      -1.548  13.160  20.444  0.00  0.00    +0.000 C 
ATOM     13  C   UNL     1      -1.857  12.235  21.625  0.00  0.00    +0.000 C 
BRANCH  13  14
ATOM     14  S   UNL     1      -2.106  13.163  23.175  0.00  0.00    +0.000 S 
BRANCH  14  15
ATOM     15  C   UNL     1      -3.761  12.906  23.579  0.00  0.00    +0.000 A 
ATOM     16  N   UNL     1      -4.259  12.086  24.474  0.00  0.00    +0.000 NA
ATOM     17  N   UNL     1      -5.631  12.111  24.351  0.00  0.00    +0.000 NA
ATOM     18  C   UNL     1      -5.926  12.970  23.402  0.00  0.00    +0.000 A 
ATOM     19  N   UNL     1      -4.783  13.562  22.953  0.00  0.00    +0.000 N 
ATOM     20  C   UNL     1      -4.707  14.669  22.039  0.00  0.00    +0.000 C 
ENDBRANCH  14  15
ENDBRANCH  13  14
ENDBRANCH   6  13
ENDBRANCH   1  10
BRANCH   4  21
ATOM     21  C   UNL     1       3.340   6.642  17.879  0.00  0.00    +0.000 A 
ATOM     22  C   UNL     1       2.792   5.352  17.929  0.00  0.00    +0.000 A 
ATOM     23  C   UNL     1       3.513   4.251  17.469  0.00  0.00    +0.000 A 
ATOM     24  C   UNL     1       4.798   4.421  16.954  0.00  0.00    +0.000 A 
ATOM     25  C   UNL     1       5.371   5.697  16.904  0.00  0.00    +0.000 A 
ATOM     26  C   UNL     1       4.634   6.801  17.367  0.00  0.00    +0.000 A 
BRANCH  25  27
ATOM     27  C   UNL     1       6.738   5.960  16.366  0.00  0.00    +0.000 C 
ATOM     28  N   UNL     1       7.495   6.936  16.947  0.00  0.00    +0.000 N 
ATOM     29  O   UNL     1       7.182   5.322  15.419  0.00  0.00    +0.000 OA
ATOM     30  H   UNL     1       7.202   7.535  17.702  0.00  0.00    +0.000 HD
ATOM     31  H   UNL     1       8.412   7.096  16.547  0.00  0.00    +0.000 HD
ENDBRANCH  25  27
ENDBRANCH   4  21
TORSDOF 6
ENDMDL
MODEL 2
REMARK VINA RESULT:      -8.7      1.725      2.169
REMARK  Name = 
REMARK  8 active torsions:
REMARK  status: ('A' for Active; 'I' for Inactive)
REMARK    1  A    between atoms: C_1  and  C_2
REMARK    2  A    between atoms: C_2  and  S_3
REMARK    3  A    between atoms: C_2  and  C_10
REMARK    4  A    between atoms: S_3  and  C_4
REMARK    5  A    between atoms: N_8  and  C_9
REMARK    6  A    between atoms: C_14  and  N_15
REMARK    7  A    between atoms: C_18  and  C_19
REMARK    8  A    between atoms: C_23  and  C_24
REMARK                            x       y       z     vdW  Elec       q    Type
REMARK                         _______ _______ _______ _____ _____    ______ ____
ROOT
ATOM      1  N   UNL     1       1.161   9.252  19.700  0.00  0.00    +0.000 N 
ATOM      2  N   UNL     1       1.186   9.954  18.535  0.00  0.00    +0.000 NA
ATOM      3  C   UNL     1       1.918   9.161  17.752  0.00  0.00    +0.000 A 
ATOM      4  C   UNL     1       2.307   7.994  18.440  0.00  0.00    +0.000 A 
ATOM      5  N   UNL     1       1.838   8.077  19.695  0.00  0.00    +0.000 NA
ENDROOT
BRANCH   1  10
ATOM      6  C   UNL     1      -1.098  11.290  21.889  0.00  0.00    +0.000 A 
ATOM      7  C   UNL     1      -0.932  10.590  23.095  0.00  0.00    +0.000 A 
ATOM      8  C   UNL     1      -0.049   9.513  23.195  0.00  0.00    +0.000 A 
ATOM      9  C   UNL     1       0.660   9.082  22.079  0.00  0.00    +0.000 A 
ATOM     10  C   UNL     1       0.464   9.717  20.847  0.00  0.00    +0.000 A 
ATOM     11  C   UNL     1      -0.407  10.820  20.754  0.00  0.00    +0.000 A 
BRANCH   6  13
ATOM     12  C   UNL     1      -1.503  13.537  20.698  0.00  0.00    +0.000 C 
ATOM     13  C   UNL     1      -1.926  12.566  21.805  0.00  0.00    +0.000 C 
BRANCH  13  14
ATOM     14  S   UNL     1      -2.206  13.418  23.393  0.00  0.00    +0.000 S 
BRANCH  14  15
ATOM     15  C   UNL     1      -3.839  13.053  23.804  0.00  0.00    +0.000 A 
ATOM     16  N   UNL     1      -4.293  12.032  24.492  0.00  0.00    +0.000 NA
ATOM     17  N   UNL     1      -5.669  12.073  24.449  0.00  0.00    +0.000 NA
ATOM     18  C   UNL     1      -6.010  13.138  23.760  0.00  0.00    +0.000 A 
ATOM     19  N   UNL     1      -4.890  13.834  23.415  0.00  0.00    +0.000 N 
ATOM     20  C   UNL     1      -4.858  15.134  22.802  0.00  0.00    +0.000 C 
ENDBRANCH  14  15
ENDBRANCH  13  14
ENDBRANCH   6  13
ENDBRANCH   1  10
BRANCH   4  21
ATOM     21  C   UNL     1       3.059   6.832  17.978  0.00  0.00    +0.000 A 
ATOM     22  C   UNL     1       4.269   7.004  17.291  0.00  0.00    +0.000 A 
ATOM     23  C   UNL     1       5.019   5.904  16.877  0.00  0.00    +0.000 A 
ATOM     24  C   UNL     1       4.568   4.610  17.141  0.00  0.00    +0.000 A 
ATOM     25  C   UNL     1       3.359   4.412  17.816  0.00  0.00    +0.000 A 
ATOM     26  C   UNL     1       2.611   5.528  18.231  0.00  0.00    +0.000 A 
BRANCH  25  27
ATOM     27  C   UNL     1       2.811   3.062  18.137  0.00  0.00    +0.000 C 
ATOM     28  N   UNL     1       3.179   2.465  19.308  0.00  0.00    +0.000 N 
ATOM     29  O   UNL     1       2.047   2.487  17.370  0.00  0.00    +0.000 OA
ATOM     30  H   UNL     1       3.827   2.842  19.980  0.00  0.00    +0.000 HD
ATOM     31  H   UNL     1       2.798   1.544  19.486  0.00  0.00    +0.000 HD
ENDBRANCH  25  27
ENDBRANCH   4  21
TORSDOF 6
ENDMDL
MODEL 3
REMARK VINA RESULT:      -8.7      3.917      6.219
REMARK  Name = 
REMARK  8 active torsions:
REMARK  status: ('A' for Active; 'I' for Inactive)
REMARK    1  A    between atoms: C_1  and  C_2
REMARK    2  A    between atoms: C_2  and  S_3
REMARK    3  A    between atoms: C_2  and  C_10
REMARK    4  A    between atoms: S_3  and  C_4
REMARK    5  A    between atoms: N_8  and  C_9
REMARK    6  A    between atoms: C_14  and  N_15
REMARK    7  A    between atoms: C_18  and  C_19
REMARK    8  A    between atoms: C_23  and  C_24
REMARK                            x       y       z     vdW  Elec       q    Type
REMARK                         _______ _______ _______ _____ _____    ______ ____
ROOT
ATOM      1  N   UNL     1       5.072   4.891  17.926  0.00  0.00    +0.000 N 
ATOM      2  N   UNL     1       6.320   4.612  18.391  0.00  0.00    +0.000 NA
ATOM      3  C   UNL     1       6.995   4.403  17.260  0.00  0.00    +0.000 A 
ATOM      4  C   UNL     1       6.161   4.575  16.136  0.00  0.00    +0.000 A 
ATOM      5  N   UNL     1       4.925   4.860  16.578  0.00  0.00    +0.000 NA
ENDROOT
BRANCH   1  10
ATOM      6  C   UNL     1       2.378   6.812  19.686  0.00  0.00    +0.000 A 
ATOM      7  C   UNL     1       1.847   5.780  20.476  0.00  0.00    +0.000 A 
ATOM      8  C   UNL     1       2.406   4.500  20.473  0.00  0.00    +0.000 A 
ATOM      9  C   UNL     1       3.486   4.210  19.646  0.00  0.00    +0.000 A 
ATOM     10  C   UNL     1       3.994   5.200  18.797  0.00  0.00    +0.000 A 
ATOM     11  C   UNL     1       3.446   6.497  18.821  0.00  0.00    +0.000 A 
BRANCH   6  13
ATOM     12  C   UNL     1       0.767   8.468  20.824  0.00  0.00    +0.000 C 
ATOM     13  C   UNL     1       1.889   8.250  19.803  0.00  0.00    +0.000 C 
BRANCH  13  14
ATOM     14  S   UNL     1       1.546   9.087  18.219  0.00  0.00    +0.000 S 
BRANCH  14  15
ATOM     15  C   UNL     1       0.830  10.590  18.663  0.00  0.00    +0.000 A 
ATOM     16  N   UNL     1       1.400  11.619  19.244  0.00  0.00    +0.000 NA
ATOM     17  N   UNL     1       0.416  12.537  19.534  0.00  0.00    +0.000 NA
ATOM     18  C   UNL     1      -0.721  12.049  19.093  0.00  0.00    +0.000 A 
ATOM     19  N   UNL     1      -0.491  10.867  18.455  0.00  0.00    +0.000 N 
ATOM     20  C   UNL     1      -1.454  10.113  17.699  0.00  0.00    +0.000 C 
ENDBRANCH  14  15
ENDBRANCH  13  14
ENDBRANCH   6  13
ENDBRANCH   1  10
BRANCH   4  21
ATOM     21  C   UNL     1       6.468   4.504  14.712  0.00  0.00    +0.000 A 
ATOM     22  C   UNL     1       7.523   5.262  14.182  0.00  0.00    +0.000 A 
ATOM     23  C   UNL     1       7.855   5.176  12.830  0.00  0.00    +0.000 A 
ATOM     24  C   UNL     1       7.134   4.333  11.984  0.00  0.00    +0.000 A 
ATOM     25  C   UNL     1       6.070   3.576  12.487  0.00  0.00    +0.000 A 
ATOM     26  C   UNL     1       5.745   3.667  13.852  0.00  0.00    +0.000 A 
BRANCH  25  27
ATOM     27  C   UNL     1       5.254   2.652  11.647  0.00  0.00    +0.000 C 
ATOM     28  N   UNL     1       4.026   3.066  11.218  0.00  0.00    +0.000 N 
ATOM     29  O   UNL     1       5.664   1.538  11.345  0.00  0.00    +0.000 OA
ATOM     30  H   UNL     1       3.591   3.945  11.445  0.00  0.00    +0.000 HD
ATOM     31  H   UNL     1       3.495   2.408  10.661  0.00  0.00    +0.000 HD
ENDBRANCH  25  27
ENDBRANCH   4  21
TORSDOF 6
ENDMDL
MODEL 4
REMARK VINA RESULT:      -8.7      0.996      1.041
REMARK  Name = 
REMARK  8 active torsions:
REMARK  status: ('A' for Active; 'I' for Inactive)
REMARK    1  A    between atoms: C_1  and  C_2
REMARK    2  A    between atoms: C_2  and  S_3
REMARK    3  A    between atoms: C_2  and  C_10
REMARK    4  A    between atoms: S_3  and  C_4
REMARK    5  A    between atoms: N_8  and  C_9
REMARK    6  A    between atoms: C_14  and  N_15
REMARK    7  A    between atoms: C_18  and  C_19
REMARK    8  A    between atoms: C_23  and  C_24
REMARK                            x       y       z     vdW  Elec       q    Type
REMARK                         _______ _______ _______ _____ _____    ______ ____
ROOT
ATOM      1  N   UNL     1       1.507   8.827  19.577  0.00  0.00    +0.000 N 
ATOM      2  N   UNL     1       1.619   9.461  18.379  0.00  0.00    +0.000 NA
ATOM      3  C   UNL     1       2.318   8.580  17.664  0.00  0.00    +0.000 A 
ATOM      4  C   UNL     1       2.603   7.427  18.424  0.00  0.00    +0.000 A 
ATOM      5  N   UNL     1       2.101   7.609  19.657  0.00  0.00    +0.000 NA
ENDROOT
BRANCH   1  10
ATOM      6  C   UNL     1      -0.706  11.103  21.569  0.00  0.00    +0.000 A 
ATOM      7  C   UNL     1      -0.592  10.484  22.824  0.00  0.00    +0.000 A 
ATOM      8  C   UNL     1       0.244   9.382  23.018  0.00  0.00    +0.000 A 
ATOM      9  C   UNL     1       0.955   8.845  21.950  0.00  0.00    +0.000 A 
ATOM     10  C   UNL     1       0.809   9.399  20.674  0.00  0.00    +0.000 A 
ATOM     11  C   UNL     1      -0.013  10.527  20.485  0.00  0.00    +0.000 A 
BRANCH   6  13
ATOM     12  C   UNL     1      -0.996  13.274  20.213  0.00  0.00    +0.000 C 
ATOM     13  C   UNL     1      -1.479  12.403  21.378  0.00  0.00    +0.000 C 
BRANCH  13  14
ATOM     14  S   UNL     1      -1.751  13.376  22.895  0.00  0.00    +0.000 S 
BRANCH  14  15
ATOM     15  C   UNL     1      -3.442  13.248  23.201  0.00  0.00    +0.000 A 
ATOM     16  N   UNL     1      -4.264  12.299  22.822  0.00  0.00    +0.000 NA
ATOM     17  N   UNL     1      -5.540  12.685  23.167  0.00  0.00    +0.000 NA
ATOM     18  C   UNL     1      -5.450  13.847  23.773  0.00  0.00    +0.000 A 
ATOM     19  N   UNL     1      -4.138  14.194  23.898  0.00  0.00    +0.000 N 
ATOM     20  C   UNL     1      -3.627  15.310  24.646  0.00  0.00    +0.000 C 
ENDBRANCH  14  15
ENDBRANCH  13  14
ENDBRANCH   6  13
ENDBRANCH   1  10
BRANCH   4  21
ATOM     21  C   UNL     1       3.285   6.194  18.050  0.00  0.00    +0.000 A 
ATOM     22  C   UNL     1       2.552   5.012  17.867  0.00  0.00    +0.000 A 
ATOM     23  C   UNL     1       3.183   3.833  17.470  0.00  0.00    +0.000 A 
ATOM     24  C   UNL     1       4.561   3.816  17.253  0.00  0.00    +0.000 A 
ATOM     25  C   UNL     1       5.316   4.979  17.441  0.00  0.00    +0.000 A 
ATOM     26  C   UNL     1       4.670   6.163  17.838  0.00  0.00    +0.000 A 
BRANCH  25  27
ATOM     27  C   UNL     1       6.792   5.042  17.227  0.00  0.00    +0.000 C 
ATOM     28  N   UNL     1       7.273   5.761  16.171  0.00  0.00    +0.000 N 
ATOM     29  O   UNL     1       7.567   4.460  17.976  0.00  0.00    +0.000 OA
ATOM     30  H   UNL     1       6.714   6.239  15.484  0.00  0.00    +0.000 HD
ATOM     31  H   UNL     1       8.279   5.770  16.051  0.00  0.00    +0.000 HD
ENDBRANCH  25  27
ENDBRANCH   4  21
TORSDOF 6
ENDMDL
MODEL 5
REMARK VINA RESULT:      -8.5      2.051      2.761
REMARK  Name = 
REMARK  8 active torsions:
REMARK  status: ('A' for Active; 'I' for Inactive)
REMARK    1  A    between atoms: C_1  and  C_2
REMARK    2  A    between atoms: C_2  and  S_3
REMARK    3  A    between atoms: C_2  and  C_10
REMARK    4  A    between atoms: S_3  and  C_4
REMARK    5  A    between atoms: N_8  and  C_9
REMARK    6  A    between atoms: C_14  and  N_15
REMARK    7  A    between atoms: C_18  and  C_19
REMARK    8  A    between atoms: C_23  and  C_24
REMARK                            x       y       z     vdW  Elec       q    Type
REMARK                         _______ _______ _______ _____ _____    ______ ____
ROOT
ATOM      1  N   UNL     1       1.462   8.831  19.620  0.00  0.00    +0.000 N 
ATOM      2  N   UNL     1       1.569   9.476  18.427  0.00  0.00    +0.000 NA
ATOM      3  C   UNL     1       2.270   8.604  17.703  0.00  0.00    +0.000 A 
ATOM      4  C   UNL     1       2.562   7.446  18.453  0.00  0.00    +0.000 A 
ATOM      5  N   UNL     1       2.062   7.616  19.688  0.00  0.00    +0.000 NA
ENDROOT
BRANCH   1  10
ATOM      6  C   UNL     1      -0.761  11.077  21.635  0.00  0.00    +0.000 A 
ATOM      7  C   UNL     1      -0.639  10.450  22.885  0.00  0.00    +0.000 A 
ATOM      8  C   UNL     1       0.206   9.352  23.069  0.00  0.00    +0.000 A 
ATOM      9  C   UNL     1       0.917   8.828  21.995  0.00  0.00    +0.000 A 
ATOM     10  C   UNL     1       0.764   9.390  20.723  0.00  0.00    +0.000 A 
ATOM     11  C   UNL     1      -0.067  10.513  20.544  0.00  0.00    +0.000 A 
BRANCH   6  13
ATOM     12  C   UNL     1      -2.881  12.425  22.201  0.00  0.00    +0.000 C 
ATOM     13  C   UNL     1      -1.544  12.372  21.455  0.00  0.00    +0.000 C 
BRANCH  13  14
ATOM     14  S   UNL     1      -1.694  12.958  19.735  0.00  0.00    +0.000 S 
BRANCH  14  15
ATOM     15  C   UNL     1      -3.102  12.173  19.126  0.00  0.00    +0.000 A 
ATOM     16  N   UNL     1      -4.356  12.402  19.437  0.00  0.00    +0.000 NA
ATOM     17  N   UNL     1      -5.125  11.443  18.815  0.00  0.00    +0.000 NA
ATOM     18  C   UNL     1      -4.316  10.677  18.121  0.00  0.00    +0.000 A 
ATOM     19  N   UNL     1      -3.044  11.158  18.214  0.00  0.00    +0.000 N 
ATOM     20  C   UNL     1      -1.908  10.693  17.466  0.00  0.00    +0.000 C 
ENDBRANCH  14  15
ENDBRANCH  13  14
ENDBRANCH   6  13
ENDBRANCH   1  10
BRANCH   4  21
ATOM     21  C   UNL     1       3.250   6.219  18.067  0.00  0.00    +0.000 A 
ATOM     22  C   UNL     1       2.519   5.044  17.843  0.00  0.00    +0.000 A 
ATOM     23  C   UNL     1       3.155   3.872  17.434  0.00  0.00    +0.000 A 
ATOM     24  C   UNL     1       4.538   3.856  17.247  0.00  0.00    +0.000 A 
ATOM     25  C   UNL     1       5.291   5.014  17.474  0.00  0.00    +0.000 A 
ATOM     26  C   UNL     1       4.639   6.190  17.883  0.00  0.00    +0.000 A 
BRANCH  25  27
ATOM     27  C   UNL     1       6.771   5.077  17.293  0.00  0.00    +0.000 C 
ATOM     28  N   UNL     1       7.277   5.842  16.282  0.00  0.00    +0.000 N 
ATOM     29  O   UNL     1       7.528   4.456  18.030  0.00  0.00    +0.000 OA
ATOM     30  H   UNL     1       6.734   6.355  15.607  0.00  0.00    +0.000 HD
ATOM     31  H   UNL     1       8.284   5.850  16.182  0.00  0.00    +0.000 HD
ENDBRANCH  25  27
ENDBRANCH   4  21
TORSDOF 6
ENDMDL
MODEL 6
REMARK VINA RESULT:      -8.4      2.819      3.450
REMARK  Name = 
REMARK  8 active torsions:
REMARK  status: ('A' for Active; 'I' for Inactive)
REMARK    1  A    between atoms: C_1  and  C_2
REMARK    2  A    between atoms: C_2  and  S_3
REMARK    3  A    between atoms: C_2  and  C_10
REMARK    4  A    between atoms: S_3  and  C_4
REMARK    5  A    between atoms: N_8  and  C_9
REMARK    6  A    between atoms: C_14  and  N_15
REMARK    7  A    between atoms: C_18  and  C_19
REMARK    8  A    between atoms: C_23  and  C_24
REMARK                            x       y       z     vdW  Elec       q    Type
REMARK                         _______ _______ _______ _____ _____    ______ ____
ROOT
ATOM      1  N   UNL     1       1.488   8.813  19.608  0.00  0.00    +0.000 N 
ATOM      2  N   UNL     1       1.581   9.442  18.405  0.00  0.00    +0.000 NA
ATOM      3  C   UNL     1       2.287   8.566  17.690  0.00  0.00    +0.000 A 
ATOM      4  C   UNL     1       2.594   7.422  18.455  0.00  0.00    +0.000 A 
ATOM      5  N   UNL     1       2.099   7.605  19.690  0.00  0.00    +0.000 NA
ENDROOT
BRANCH   1  10
ATOM      6  C   UNL     1      -0.699  11.102  21.614  0.00  0.00    +0.000 A 
ATOM      7  C   UNL     1      -0.610  10.462  22.860  0.00  0.00    +0.000 A 
ATOM      8  C   UNL     1       0.202   9.340  23.045  0.00  0.00    +0.000 A 
ATOM      9  C   UNL     1       0.912   8.806  21.976  0.00  0.00    +0.000 A 
ATOM     10  C   UNL     1       0.791   9.383  20.707  0.00  0.00    +0.000 A 
ATOM     11  C   UNL     1      -0.007  10.529  20.528  0.00  0.00    +0.000 A 
BRANCH   6  13
ATOM     12  C   UNL     1      -1.988  12.666  20.025  0.00  0.00    +0.000 C 
ATOM     13  C   UNL     1      -1.443  12.420  21.436  0.00  0.00    +0.000 C 
BRANCH  13  14
ATOM     14  S   UNL     1      -0.599  13.888  22.110  0.00  0.00    +0.000 S 
BRANCH  14  15
ATOM     15  C   UNL     1       0.859  14.012  21.200  0.00  0.00    +0.000 A 
ATOM     16  N   UNL     1       1.985  13.363  21.381  0.00  0.00    +0.000 NA
ATOM     17  N   UNL     1       2.917  13.885  20.512  0.00  0.00    +0.000 NA
ATOM     18  C   UNL     1       2.319  14.818  19.807  0.00  0.00    +0.000 A 
ATOM     19  N   UNL     1       0.999  14.866  20.144  0.00  0.00    +0.000 N 
ATOM     20  C   UNL     1      -0.015  15.640  19.481  0.00  0.00    +0.000 C 
ENDBRANCH  14  15
ENDBRANCH  13  14
ENDBRANCH   6  13
ENDBRANCH   1  10
BRANCH   4  21
ATOM     21  C   UNL     1       3.290   6.196  18.082  0.00  0.00    +0.000 A 
ATOM     22  C   UNL     1       2.570   5.007  17.893  0.00  0.00    +0.000 A 
ATOM     23  C   UNL     1       3.215   3.836  17.498  0.00  0.00    +0.000 A 
ATOM     24  C   UNL     1       4.594   3.832  17.289  0.00  0.00    +0.000 A 
ATOM     25  C   UNL     1       5.336   5.003  17.482  0.00  0.00    +0.000 A 
ATOM     26  C   UNL     1       4.676   6.180  17.877  0.00  0.00    +0.000 A 
BRANCH  25  27
ATOM     27  C   UNL     1       6.812   5.080  17.277  0.00  0.00    +0.000 C 
ATOM     28  N   UNL     1       7.297   5.882  16.284  0.00  0.00    +0.000 N 
ATOM     29  O   UNL     1       7.586   4.437  17.978  0.00  0.00    +0.000 OA
ATOM     30  H   UNL     1       6.740   6.416  15.638  0.00  0.00    +0.000 HD
ATOM     31  H   UNL     1       8.302   5.899  16.166  0.00  0.00    +0.000 HD
ENDBRANCH  25  27
ENDBRANCH   4  21
TORSDOF 6
ENDMDL
MODEL 7
REMARK VINA RESULT:      -8.3      2.465      3.471
REMARK  Name = 
REMARK  8 active torsions:
REMARK  status: ('A' for Active; 'I' for Inactive)
REMARK    1  A    between atoms: C_1  and  C_2
REMARK    2  A    between atoms: C_2  and  S_3
REMARK    3  A    between atoms: C_2  and  C_10
REMARK    4  A    between atoms: S_3  and  C_4
REMARK    5  A    between atoms: N_8  and  C_9
REMARK    6  A    between atoms: C_14  and  N_15
REMARK    7  A    between atoms: C_18  and  C_19
REMARK    8  A    between atoms: C_23  and  C_24
REMARK                            x       y       z     vdW  Elec       q    Type
REMARK                         _______ _______ _______ _____ _____    ______ ____
ROOT
ATOM      1  N   UNL     1       1.469   8.776  19.646  0.00  0.00    +0.000 N 
ATOM      2  N   UNL     1       1.675   9.445  18.480  0.00  0.00    +0.000 NA
ATOM      3  C   UNL     1       2.316   8.534  17.749  0.00  0.00    +0.000 A 
ATOM      4  C   UNL     1       2.473   7.331  18.468  0.00  0.00    +0.000 A 
ATOM      5  N   UNL     1       1.949   7.509  19.691  0.00  0.00    +0.000 NA
ENDROOT
BRANCH   1  10
ATOM      6  C   UNL     1      -0.702  11.090  21.642  0.00  0.00    +0.000 A 
ATOM      7  C   UNL     1      -0.578  10.483  22.901  0.00  0.00    +0.000 A 
ATOM      8  C   UNL     1       0.251   9.376  23.097  0.00  0.00    +0.000 A 
ATOM      9  C   UNL     1       0.945   8.823  22.026  0.00  0.00    +0.000 A 
ATOM     10  C   UNL     1       0.789   9.365  20.745  0.00  0.00    +0.000 A 
ATOM     11  C   UNL     1      -0.027  10.498  20.555  0.00  0.00    +0.000 A 
BRANCH   6  13
ATOM     12  C   UNL     1      -2.785  12.489  22.221  0.00  0.00    +0.000 C 
ATOM     13  C   UNL     1      -1.466  12.394  21.447  0.00  0.00    +0.000 C 
BRANCH  13  14
ATOM     14  S   UNL     1      -1.647  12.939  19.716  0.00  0.00    +0.000 S 
BRANCH  14  15
ATOM     15  C   UNL     1      -0.659  14.345  19.594  0.00  0.00    +0.000 A 
ATOM     16  N   UNL     1      -0.904  15.550  20.051  0.00  0.00    +0.000 NA
ATOM     17  N   UNL     1       0.095  16.383  19.597  0.00  0.00    +0.000 NA
ATOM     18  C   UNL     1       0.933  15.651  18.901  0.00  0.00    +0.000 A 
ATOM     19  N   UNL     1       0.547  14.345  18.951  0.00  0.00    +0.000 N 
ATOM     20  C   UNL     1       1.294  13.223  18.453  0.00  0.00    +0.000 C 
ENDBRANCH  14  15
ENDBRANCH  13  14
ENDBRANCH   6  13
ENDBRANCH   1  10
BRANCH   4  21
ATOM     21  C   UNL     1       3.056   6.057  18.061  0.00  0.00    +0.000 A 
ATOM     22  C   UNL     1       2.238   4.929  17.900  0.00  0.00    +0.000 A 
ATOM     23  C   UNL     1       2.772   3.713  17.474  0.00  0.00    +0.000 A 
ATOM     24  C   UNL     1       4.136   3.605  17.205  0.00  0.00    +0.000 A 
ATOM     25  C   UNL     1       4.975   4.713  17.368  0.00  0.00    +0.000 A 
ATOM     26  C   UNL     1       4.426   5.935  17.796  0.00  0.00    +0.000 A 
BRANCH  25  27
ATOM     27  C   UNL     1       6.442   4.677  17.099  0.00  0.00    +0.000 C 
ATOM     28  N   UNL     1       7.291   4.371  18.125  0.00  0.00    +0.000 N 
ATOM     29  O   UNL     1       6.890   4.918  15.985  0.00  0.00    +0.000 OA
ATOM     30  H   UNL     1       7.019   4.196  19.078  0.00  0.00    +0.000 HD
ATOM     31  H   UNL     1       8.280   4.369  17.908  0.00  0.00    +0.000 HD
ENDBRANCH  25  27
ENDBRANCH   4  21
TORSDOF 6
ENDMDL
MODEL 8
REMARK VINA RESULT:      -8.3      2.476      2.995
REMARK  Name = 
REMARK  8 active torsions:
REMARK  status: ('A' for Active; 'I' for Inactive)
REMARK    1  A    between atoms: C_1  and  C_2
REMARK    2  A    between atoms: C_2  and  S_3
REMARK    3  A    between atoms: C_2  and  C_10
REMARK    4  A    between atoms: S_3  and  C_4
REMARK    5  A    between atoms: N_8  and  C_9
REMARK    6  A    between atoms: C_14  and  N_15
REMARK    7  A    between atoms: C_18  and  C_19
REMARK    8  A    between atoms: C_23  and  C_24
REMARK                            x       y       z     vdW  Elec       q    Type
REMARK                         _______ _______ _______ _____ _____    ______ ____
ROOT
ATOM      1  N   UNL     1       1.292   9.194  19.655  0.00  0.00    +0.000 N 
ATOM      2  N   UNL     1       1.500   9.920  18.524  0.00  0.00    +0.000 NA
ATOM      3  C   UNL     1       2.164   9.055  17.758  0.00  0.00    +0.000 A 
ATOM      4  C   UNL     1       2.333   7.822  18.421  0.00  0.00    +0.000 A 
ATOM      5  N   UNL     1       1.793   7.933  19.646  0.00  0.00    +0.000 NA
ENDROOT
BRANCH   1  10
ATOM      6  C   UNL     1      -0.356  11.630  21.977  0.00  0.00    +0.000 A 
ATOM      7  C   UNL     1      -0.828  10.731  22.947  0.00  0.00    +0.000 A 
ATOM      8  C   UNL     1      -0.553   9.364  22.866  0.00  0.00    +0.000 A 
ATOM      9  C   UNL     1       0.165   8.857  21.789  0.00  0.00    +0.000 A 
ATOM     10  C   UNL     1       0.591   9.719  20.773  0.00  0.00    +0.000 A 
ATOM     11  C   UNL     1       0.336  11.101  20.869  0.00  0.00    +0.000 A 
BRANCH   6  13
ATOM     12  C   UNL     1      -1.233  13.583  23.409  0.00  0.00    +0.000 C 
ATOM     13  C   UNL     1      -0.502  13.139  22.138  0.00  0.00    +0.000 C 
BRANCH  13  14
ATOM     14  S   UNL     1      -1.098  14.024  20.659  0.00  0.00    +0.000 S 
BRANCH  14  15
ATOM     15  C   UNL     1      -2.693  13.425  20.402  0.00  0.00    +0.000 A 
ATOM     16  N   UNL     1      -3.054  12.308  19.816  0.00  0.00    +0.000 NA
ATOM     17  N   UNL     1      -4.428  12.313  19.710  0.00  0.00    +0.000 NA
ATOM     18  C   UNL     1      -4.861  13.423  20.263  0.00  0.00    +0.000 A 
ATOM     19  N   UNL     1      -3.809  14.107  20.795  0.00  0.00    +0.000 N 
ATOM     20  C   UNL     1      -3.895  15.280  21.621  0.00  0.00    +0.000 C 
ENDBRANCH  14  15
ENDBRANCH  13  14
ENDBRANCH   6  13
ENDBRANCH   1  10
BRANCH   4  21
ATOM     21  C   UNL     1       2.940   6.578  17.962  0.00  0.00    +0.000 A 
ATOM     22  C   UNL     1       4.206   6.594  17.358  0.00  0.00    +0.000 A 
ATOM     23  C   UNL     1       4.819   5.410  16.950  0.00  0.00    +0.000 A 
ATOM     24  C   UNL     1       4.172   4.188  17.134  0.00  0.00    +0.000 A 
ATOM     25  C   UNL     1       2.903   4.147  17.724  0.00  0.00    +0.000 A 
ATOM     26  C   UNL     1       2.296   5.346  18.135  0.00  0.00    +0.000 A 
BRANCH  25  27
ATOM     27  C   UNL     1       2.149   2.880  17.957  0.00  0.00    +0.000 C 
ATOM     28  N   UNL     1       2.838   1.702  17.989  0.00  0.00    +0.000 N 
ATOM     29  O   UNL     1       0.934   2.884  18.114  0.00  0.00    +0.000 OA
ATOM     30  H   UNL     1       3.827   1.596  17.834  0.00  0.00    +0.000 HD
ATOM     31  H   UNL     1       2.291   0.862  18.137  0.00  0.00    +0.000 HD
ENDBRANCH  25  27
ENDBRANCH   4  21
TORSDOF 6
ENDMDL
MODEL 9
REMARK VINA RESULT:      -8.3      1.822      2.066
REMARK  Name = 
REMARK  8 active torsions:
REMARK  status: ('A' for Active; 'I' for Inactive)
REMARK    1  A    between atoms: C_1  and  C_2
REMARK    2  A    between atoms: C_2  and  S_3
REMARK    3  A    between atoms: C_2  and  C_10
REMARK    4  A    between atoms: S_3  and  C_4
REMARK    5  A    between atoms: N_8  and  C_9
REMARK    6  A    between atoms: C_14  and  N_15
REMARK    7  A    between atoms: C_18  and  C_19
REMARK    8  A    between atoms: C_23  and  C_24
REMARK                            x       y       z     vdW  Elec       q    Type
REMARK                         _______ _______ _______ _____ _____    ______ ____
ROOT
ATOM      1  N   UNL     1       1.500   8.721  19.598  0.00  0.00    +0.000 N 
ATOM      2  N   UNL     1       1.676   9.352  18.405  0.00  0.00    +0.000 NA
ATOM      3  C   UNL     1       2.373   8.448  17.716  0.00  0.00    +0.000 A 
ATOM      4  C   UNL     1       2.593   7.287  18.485  0.00  0.00    +0.000 A 
ATOM      5  N   UNL     1       2.051   7.486  19.698  0.00  0.00    +0.000 NA
ENDROOT
BRANCH   1  10
ATOM      6  C   UNL     1      -0.866  10.940  21.475  0.00  0.00    +0.000 A 
ATOM      7  C   UNL     1      -0.659  10.443  22.771  0.00  0.00    +0.000 A 
ATOM      8  C   UNL     1       0.285   9.444  23.025  0.00  0.00    +0.000 A 
ATOM      9  C   UNL     1       1.014   8.888  21.980  0.00  0.00    +0.000 A 
ATOM     10  C   UNL     1       0.781   9.316  20.668  0.00  0.00    +0.000 A 
ATOM     11  C   UNL     1      -0.151  10.342  20.417  0.00  0.00    +0.000 A 
BRANCH   6  13
ATOM     12  C   UNL     1      -1.076  13.319  20.512  0.00  0.00    +0.000 C 
ATOM     13  C   UNL     1      -1.766  12.140  21.207  0.00  0.00    +0.000 C 
BRANCH  13  14
ATOM     14  S   UNL     1      -2.786  12.679  22.618  0.00  0.00    +0.000 S 
BRANCH  14  15
ATOM     15  C   UNL     1      -1.960  14.048  23.260  0.00  0.00    +0.000 A 
ATOM     16  N   UNL     1      -0.817  14.076  23.904  0.00  0.00    +0.000 NA
ATOM     17  N   UNL     1      -0.617  15.363  24.351  0.00  0.00    +0.000 NA
ATOM     18  C   UNL     1      -1.633  16.085  23.940  0.00  0.00    +0.000 A 
ATOM     19  N   UNL     1      -2.455  15.317  23.170  0.00  0.00    +0.000 N 
ATOM     20  C   UNL     1      -3.580  15.785  22.407  0.00  0.00    +0.000 C 
ENDBRANCH  14  15
ENDBRANCH  13  14
ENDBRANCH   6  13
ENDBRANCH   1  10
BRANCH   4  21
ATOM     21  C   UNL     1       3.249   6.032  18.135  0.00  0.00    +0.000 A 
ATOM     22  C   UNL     1       2.482   4.903  17.812  0.00  0.00    +0.000 A 
ATOM     23  C   UNL     1       3.092   3.708  17.437  0.00  0.00    +0.000 A 
ATOM     24  C   UNL     1       4.484   3.619  17.382  0.00  0.00    +0.000 A 
ATOM     25  C   UNL     1       5.271   4.729  17.710  0.00  0.00    +0.000 A 
ATOM     26  C   UNL     1       4.645   5.931  18.084  0.00  0.00    +0.000 A 
BRANCH  25  27
ATOM     27  C   UNL     1       6.763   4.714  17.673  0.00  0.00    +0.000 C 
ATOM     28  N   UNL     1       7.389   4.672  16.461  0.00  0.00    +0.000 N 
ATOM     29  O   UNL     1       7.424   4.735  18.704  0.00  0.00    +0.000 OA
ATOM     30  H   UNL     1       6.932   4.615  15.566  0.00  0.00    +0.000 HD
ATOM     31  H   UNL     1       8.402   4.651  16.475  0.00  0.00    +0.000 HD
ENDBRANCH  25  27
ENDBRANCH   4  21
TORSDOF 6
ENDMDL
