MODEL 1
REMARK VINA RESULT:      -9.6      0.000      0.000
REMARK  Name = 
REMARK  7 active torsions:
REMARK  status: ('A' for Active; 'I' for Inactive)
REMARK    1  A    between atoms: C_1  and  C_2
REMARK    2  A    between atoms: C_2  and  S_3
REMARK    3  A    between atoms: C_2  and  C_10
REMARK    4  A    between atoms: S_3  and  C_4
REMARK    5  A    between atoms: N_8  and  C_9
REMARK    6  A    between atoms: C_15  and  N_16
REMARK    7  A    between atoms: C_23  and  C_24
REMARK                            x       y       z     vdW  Elec       q    Type
REMARK                         _______ _______ _______ _____ _____    ______ ____
ROOT
ATOM      1  C   UNL     1       4.480   5.143  17.752  0.00  0.00    +0.000 A 
ATOM      2  C   UNL     1       3.853   3.926  18.066  0.00  0.00    +0.000 A 
ATOM      3  C   UNL     1       2.643   3.933  18.757  0.00  0.00    +0.000 A 
ATOM      4  F   UNL     1       2.025   2.764  19.001  0.00  0.00    +0.000 F 
ATOM      5  C   UNL     1       2.041   5.107  19.151  0.00  0.00    +0.000 A 
ATOM      6  C   UNL     1       2.626   6.326  18.846  0.00  0.00    +0.000 A 
ATOM      7  C   UNL     1       3.842   6.326  18.160  0.00  0.00    +0.000 A 
ENDROOT
BRANCH   6   8
ATOM      8  N   UNL     1       2.006   7.544  19.167  0.00  0.00    +0.000 N 
ATOM      9  C   UNL     1       1.428   7.818  20.475  0.00  0.00    +0.000 C 
ATOM     10  C   UNL     1       0.975   9.231  20.348  0.00  0.00    +0.000 A 
ATOM     11  C   UNL     1       1.300   9.715  19.078  0.00  0.00    +0.000 A 
ATOM     12  C   UNL     1       0.998  10.992  18.657  0.00  0.00    +0.000 A 
ATOM     13  C   UNL     1       0.330  11.821  19.555  0.00  0.00    +0.000 A 
ATOM     14  C   UNL     1       0.001  11.355  20.842  0.00  0.00    +0.000 A 
ATOM     15  C   UNL     1       0.322  10.050  21.264  0.00  0.00    +0.000 A 
ATOM     16  C   UNL     1       1.973   8.659  18.336  0.00  0.00    +0.000 C 
ATOM     17  O   UNL     1       2.388   8.827  17.206  0.00  0.00    +0.000 OA
BRANCH  15  18
ATOM     18  C   UNL     1      -0.024   9.592  22.654  0.00  0.00    +0.000 C 
ATOM     19  F   UNL     1      -0.660  10.545  23.392  0.00  0.00    +0.000 F 
ATOM     20  F   UNL     1      -0.854   8.512  22.653  0.00  0.00    +0.000 F 
ATOM     21  F   UNL     1       1.067   9.229  23.380  0.00  0.00    +0.000 F 
ENDBRANCH  15  18
ENDBRANCH   6   8
BRANCH   1  23
ATOM     22  C   UNL     1       6.955   4.963  17.926  0.00  0.00    +0.000 C 
ATOM     23  C   UNL     1       5.789   5.195  16.960  0.00  0.00    +0.000 C 
BRANCH  23  24
ATOM     24  S   UNL     1       5.763   3.932  15.632  0.00  0.00    +0.000 S 
BRANCH  24  25
ATOM     25  C   UNL     1       6.836   4.553  14.424  0.00  0.00    +0.000 A 
ATOM     26  N   UNL     1       7.813   5.430  14.582  0.00  0.00    +0.000 NA
ATOM     27  N   UNL     1       8.293   5.740  13.323  0.00  0.00    +0.000 NA
ATOM     28  C   UNL     1       7.613   5.045  12.451  0.00  0.00    +0.000 A 
ATOM     29  N   UNL     1       6.723   4.250  13.099  0.00  0.00    +0.000 N 
ATOM     30  C   UNL     1       5.861   3.265  12.485  0.00  0.00    +0.000 C 
ENDBRANCH  24  25
ENDBRANCH  23  24
ENDBRANCH   1  23
TORSDOF 5
ENDMDL
MODEL 2
REMARK VINA RESULT:      -9.2      1.862      2.771
REMARK  Name = 
REMARK  7 active torsions:
REMARK  status: ('A' for Active; 'I' for Inactive)
REMARK    1  A    between atoms: C_1  and  C_2
REMARK    2  A    between atoms: C_2  and  S_3
REMARK    3  A    between atoms: C_2  and  C_10
REMARK    4  A    between atoms: S_3  and  C_4
REMARK    5  A    between atoms: N_8  and  C_9
REMARK    6  A    between atoms: C_15  and  N_16
REMARK    7  A    between atoms: C_23  and  C_24
REMARK                            x       y       z     vdW  Elec       q    Type
REMARK                         _______ _______ _______ _____ _____    ______ ____
ROOT
ATOM      1  C   UNL     1       4.369   4.877  17.763  0.00  0.00    +0.000 A 
ATOM      2  C   UNL     1       4.236   3.818  18.677  0.00  0.00    +0.000 A 
ATOM      3  C   UNL     1       3.438   3.980  19.808  0.00  0.00    +0.000 A 
ATOM      4  F   UNL     1       3.274   2.941  20.644  0.00  0.00    +0.000 F 
ATOM      5  C   UNL     1       2.776   5.161  20.063  0.00  0.00    +0.000 A 
ATOM      6  C   UNL     1       2.874   6.221  19.175  0.00  0.00    +0.000 A 
ATOM      7  C   UNL     1       3.678   6.067  18.044  0.00  0.00    +0.000 A 
ENDROOT
BRANCH   6   8
ATOM      8  N   UNL     1       2.156   7.412  19.364  0.00  0.00    +0.000 N 
ATOM      9  C   UNL     1       1.516   7.760  20.626  0.00  0.00    +0.000 C 
ATOM     10  C   UNL     1       0.965   9.117  20.354  0.00  0.00    +0.000 A 
ATOM     11  C   UNL     1       1.295   9.506  19.054  0.00  0.00    +0.000 A 
ATOM     12  C   UNL     1       0.914  10.711  18.507  0.00  0.00    +0.000 A 
ATOM     13  C   UNL     1       0.158  11.566  19.305  0.00  0.00    +0.000 A 
ATOM     14  C   UNL     1      -0.179  11.196  20.621  0.00  0.00    +0.000 A 
ATOM     15  C   UNL     1       0.224   9.964  21.173  0.00  0.00    +0.000 A 
ATOM     16  C   UNL     1       2.068   8.440  18.432  0.00  0.00    +0.000 C 
ATOM     17  O   UNL     1       2.507   8.535  17.302  0.00  0.00    +0.000 OA
BRANCH  15  18
ATOM     18  C   UNL     1      -0.133   9.610  22.589  0.00  0.00    +0.000 C 
ATOM     19  F   UNL     1      -0.930   8.508  22.683  0.00  0.00    +0.000 F 
ATOM     20  F   UNL     1       0.964   9.338  23.350  0.00  0.00    +0.000 F 
ATOM     21  F   UNL     1      -0.802  10.605  23.232  0.00  0.00    +0.000 F 
ENDBRANCH  15  18
ENDBRANCH   6   8
BRANCH   1  23
ATOM     22  C   UNL     1       4.924   5.951  15.589  0.00  0.00    +0.000 C 
ATOM     23  C   UNL     1       5.200   4.739  16.485  0.00  0.00    +0.000 C 
BRANCH  23  24
ATOM     24  S   UNL     1       6.979   4.617  16.911  0.00  0.00    +0.000 S 
BRANCH  24  25
ATOM     25  C   UNL     1       7.411   6.212  17.425  0.00  0.00    +0.000 A 
ATOM     26  N   UNL     1       7.410   7.322  16.707  0.00  0.00    +0.000 NA
ATOM     27  N   UNL     1       7.973   8.316  17.487  0.00  0.00    +0.000 NA
ATOM     28  C   UNL     1       8.285   7.791  18.642  0.00  0.00    +0.000 A 
ATOM     29  N   UNL     1       7.905   6.488  18.666  0.00  0.00    +0.000 N 
ATOM     30  C   UNL     1       7.992   5.599  19.803  0.00  0.00    +0.000 C 
ENDBRANCH  24  25
ENDBRANCH  23  24
ENDBRANCH   1  23
TORSDOF 5
ENDMDL
MODEL 3
REMARK VINA RESULT:      -9.1      0.879      1.190
REMARK  Name = 
REMARK  7 active torsions:
REMARK  status: ('A' for Active; 'I' for Inactive)
REMARK    1  A    between atoms: C_1  and  C_2
REMARK    2  A    between atoms: C_2  and  S_3
REMARK    3  A    between atoms: C_2  and  C_10
REMARK    4  A    between atoms: S_3  and  C_4
REMARK    5  A    between atoms: N_8  and  C_9
REMARK    6  A    between atoms: C_15  and  N_16
REMARK    7  A    between atoms: C_23  and  C_24
REMARK                            x       y       z     vdW  Elec       q    Type
REMARK                         _______ _______ _______ _____ _____    ______ ____
ROOT
ATOM      1  C   UNL     1       4.059   5.456  17.403  0.00  0.00    +0.000 A 
ATOM      2  C   UNL     1       4.132   4.384  18.307  0.00  0.00    +0.000 A 
ATOM      3  C   UNL     1       3.506   4.486  19.548  0.00  0.00    +0.000 A 
ATOM      4  F   UNL     1       3.536   3.432  20.382  0.00  0.00    +0.000 F 
ATOM      5  C   UNL     1       2.818   5.619  19.920  0.00  0.00    +0.000 A 
ATOM      6  C   UNL     1       2.714   6.690  19.047  0.00  0.00    +0.000 A 
ATOM      7  C   UNL     1       3.346   6.597  17.805  0.00  0.00    +0.000 A 
ENDROOT
BRANCH   6   8
ATOM      8  N   UNL     1       1.960   7.831  19.362  0.00  0.00    +0.000 N 
ATOM      9  C   UNL     1       1.353   8.043  20.669  0.00  0.00    +0.000 C 
ATOM     10  C   UNL     1       0.743   9.395  20.535  0.00  0.00    +0.000 A 
ATOM     11  C   UNL     1       1.014   9.908  19.264  0.00  0.00    +0.000 A 
ATOM     12  C   UNL     1       0.570  11.141  18.837  0.00  0.00    +0.000 A 
ATOM     13  C   UNL     1      -0.189  11.893  19.731  0.00  0.00    +0.000 A 
ATOM     14  C   UNL     1      -0.466  11.397  21.020  0.00  0.00    +0.000 A 
ATOM     15  C   UNL     1      -0.000  10.139  21.447  0.00  0.00    +0.000 A 
ATOM     16  C   UNL     1       1.803   8.932  18.527  0.00  0.00    +0.000 C 
ATOM     17  O   UNL     1       2.199   9.142  17.397  0.00  0.00    +0.000 OA
BRANCH  15  18
ATOM     18  C   UNL     1      -0.295   9.649  22.838  0.00  0.00    +0.000 C 
ATOM     19  F   UNL     1      -0.970   8.466  22.859  0.00  0.00    +0.000 F 
ATOM     20  F   UNL     1       0.837   9.441  23.567  0.00  0.00    +0.000 F 
ATOM     21  F   UNL     1      -1.052  10.520  23.558  0.00  0.00    +0.000 F 
ENDBRANCH  15  18
ENDBRANCH   6   8
BRANCH   1  23
ATOM     22  C   UNL     1       5.040   6.803  15.555  0.00  0.00    +0.000 C 
ATOM     23  C   UNL     1       4.694   5.382  16.012  0.00  0.00    +0.000 C 
BRANCH  23  24
ATOM     24  S   UNL     1       6.187   4.318  16.066  0.00  0.00    +0.000 S 
BRANCH  24  25
ATOM     25  C   UNL     1       7.090   4.769  14.660  0.00  0.00    +0.000 A 
ATOM     26  N   UNL     1       8.122   5.593  14.591  0.00  0.00    +0.000 NA
ATOM     27  N   UNL     1       8.418   5.768  13.251  0.00  0.00    +0.000 NA
ATOM     28  C   UNL     1       7.577   5.049  12.557  0.00  0.00    +0.000 A 
ATOM     29  N   UNL     1       6.759   4.368  13.400  0.00  0.00    +0.000 N 
ATOM     30  C   UNL     1       5.764   3.393  13.013  0.00  0.00    +0.000 C 
ENDBRANCH  24  25
ENDBRANCH  23  24
ENDBRANCH   1  23
TORSDOF 5
ENDMDL
MODEL 4
REMARK VINA RESULT:      -8.7      3.650      8.734
REMARK  Name = 
REMARK  7 active torsions:
REMARK  status: ('A' for Active; 'I' for Inactive)
REMARK    1  A    between atoms: C_1  and  C_2
REMARK    2  A    between atoms: C_2  and  S_3
REMARK    3  A    between atoms: C_2  and  C_10
REMARK    4  A    between atoms: S_3  and  C_4
REMARK    5  A    between atoms: N_8  and  C_9
REMARK    6  A    between atoms: C_15  and  N_16
REMARK    7  A    between atoms: C_23  and  C_24
REMARK                            x       y       z     vdW  Elec       q    Type
REMARK                         _______ _______ _______ _____ _____    ______ ____
ROOT
ATOM      1  C   UNL     1       0.017  10.236  20.160  0.00  0.00    +0.000 A 
ATOM      2  C   UNL     1       0.053  10.281  21.563  0.00  0.00    +0.000 A 
ATOM      3  C   UNL     1       0.780   9.321  22.265  0.00  0.00    +0.000 A 
ATOM      4  F   UNL     1       0.853   9.409  23.605  0.00  0.00    +0.000 F 
ATOM      5  C   UNL     1       1.463   8.315  21.618  0.00  0.00    +0.000 A 
ATOM      6  C   UNL     1       1.460   8.249  20.234  0.00  0.00    +0.000 A 
ATOM      7  C   UNL     1       0.727   9.203  19.526  0.00  0.00    +0.000 A 
ENDROOT
BRANCH   6   8
ATOM      8  N   UNL     1       2.203   7.282  19.539  0.00  0.00    +0.000 N 
ATOM      9  C   UNL     1       2.164   5.864  19.868  0.00  0.00    +0.000 C 
ATOM     10  C   UNL     1       3.037   5.257  18.825  0.00  0.00    +0.000 A 
ATOM     11  C   UNL     1       3.503   6.255  17.965  0.00  0.00    +0.000 A 
ATOM     12  C   UNL     1       4.344   6.004  16.904  0.00  0.00    +0.000 A 
ATOM     13  C   UNL     1       4.741   4.684  16.699  0.00  0.00    +0.000 A 
ATOM     14  C   UNL     1       4.276   3.663  17.549  0.00  0.00    +0.000 A 
ATOM     15  C   UNL     1       3.410   3.931  18.627  0.00  0.00    +0.000 A 
ATOM     16  C   UNL     1       2.960   7.534  18.400  0.00  0.00    +0.000 C 
ATOM     17  O   UNL     1       3.189   8.569  17.804  0.00  0.00    +0.000 OA
BRANCH  15  18
ATOM     18  C   UNL     1       2.913   2.814  19.502  0.00  0.00    +0.000 C 
ATOM     19  F   UNL     1       3.332   1.583  19.092  0.00  0.00    +0.000 F 
ATOM     20  F   UNL     1       3.335   2.936  20.791  0.00  0.00    +0.000 F 
ATOM     21  F   UNL     1       1.556   2.744  19.554  0.00  0.00    +0.000 F 
ENDBRANCH  15  18
ENDBRANCH   6   8
BRANCH   1  23
ATOM     22  C   UNL     1       0.254  12.391  18.940  0.00  0.00    +0.000 C 
ATOM     23  C   UNL     1      -0.732  11.288  19.338  0.00  0.00    +0.000 C 
BRANCH  23  24
ATOM     24  S   UNL     1      -1.485  10.503  17.862  0.00  0.00    +0.000 S 
BRANCH  24  25
ATOM     25  C   UNL     1      -3.052  11.227  17.740  0.00  0.00    +0.000 A 
ATOM     26  N   UNL     1      -3.767  11.778  18.707  0.00  0.00    +0.000 NA
ATOM     27  N   UNL     1      -5.008  12.081  18.177  0.00  0.00    +0.000 NA
ATOM     28  C   UNL     1      -5.007  11.721  16.922  0.00  0.00    +0.000 A 
ATOM     29  N   UNL     1      -3.787  11.227  16.592  0.00  0.00    +0.000 N 
ATOM     30  C   UNL     1      -3.366  10.818  15.270  0.00  0.00    +0.000 C 
ENDBRANCH  24  25
ENDBRANCH  23  24
ENDBRANCH   1  23
TORSDOF 5
ENDMDL
MODEL 5
REMARK VINA RESULT:      -8.7      3.886      8.941
REMARK  Name = 
REMARK  7 active torsions:
REMARK  status: ('A' for Active; 'I' for Inactive)
REMARK    1  A    between atoms: C_1  and  C_2
REMARK    2  A    between atoms: C_2  and  S_3
REMARK    3  A    between atoms: C_2  and  C_10
REMARK    4  A    between atoms: S_3  and  C_4
REMARK    5  A    between atoms: N_8  and  C_9
REMARK    6  A    between atoms: C_15  and  N_16
REMARK    7  A    between atoms: C_23  and  C_24
REMARK                            x       y       z     vdW  Elec       q    Type
REMARK                         _______ _______ _______ _____ _____    ______ ____
ROOT
ATOM      1  C   UNL     1       0.832  10.421  19.726  0.00  0.00    +0.000 A 
ATOM      2  C   UNL     1       0.623  10.371  21.114  0.00  0.00    +0.000 A 
ATOM      3  C   UNL     1       0.956   9.217  21.820  0.00  0.00    +0.000 A 
ATOM      4  F   UNL     1       0.804   9.202  23.155  0.00  0.00    +0.000 F 
ATOM      5  C   UNL     1       1.481   8.110  21.190  0.00  0.00    +0.000 A 
ATOM      6  C   UNL     1       1.713   8.130  19.824  0.00  0.00    +0.000 A 
ATOM      7  C   UNL     1       1.374   9.281  19.110  0.00  0.00    +0.000 A 
ENDROOT
BRANCH   6   8
ATOM      8  N   UNL     1       2.314   7.049  19.160  0.00  0.00    +0.000 N 
ATOM      9  C   UNL     1       3.321   7.218  18.121  0.00  0.00    +0.000 C 
ATOM     10  C   UNL     1       3.695   5.813  17.793  0.00  0.00    +0.000 A 
ATOM     11  C   UNL     1       2.974   4.933  18.603  0.00  0.00    +0.000 A 
ATOM     12  C   UNL     1       3.096   3.563  18.525  0.00  0.00    +0.000 A 
ATOM     13  C   UNL     1       3.983   3.052  17.580  0.00  0.00    +0.000 A 
ATOM     14  C   UNL     1       4.725   3.923  16.759  0.00  0.00    +0.000 A 
ATOM     15  C   UNL     1       4.598   5.322  16.854  0.00  0.00    +0.000 A 
ATOM     16  C   UNL     1       2.116   5.712  19.485  0.00  0.00    +0.000 C 
ATOM     17  O   UNL     1       1.400   5.187  20.316  0.00  0.00    +0.000 OA
BRANCH  15  18
ATOM     18  C   UNL     1       5.422   6.224  15.977  0.00  0.00    +0.000 C 
ATOM     19  F   UNL     1       4.670   7.061  15.209  0.00  0.00    +0.000 F 
ATOM     20  F   UNL     1       6.254   7.029  16.695  0.00  0.00    +0.000 F 
ATOM     21  F   UNL     1       6.215   5.539  15.110  0.00  0.00    +0.000 F 
ENDBRANCH  15  18
ENDBRANCH   6   8
BRANCH   1  23
ATOM     22  C   UNL     1      -0.512  12.514  19.669  0.00  0.00    +0.000 C 
ATOM     23  C   UNL     1       0.521  11.677  18.908  0.00  0.00    +0.000 C 
BRANCH  23  24
ATOM     24  S   UNL     1       2.063  12.627  18.617  0.00  0.00    +0.000 S 
BRANCH  24  25
ATOM     25  C   UNL     1       2.197  13.665  19.995  0.00  0.00    +0.000 A 
ATOM     26  N   UNL     1       2.566  13.339  21.222  0.00  0.00    +0.000 NA
ATOM     27  N   UNL     1       2.377  14.454  22.018  0.00  0.00    +0.000 NA
ATOM     28  C   UNL     1       1.917  15.414  21.260  0.00  0.00    +0.000 A 
ATOM     29  N   UNL     1       1.835  14.980  19.977  0.00  0.00    +0.000 N 
ATOM     30  C   UNL     1       1.465  15.781  18.832  0.00  0.00    +0.000 C 
ENDBRANCH  24  25
ENDBRANCH  23  24
ENDBRANCH   1  23
TORSDOF 5
ENDMDL
MODEL 6
REMARK VINA RESULT:      -8.6      4.062      9.141
REMARK  Name = 
REMARK  7 active torsions:
REMARK  status: ('A' for Active; 'I' for Inactive)
REMARK    1  A    between atoms: C_1  and  C_2
REMARK    2  A    between atoms: C_2  and  S_3
REMARK    3  A    between atoms: C_2  and  C_10
REMARK    4  A    between atoms: S_3  and  C_4
REMARK    5  A    between atoms: N_8  and  C_9
REMARK    6  A    between atoms: C_15  and  N_16
REMARK    7  A    between atoms: C_23  and  C_24
REMARK                            x       y       z     vdW  Elec       q    Type
REMARK                         _______ _______ _______ _____ _____    ______ ____
ROOT
ATOM      1  C   UNL     1       0.574  10.437  20.064  0.00  0.00    +0.000 A 
ATOM      2  C   UNL     1       0.471  10.403  21.464  0.00  0.00    +0.000 A 
ATOM      3  C   UNL     1       0.922   9.284  22.161  0.00  0.00    +0.000 A 
ATOM      4  F   UNL     1       0.870   9.288  23.505  0.00  0.00    +0.000 F 
ATOM      5  C   UNL     1       1.463   8.197  21.512  0.00  0.00    +0.000 A 
ATOM      6  C   UNL     1       1.592   8.202  20.132  0.00  0.00    +0.000 A 
ATOM      7  C   UNL     1       1.134   9.318  19.427  0.00  0.00    +0.000 A 
ENDROOT
BRANCH   6   8
ATOM      8  N   UNL     1       2.204   7.144  19.442  0.00  0.00    +0.000 N 
ATOM      9  C   UNL     1       3.180   7.350  18.381  0.00  0.00    +0.000 C 
ATOM     10  C   UNL     1       3.583   5.959  18.028  0.00  0.00    +0.000 A 
ATOM     11  C   UNL     1       2.905   5.052  18.847  0.00  0.00    +0.000 A 
ATOM     12  C   UNL     1       3.061   3.687  18.751  0.00  0.00    +0.000 A 
ATOM     13  C   UNL     1       3.937   3.209  17.779  0.00  0.00    +0.000 A 
ATOM     14  C   UNL     1       4.635   4.107  16.950  0.00  0.00    +0.000 A 
ATOM     15  C   UNL     1       4.474   5.501  17.062  0.00  0.00    +0.000 A 
ATOM     16  C   UNL     1       2.049   5.799  19.758  0.00  0.00    +0.000 C 
ATOM     17  O   UNL     1       1.368   5.248  20.601  0.00  0.00    +0.000 OA
BRANCH  15  18
ATOM     18  C   UNL     1       5.253   6.433  16.175  0.00  0.00    +0.000 C 
ATOM     19  F   UNL     1       6.088   7.259  16.865  0.00  0.00    +0.000 F 
ATOM     20  F   UNL     1       6.043   5.766  15.288  0.00  0.00    +0.000 F 
ATOM     21  F   UNL     1       4.456   7.248  15.433  0.00  0.00    +0.000 F 
ENDBRANCH  15  18
ENDBRANCH   6   8
BRANCH   1  23
ATOM     22  C   UNL     1       1.347  12.219  18.509  0.00  0.00    +0.000 C 
ATOM     23  C   UNL     1       0.131  11.657  19.252  0.00  0.00    +0.000 C 
BRANCH  23  24
ATOM     24  S   UNL     1      -1.200  11.177  18.085  0.00  0.00    +0.000 S 
BRANCH  24  25
ATOM     25  C   UNL     1      -2.646  11.807  18.798  0.00  0.00    +0.000 A 
ATOM     26  N   UNL     1      -2.781  12.387  19.978  0.00  0.00    +0.000 NA
ATOM     27  N   UNL     1      -4.135  12.585  20.185  0.00  0.00    +0.000 NA
ATOM     28  C   UNL     1      -4.771  12.136  19.137  0.00  0.00    +0.000 A 
ATOM     29  N   UNL     1      -3.876  11.685  18.221  0.00  0.00    +0.000 N 
ATOM     30  C   UNL     1      -4.189  11.205  16.894  0.00  0.00    +0.000 C 
ENDBRANCH  24  25
ENDBRANCH  23  24
ENDBRANCH   1  23
TORSDOF 5
ENDMDL
MODEL 7
REMARK VINA RESULT:      -8.5      2.077      2.583
REMARK  Name = 
REMARK  7 active torsions:
REMARK  status: ('A' for Active; 'I' for Inactive)
REMARK    1  A    between atoms: C_1  and  C_2
REMARK    2  A    between atoms: C_2  and  S_3
REMARK    3  A    between atoms: C_2  and  C_10
REMARK    4  A    between atoms: S_3  and  C_4
REMARK    5  A    between atoms: N_8  and  C_9
REMARK    6  A    between atoms: C_15  and  N_16
REMARK    7  A    between atoms: C_23  and  C_24
REMARK                            x       y       z     vdW  Elec       q    Type
REMARK                         _______ _______ _______ _____ _____    ______ ____
ROOT
ATOM      1  C   UNL     1       4.410   5.262  17.066  0.00  0.00    +0.000 A 
ATOM      2  C   UNL     1       3.708   4.052  16.942  0.00  0.00    +0.000 A 
ATOM      3  C   UNL     1       2.502   3.883  17.618  0.00  0.00    +0.000 A 
ATOM      4  F   UNL     1       1.812   2.742  17.446  0.00  0.00    +0.000 F 
ATOM      5  C   UNL     1       1.977   4.873  18.419  0.00  0.00    +0.000 A 
ATOM      6  C   UNL     1       2.637   6.084  18.554  0.00  0.00    +0.000 A 
ATOM      7  C   UNL     1       3.850   6.257  17.884  0.00  0.00    +0.000 A 
ENDROOT
BRANCH   6   8
ATOM      8  N   UNL     1       2.096   7.141  19.302  0.00  0.00    +0.000 N 
ATOM      9  C   UNL     1       1.823   8.455  18.735  0.00  0.00    +0.000 C 
ATOM     10  C   UNL     1       1.200   9.184  19.875  0.00  0.00    +0.000 A 
ATOM     11  C   UNL     1       1.108   8.335  20.981  0.00  0.00    +0.000 A 
ATOM     12  C   UNL     1       0.584   8.728  22.193  0.00  0.00    +0.000 A 
ATOM     13  C   UNL     1       0.135  10.043  22.300  0.00  0.00    +0.000 A 
ATOM     14  C   UNL     1       0.212  10.912  21.195  0.00  0.00    +0.000 A 
ATOM     15  C   UNL     1       0.742  10.496  19.958  0.00  0.00    +0.000 A 
ATOM     16  C   UNL     1       1.653   7.035  20.616  0.00  0.00    +0.000 C 
ATOM     17  O   UNL     1       1.667   6.100  21.393  0.00  0.00    +0.000 OA
BRANCH  15  18
ATOM     18  C   UNL     1       0.789  11.443  18.791  0.00  0.00    +0.000 C 
ATOM     19  F   UNL     1       0.478  12.726  19.128  0.00  0.00    +0.000 F 
ATOM     20  F   UNL     1       2.023  11.501  18.218  0.00  0.00    +0.000 F 
ATOM     21  F   UNL     1      -0.074  11.102  17.797  0.00  0.00    +0.000 F 
ENDBRANCH  15  18
ENDBRANCH   6   8
BRANCH   1  23
ATOM     22  C   UNL     1       6.797   5.915  17.326  0.00  0.00    +0.000 C 
ATOM     23  C   UNL     1       5.719   5.516  16.313  0.00  0.00    +0.000 C 
BRANCH  23  24
ATOM     24  S   UNL     1       6.202   4.013  15.382  0.00  0.00    +0.000 S 
BRANCH  24  25
ATOM     25  C   UNL     1       7.057   4.615  14.002  0.00  0.00    +0.000 A 
ATOM     26  N   UNL     1       8.003   5.540  13.976  0.00  0.00    +0.000 NA
ATOM     27  N   UNL     1       8.280   5.804  12.647  0.00  0.00    +0.000 NA
ATOM     28  C   UNL     1       7.515   5.038  11.917  0.00  0.00    +0.000 A 
ATOM     29  N   UNL     1       6.769   4.241  12.723  0.00  0.00    +0.000 N 
ATOM     30  C   UNL     1       5.875   3.191  12.288  0.00  0.00    +0.000 C 
ENDBRANCH  24  25
ENDBRANCH  23  24
ENDBRANCH   1  23
TORSDOF 5
ENDMDL
MODEL 8
REMARK VINA RESULT:      -8.5      2.095      2.762
REMARK  Name = 
REMARK  7 active torsions:
REMARK  status: ('A' for Active; 'I' for Inactive)
REMARK    1  A    between atoms: C_1  and  C_2
REMARK    2  A    between atoms: C_2  and  S_3
REMARK    3  A    between atoms: C_2  and  C_10
REMARK    4  A    between atoms: S_3  and  C_4
REMARK    5  A    between atoms: N_8  and  C_9
REMARK    6  A    between atoms: C_15  and  N_16
REMARK    7  A    between atoms: C_23  and  C_24
REMARK                            x       y       z     vdW  Elec       q    Type
REMARK                         _______ _______ _______ _____ _____    ______ ____
ROOT
ATOM      1  C   UNL     1       3.383   3.314  19.517  0.00  0.00    +0.000 A 
ATOM      2  C   UNL     1       2.715   2.555  20.492  0.00  0.00    +0.000 A 
ATOM      3  C   UNL     1       1.780   3.170  21.323  0.00  0.00    +0.000 A 
ATOM      4  F   UNL     1       1.107   2.422  22.213  0.00  0.00    +0.000 F 
ATOM      5  C   UNL     1       1.495   4.514  21.220  0.00  0.00    +0.000 A 
ATOM      6  C   UNL     1       2.126   5.289  20.260  0.00  0.00    +0.000 A 
ATOM      7  C   UNL     1       3.069   4.680  19.430  0.00  0.00    +0.000 A 
ENDROOT
BRANCH   6   8
ATOM      8  N   UNL     1       1.808   6.644  20.078  0.00  0.00    +0.000 N 
ATOM      9  C   UNL     1       1.200   7.462  21.119  0.00  0.00    +0.000 C 
ATOM     10  C   UNL     1       1.133   8.809  20.484  0.00  0.00    +0.000 A 
ATOM     11  C   UNL     1       1.685   8.751  19.202  0.00  0.00    +0.000 A 
ATOM     12  C   UNL     1       1.755   9.840  18.361  0.00  0.00    +0.000 A 
ATOM     13  C   UNL     1       1.239  11.046  18.831  0.00  0.00    +0.000 A 
ATOM     14  C   UNL     1       0.686  11.127  20.123  0.00  0.00    +0.000 A 
ATOM     15  C   UNL     1       0.627  10.008  20.977  0.00  0.00    +0.000 A 
ATOM     16  C   UNL     1       2.133   7.389  18.950  0.00  0.00    +0.000 C 
ATOM     17  O   UNL     1       2.680   7.072  17.911  0.00  0.00    +0.000 OA
BRANCH  15  18
ATOM     18  C   UNL     1       0.051  10.134  22.360  0.00  0.00    +0.000 C 
ATOM     19  F   UNL     1      -1.068   9.379  22.546  0.00  0.00    +0.000 F 
ATOM     20  F   UNL     1       0.926   9.741  23.326  0.00  0.00    +0.000 F 
ATOM     21  F   UNL     1      -0.308  11.409  22.671  0.00  0.00    +0.000 F 
ENDBRANCH  15  18
ENDBRANCH   6   8
BRANCH   1  23
ATOM     22  C   UNL     1       3.917   1.264  18.212  0.00  0.00    +0.000 C 
ATOM     23  C   UNL     1       4.389   2.681  18.553  0.00  0.00    +0.000 C 
BRANCH  23  24
ATOM     24  S   UNL     1       4.540   3.714  17.045  0.00  0.00    +0.000 S 
BRANCH  24  25
ATOM     25  C   UNL     1       5.915   4.721  17.347  0.00  0.00    +0.000 A 
ATOM     26  N   UNL     1       6.905   4.506  18.198  0.00  0.00    +0.000 NA
ATOM     27  N   UNL     1       7.690   5.645  18.209  0.00  0.00    +0.000 NA
ATOM     28  C   UNL     1       7.169   6.499  17.369  0.00  0.00    +0.000 A 
ATOM     29  N   UNL     1       6.086   5.944  16.770  0.00  0.00    +0.000 N 
ATOM     30  C   UNL     1       5.302   6.541  15.711  0.00  0.00    +0.000 C 
ENDBRANCH  24  25
ENDBRANCH  23  24
ENDBRANCH   1  23
TORSDOF 5
ENDMDL
MODEL 9
REMARK VINA RESULT:      -8.5      3.961      8.951
REMARK  Name = 
REMARK  7 active torsions:
REMARK  status: ('A' for Active; 'I' for Inactive)
REMARK    1  A    between atoms: C_1  and  C_2
REMARK    2  A    between atoms: C_2  and  S_3
REMARK    3  A    between atoms: C_2  and  C_10
REMARK    4  A    between atoms: S_3  and  C_4
REMARK    5  A    between atoms: N_8  and  C_9
REMARK    6  A    between atoms: C_15  and  N_16
REMARK    7  A    between atoms: C_23  and  C_24
REMARK                            x       y       z     vdW  Elec       q    Type
REMARK                         _______ _______ _______ _____ _____    ______ ____
ROOT
ATOM      1  C   UNL     1       0.184  10.815  20.351  0.00  0.00    +0.000 A 
ATOM      2  C   UNL     1      -0.056  10.805  21.735  0.00  0.00    +0.000 A 
ATOM      3  C   UNL     1       0.301   9.688  22.488  0.00  0.00    +0.000 A 
ATOM      4  F   UNL     1       0.118   9.714  23.820  0.00  0.00    +0.000 F 
ATOM      5  C   UNL     1       0.880   8.581  21.910  0.00  0.00    +0.000 A 
ATOM      6  C   UNL     1       1.144   8.562  20.549  0.00  0.00    +0.000 A 
ATOM      7  C   UNL     1       0.781   9.675  19.788  0.00  0.00    +0.000 A 
ENDROOT
BRANCH   6   8
ATOM      8  N   UNL     1       1.799   7.482  19.938  0.00  0.00    +0.000 N 
ATOM      9  C   UNL     1       1.660   6.107  20.399  0.00  0.00    +0.000 C 
ATOM     10  C   UNL     1       2.465   5.342  19.406  0.00  0.00    +0.000 A 
ATOM     11  C   UNL     1       2.988   6.217  18.451  0.00  0.00    +0.000 A 
ATOM     12  C   UNL     1       3.786   5.806  17.407  0.00  0.00    +0.000 A 
ATOM     13  C   UNL     1       4.079   4.446  17.322  0.00  0.00    +0.000 A 
ATOM     14  C   UNL     1       3.555   3.547  18.269  0.00  0.00    +0.000 A 
ATOM     15  C   UNL     1       2.733   3.978  19.328  0.00  0.00    +0.000 A 
ATOM     16  C   UNL     1       2.550   7.569  18.771  0.00  0.00    +0.000 C 
ATOM     17  O   UNL     1       2.845   8.524  18.078  0.00  0.00    +0.000 OA
BRANCH  15  18
ATOM     18  C   UNL     1       2.171   2.987  20.310  0.00  0.00    +0.000 C 
ATOM     19  F   UNL     1       0.821   3.089  20.463  0.00  0.00    +0.000 F 
ATOM     20  F   UNL     1       2.404   1.698  19.937  0.00  0.00    +0.000 F 
ATOM     21  F   UNL     1       2.696   3.121  21.557  0.00  0.00    +0.000 F 
ENDBRANCH  15  18
ENDBRANCH   6   8
BRANCH   1  23
ATOM     22  C   UNL     1       1.133  12.519  18.806  0.00  0.00    +0.000 C 
ATOM     23  C   UNL     1      -0.152  12.030  19.483  0.00  0.00    +0.000 C 
BRANCH  23  24
ATOM     24  S   UNL     1      -1.426  11.576  18.244  0.00  0.00    +0.000 S 
BRANCH  24  25
ATOM     25  C   UNL     1      -2.925  12.027  18.981  0.00  0.00    +0.000 A 
ATOM     26  N   UNL     1      -3.113  12.544  20.184  0.00  0.00    +0.000 NA
ATOM     27  N   UNL     1      -4.478  12.595  20.399  0.00  0.00    +0.000 NA
ATOM     28  C   UNL     1      -5.070  12.127  19.334  0.00  0.00    +0.000 A 
ATOM     29  N   UNL     1      -4.139  11.805  18.401  0.00  0.00    +0.000 N 
ATOM     30  C   UNL     1      -4.407  11.349  17.055  0.00  0.00    +0.000 C 
ENDBRANCH  24  25
ENDBRANCH  23  24
ENDBRANCH   1  23
TORSDOF 5
ENDMDL
