MODEL 1
REMARK VINA RESULT:      -9.8      0.000      0.000
REMARK  Name = 
REMARK  9 active torsions:
REMARK  status: ('A' for Active; 'I' for Inactive)
REMARK    1  A    between atoms: C_1  and  C_2
REMARK    2  A    between atoms: C_6  and  C_7
REMARK    3  A    between atoms: C_7  and  C_8
REMARK    4  A    between atoms: C_8  and  C_9
REMARK    5  A    between atoms: C_8  and  C_10
REMARK    6  A    between atoms: C_14  and  N_15
REMARK    7  A    between atoms: C_20  and  C_21
REMARK    8  A    between atoms: C_26  and  O_27
REMARK    9  A    between atoms: C_30  and  C_31
REMARK                            x       y       z     vdW  Elec       q    Type
REMARK                         _______ _______ _______ _____ _____    ______ ____
ROOT
ATOM      1  N   UNL     1       2.088   7.546  19.363  0.00  0.00    +0.000 N 
ATOM      2  C   UNL     1       1.401   7.887  20.587  0.00  0.00    +0.000 C 
ATOM      3  C   UNL     1       0.913   9.264  20.369  0.00  0.00    +0.000 A 
ATOM      4  C   UNL     1       1.220   9.676  19.075  0.00  0.00    +0.000 A 
ATOM      5  C   UNL     1       0.820  10.919  18.606  0.00  0.00    +0.000 A 
ATOM      6  C   UNL     1       0.150  11.776  19.499  0.00  0.00    +0.000 A 
ATOM      7  C   UNL     1      -0.140  11.330  20.817  0.00  0.00    +0.000 A 
ATOM      8  C   UNL     1       0.232  10.063  21.274  0.00  0.00    +0.000 A 
ATOM      9  C   UNL     1       1.998   8.582  18.425  0.00  0.00    +0.000 C 
ATOM     10  O   UNL     1       2.451   8.674  17.298  0.00  0.00    +0.000 OA
ENDROOT
BRANCH   6  11
ATOM     11  C   UNL     1      -0.325  13.161  19.189  0.00  0.00    +0.000 C 
ATOM     12  O   UNL     1      -1.532  13.382  19.319  0.00  0.00    +0.000 OA
ATOM     13  N   UNL     1       0.549  14.181  18.865  0.00  0.00    +0.000 N 
ATOM     14  C   UNL     1       0.058  15.555  18.848  0.00  0.00    +0.000 C 
ATOM     15  C   UNL     1       1.277  16.433  18.601  0.00  0.00    +0.000 C 
ATOM     16  C   UNL     1       2.455  15.557  19.005  0.00  0.00    +0.000 C 
ATOM     17  C   UNL     1       1.984  14.148  18.662  0.00  0.00    +0.000 C 
BRANCH  16  18
ATOM     18  O   UNL     1       3.639  15.922  18.318  0.00  0.00    +0.000 OA
ATOM     19  H   UNL     1       3.663  15.448  17.469  0.00  0.00    +0.000 HD
ENDBRANCH  16  18
ENDBRANCH   6  11
BRANCH   1  24
ATOM     20  C   UNL     1       4.288   4.848  17.984  0.00  0.00    +0.000 A 
ATOM     21  C   UNL     1       4.074   3.828  18.904  0.00  0.00    +0.000 A 
ATOM     22  C   UNL     1       3.272   4.054  20.033  0.00  0.00    +0.000 A 
ATOM     23  C   UNL     1       2.621   5.284  20.233  0.00  0.00    +0.000 A 
ATOM     24  C   UNL     1       2.772   6.302  19.300  0.00  0.00    +0.000 A 
ATOM     25  C   UNL     1       3.629   6.065  18.205  0.00  0.00    +0.000 A 
BRANCH  20  26
ATOM     26  C   UNL     1       5.152   4.732  16.734  0.00  0.00    +0.000 C 
ATOM     27  C   UNL     1       4.657   3.556  15.880  0.00  0.00    +0.000 C 
BRANCH  26  28
ATOM     28  C   UNL     1       6.673   4.643  16.968  0.00  0.00    +0.000 C 
BRANCH  28  34
ATOM     29  C   UNL     1       7.861   5.550  19.906  0.00  0.00    +0.000 C 
ATOM     30  C   UNL     1       7.792   6.330  18.653  0.00  0.00    +0.000 A 
ATOM     31  C   UNL     1       8.199   7.628  18.452  0.00  0.00    +0.000 A 
ATOM     32  O   UNL     1       7.995   7.984  17.164  0.00  0.00    +0.000 OA
ATOM     33  N   UNL     1       7.438   6.924  16.478  0.00  0.00    +0.000 NA
ATOM     34  C   UNL     1       7.290   5.942  17.379  0.00  0.00    +0.000 A 
ENDBRANCH  28  34
ENDBRANCH  26  28
ENDBRANCH  20  26
ENDBRANCH   1  24
BRANCH   8  35
ATOM     35  C   UNL     1      -0.089   9.606  22.676  0.00  0.00    +0.000 C 
ATOM     36  F   UNL     1       1.012   9.281  23.411  0.00  0.00    +0.000 F 
ATOM     37  F   UNL     1      -0.738  10.559  23.395  0.00  0.00    +0.000 F 
ATOM     38  F   UNL     1      -0.879   8.501  22.696  0.00  0.00    +0.000 F 
ENDBRANCH   8  35
TORSDOF 7
ENDMDL
MODEL 2
REMARK VINA RESULT:      -9.8      1.587      2.414
REMARK  Name = 
REMARK  9 active torsions:
REMARK  status: ('A' for Active; 'I' for Inactive)
REMARK    1  A    between atoms: C_1  and  C_2
REMARK    2  A    between atoms: C_6  and  C_7
REMARK    3  A    between atoms: C_7  and  C_8
REMARK    4  A    between atoms: C_8  and  C_9
REMARK    5  A    between atoms: C_8  and  C_10
REMARK    6  A    between atoms: C_14  and  N_15
REMARK    7  A    between atoms: C_20  and  C_21
REMARK    8  A    between atoms: C_26  and  O_27
REMARK    9  A    between atoms: C_30  and  C_31
REMARK                            x       y       z     vdW  Elec       q    Type
REMARK                         _______ _______ _______ _____ _____    ______ ____
ROOT
ATOM      1  N   UNL     1       1.896   7.992  19.183  0.00  0.00    +0.000 N 
ATOM      2  C   UNL     1       1.256   8.180  20.464  0.00  0.00    +0.000 C 
ATOM      3  C   UNL     1       0.687   9.542  20.398  0.00  0.00    +0.000 A 
ATOM      4  C   UNL     1       0.905  10.086  19.136  0.00  0.00    +0.000 A 
ATOM      5  C   UNL     1       0.418  11.343  18.805  0.00  0.00    +0.000 A 
ATOM      6  C   UNL     1      -0.250  12.075  19.804  0.00  0.00    +0.000 A 
ATOM      7  C   UNL     1      -0.448  11.495  21.086  0.00  0.00    +0.000 A 
ATOM      8  C   UNL     1       0.012  10.215  21.405  0.00  0.00    +0.000 A 
ATOM      9  C   UNL     1       1.706   9.102  18.351  0.00  0.00    +0.000 C 
ATOM     10  O   UNL     1       2.095   9.322  17.218  0.00  0.00    +0.000 OA
ENDROOT
BRANCH   6  11
ATOM     11  C   UNL     1      -0.811  13.453  19.647  0.00  0.00    +0.000 C 
ATOM     12  O   UNL     1      -1.984  13.624  19.991  0.00  0.00    +0.000 OA
ATOM     13  N   UNL     1      -0.036  14.519  19.230  0.00  0.00    +0.000 N 
ATOM     14  C   UNL     1      -0.563  15.873  19.364  0.00  0.00    +0.000 C 
ATOM     15  C   UNL     1       0.569  16.806  18.957  0.00  0.00    +0.000 C 
ATOM     16  C   UNL     1       1.825  15.958  19.112  0.00  0.00    +0.000 C 
ATOM     17  C   UNL     1       1.343  14.548  18.785  0.00  0.00    +0.000 C 
BRANCH  16  18
ATOM     18  O   UNL     1       2.862  16.396  18.253  0.00  0.00    +0.000 OA
ATOM     19  H   UNL     1       3.261  15.618  17.826  0.00  0.00    +0.000 HD
ENDBRANCH  16  18
ENDBRANCH   6  11
BRANCH   1  24
ATOM     20  C   UNL     1       4.383   5.668  17.619  0.00  0.00    +0.000 A 
ATOM     21  C   UNL     1       4.097   4.481  18.284  0.00  0.00    +0.000 A 
ATOM     22  C   UNL     1       3.144   4.460  19.313  0.00  0.00    +0.000 A 
ATOM     23  C   UNL     1       2.416   5.611  19.658  0.00  0.00    +0.000 A 
ATOM     24  C   UNL     1       2.640   6.799  18.973  0.00  0.00    +0.000 A 
ATOM     25  C   UNL     1       3.644   6.803  17.982  0.00  0.00    +0.000 A 
BRANCH  20  26
ATOM     26  C   UNL     1       5.408   5.823  16.503  0.00  0.00    +0.000 C 
ATOM     27  C   UNL     1       4.918   6.882  15.505  0.00  0.00    +0.000 C 
BRANCH  26  28
ATOM     28  C   UNL     1       5.817   4.528  15.775  0.00  0.00    +0.000 C 
BRANCH  28  34
ATOM     29  C   UNL     1       5.430   3.445  12.685  0.00  0.00    +0.000 C 
ATOM     30  C   UNL     1       6.509   4.285  13.245  0.00  0.00    +0.000 A 
ATOM     31  C   UNL     1       7.607   4.785  12.586  0.00  0.00    +0.000 A 
ATOM     32  O   UNL     1       8.356   5.529  13.430  0.00  0.00    +0.000 OA
ATOM     33  N   UNL     1       7.770   5.535  14.680  0.00  0.00    +0.000 NA
ATOM     34  C   UNL     1       6.677   4.765  14.574  0.00  0.00    +0.000 A 
ENDBRANCH  28  34
ENDBRANCH  26  28
ENDBRANCH  20  26
ENDBRANCH   1  24
BRANCH   8  35
ATOM     35  C   UNL     1      -0.213   9.615  22.771  0.00  0.00    +0.000 C 
ATOM     36  F   UNL     1      -0.894   8.435  22.745  0.00  0.00    +0.000 F 
ATOM     37  F   UNL     1       0.952   9.348  23.417  0.00  0.00    +0.000 F 
ATOM     38  F   UNL     1      -0.930  10.432  23.587  0.00  0.00    +0.000 F 
ENDBRANCH   8  35
TORSDOF 7
ENDMDL
MODEL 3
REMARK VINA RESULT:      -9.7      1.088      2.099
REMARK  Name = 
REMARK  9 active torsions:
REMARK  status: ('A' for Active; 'I' for Inactive)
REMARK    1  A    between atoms: C_1  and  C_2
REMARK    2  A    between atoms: C_6  and  C_7
REMARK    3  A    between atoms: C_7  and  C_8
REMARK    4  A    between atoms: C_8  and  C_9
REMARK    5  A    between atoms: C_8  and  C_10
REMARK    6  A    between atoms: C_14  and  N_15
REMARK    7  A    between atoms: C_20  and  C_21
REMARK    8  A    between atoms: C_26  and  O_27
REMARK    9  A    between atoms: C_30  and  C_31
REMARK                            x       y       z     vdW  Elec       q    Type
REMARK                         _______ _______ _______ _____ _____    ______ ____
ROOT
ATOM      1  N   UNL     1       2.208   7.406  19.561  0.00  0.00    +0.000 N 
ATOM      2  C   UNL     1       1.470   7.790  20.742  0.00  0.00    +0.000 C 
ATOM      3  C   UNL     1       0.936   9.131  20.426  0.00  0.00    +0.000 A 
ATOM      4  C   UNL     1       1.268   9.477  19.120  0.00  0.00    +0.000 A 
ATOM      5  C   UNL     1       0.835  10.674  18.566  0.00  0.00    +0.000 A 
ATOM      6  C   UNL     1       0.104  11.554  19.385  0.00  0.00    +0.000 A 
ATOM      7  C   UNL     1      -0.210  11.175  20.718  0.00  0.00    +0.000 A 
ATOM      8  C   UNL     1       0.195   9.953  21.261  0.00  0.00    +0.000 A 
ATOM      9  C   UNL     1       2.108   8.380  18.560  0.00  0.00    +0.000 C 
ATOM     10  O   UNL     1       2.593   8.424  17.443  0.00  0.00    +0.000 OA
ENDROOT
BRANCH   6  11
ATOM     11  C   UNL     1      -0.414  12.898  18.978  0.00  0.00    +0.000 C 
ATOM     12  O   UNL     1      -1.636  13.013  18.852  0.00  0.00    +0.000 OA
ATOM     13  N   UNL     1       0.417  13.994  18.841  0.00  0.00    +0.000 N 
ATOM     14  C   UNL     1      -0.177  15.321  18.718  0.00  0.00    +0.000 C 
ATOM     15  C   UNL     1       0.985  16.304  18.728  0.00  0.00    +0.000 C 
ATOM     16  C   UNL     1       2.125  15.526  19.373  0.00  0.00    +0.000 C 
ATOM     17  C   UNL     1       1.859  14.087  18.942  0.00  0.00    +0.000 C 
BRANCH  16  18
ATOM     18  O   UNL     1       3.390  16.001  18.947  0.00  0.00    +0.000 OA
ATOM     19  H   UNL     1       4.017  15.256  18.947  0.00  0.00    +0.000 HD
ENDBRANCH  16  18
ENDBRANCH   6  11
BRANCH   1  24
ATOM     20  C   UNL     1       5.056   5.040  18.998  0.00  0.00    +0.000 A 
ATOM     21  C   UNL     1       4.492   3.837  19.406  0.00  0.00    +0.000 A 
ATOM     22  C   UNL     1       3.199   3.813  19.953  0.00  0.00    +0.000 A 
ATOM     23  C   UNL     1       2.424   4.981  20.047  0.00  0.00    +0.000 A 
ATOM     24  C   UNL     1       2.941   6.188  19.593  0.00  0.00    +0.000 A 
ATOM     25  C   UNL     1       4.263   6.191  19.102  0.00  0.00    +0.000 A 
BRANCH  20  26
ATOM     26  C   UNL     1       6.452   5.198  18.410  0.00  0.00    +0.000 C 
ATOM     27  C   UNL     1       7.430   5.605  19.523  0.00  0.00    +0.000 C 
BRANCH  26  28
ATOM     28  C   UNL     1       6.575   6.140  17.197  0.00  0.00    +0.000 C 
BRANCH  28  34
ATOM     29  C   UNL     1       4.378   4.057  15.892  0.00  0.00    +0.000 C 
ATOM     30  C   UNL     1       5.667   4.514  15.334  0.00  0.00    +0.000 A 
ATOM     31  C   UNL     1       6.238   4.146  14.139  0.00  0.00    +0.000 A 
ATOM     32  O   UNL     1       7.411   4.797  13.965  0.00  0.00    +0.000 OA
ATOM     33  N   UNL     1       7.648   5.613  15.053  0.00  0.00    +0.000 NA
ATOM     34  C   UNL     1       6.615   5.421  15.886  0.00  0.00    +0.000 A 
ENDBRANCH  28  34
ENDBRANCH  26  28
ENDBRANCH  20  26
ENDBRANCH   1  24
BRANCH   8  35
ATOM     35  C   UNL     1      -0.152   9.567  22.678  0.00  0.00    +0.000 C 
ATOM     36  F   UNL     1      -0.909   8.438  22.767  0.00  0.00    +0.000 F 
ATOM     37  F   UNL     1       0.950   9.327  23.434  0.00  0.00    +0.000 F 
ATOM     38  F   UNL     1      -0.860  10.532  23.322  0.00  0.00    +0.000 F 
ENDBRANCH   8  35
TORSDOF 7
ENDMDL
MODEL 4
REMARK VINA RESULT:      -9.4      1.264      1.455
REMARK  Name = 
REMARK  9 active torsions:
REMARK  status: ('A' for Active; 'I' for Inactive)
REMARK    1  A    between atoms: C_1  and  C_2
REMARK    2  A    between atoms: C_6  and  C_7
REMARK    3  A    between atoms: C_7  and  C_8
REMARK    4  A    between atoms: C_8  and  C_9
REMARK    5  A    between atoms: C_8  and  C_10
REMARK    6  A    between atoms: C_14  and  N_15
REMARK    7  A    between atoms: C_20  and  C_21
REMARK    8  A    between atoms: C_26  and  O_27
REMARK    9  A    between atoms: C_30  and  C_31
REMARK                            x       y       z     vdW  Elec       q    Type
REMARK                         _______ _______ _______ _____ _____    ______ ____
ROOT
ATOM      1  N   UNL     1       2.107   7.522  19.351  0.00  0.00    +0.000 N 
ATOM      2  C   UNL     1       1.403   7.847  20.570  0.00  0.00    +0.000 C 
ATOM      3  C   UNL     1       0.977   9.250  20.390  0.00  0.00    +0.000 A 
ATOM      4  C   UNL     1       1.334   9.695  19.120  0.00  0.00    +0.000 A 
ATOM      5  C   UNL     1       0.998  10.970  18.688  0.00  0.00    +0.000 A 
ATOM      6  C   UNL     1       0.339  11.821  19.595  0.00  0.00    +0.000 A 
ATOM      7  C   UNL     1      -0.003  11.340  20.887  0.00  0.00    +0.000 A 
ATOM      8  C   UNL     1       0.304  10.044  21.306  0.00  0.00    +0.000 A 
ATOM      9  C   UNL     1       2.085   8.594  18.450  0.00  0.00    +0.000 C 
ATOM     10  O   UNL     1       2.571   8.708  17.339  0.00  0.00    +0.000 OA
ENDROOT
BRANCH   6  11
ATOM     11  C   UNL     1      -0.071  13.235  19.324  0.00  0.00    +0.000 C 
ATOM     12  O   UNL     1      -0.777  13.434  18.333  0.00  0.00    +0.000 OA
ATOM     13  N   UNL     1       0.238  14.267  20.191  0.00  0.00    +0.000 N 
ATOM     14  C   UNL     1      -0.421  15.557  20.018  0.00  0.00    +0.000 C 
ATOM     15  C   UNL     1       0.020  16.415  21.195  0.00  0.00    +0.000 C 
ATOM     16  C   UNL     1       0.486  15.407  22.237  0.00  0.00    +0.000 C 
ATOM     17  C   UNL     1       1.040  14.261  21.397  0.00  0.00    +0.000 C 
BRANCH  16  18
ATOM     18  O   UNL     1       1.452  15.964  23.110  0.00  0.00    +0.000 OA
ATOM     19  H   UNL     1       1.765  15.267  23.712  0.00  0.00    +0.000 HD
ENDBRANCH  16  18
ENDBRANCH   6  11
BRANCH   1  24
ATOM     20  C   UNL     1       4.233   4.786  17.929  0.00  0.00    +0.000 A 
ATOM     21  C   UNL     1       3.952   3.744  18.806  0.00  0.00    +0.000 A 
ATOM     22  C   UNL     1       3.130   3.962  19.922  0.00  0.00    +0.000 A 
ATOM     23  C   UNL     1       2.525   5.210  20.150  0.00  0.00    +0.000 A 
ATOM     24  C   UNL     1       2.741   6.253  19.259  0.00  0.00    +0.000 A 
ATOM     25  C   UNL     1       3.618   6.021  18.179  0.00  0.00    +0.000 A 
BRANCH  20  26
ATOM     26  C   UNL     1       5.124   4.680  16.699  0.00  0.00    +0.000 C 
ATOM     27  C   UNL     1       4.651   3.509  15.826  0.00  0.00    +0.000 C 
BRANCH  26  28
ATOM     28  C   UNL     1       6.640   4.592  16.966  0.00  0.00    +0.000 C 
BRANCH  28  34
ATOM     29  C   UNL     1       7.841   5.543  19.885  0.00  0.00    +0.000 C 
ATOM     30  C   UNL     1       7.760   6.306  18.623  0.00  0.00    +0.000 A 
ATOM     31  C   UNL     1       8.161   7.602  18.402  0.00  0.00    +0.000 A 
ATOM     32  O   UNL     1       7.948   7.941  17.111  0.00  0.00    +0.000 OA
ATOM     33  N   UNL     1       7.391   6.870  16.442  0.00  0.00    +0.000 NA
ATOM     34  C   UNL     1       7.253   5.899  17.356  0.00  0.00    +0.000 A 
ENDBRANCH  28  34
ENDBRANCH  26  28
ENDBRANCH  20  26
ENDBRANCH   1  24
BRANCH   8  35
ATOM     35  C   UNL     1      -0.072   9.551  22.682  0.00  0.00    +0.000 C 
ATOM     36  F   UNL     1      -0.742  10.472  23.429  0.00  0.00    +0.000 F 
ATOM     37  F   UNL     1      -0.881   8.460  22.638  0.00  0.00    +0.000 F 
ATOM     38  F   UNL     1       1.011   9.199  23.423  0.00  0.00    +0.000 F 
ENDBRANCH   8  35
TORSDOF 7
ENDMDL
MODEL 5
REMARK VINA RESULT:      -9.4      0.879      1.226
REMARK  Name = 
REMARK  9 active torsions:
REMARK  status: ('A' for Active; 'I' for Inactive)
REMARK    1  A    between atoms: C_1  and  C_2
REMARK    2  A    between atoms: C_6  and  C_7
REMARK    3  A    between atoms: C_7  and  C_8
REMARK    4  A    between atoms: C_8  and  C_9
REMARK    5  A    between atoms: C_8  and  C_10
REMARK    6  A    between atoms: C_14  and  N_15
REMARK    7  A    between atoms: C_20  and  C_21
REMARK    8  A    between atoms: C_26  and  O_27
REMARK    9  A    between atoms: C_30  and  C_31
REMARK                            x       y       z     vdW  Elec       q    Type
REMARK                         _______ _______ _______ _____ _____    ______ ____
ROOT
ATOM      1  N   UNL     1       2.015   7.749  19.263  0.00  0.00    +0.000 N 
ATOM      2  C   UNL     1       1.353   8.033  20.515  0.00  0.00    +0.000 C 
ATOM      3  C   UNL     1       0.879   9.426  20.376  0.00  0.00    +0.000 A 
ATOM      4  C   UNL     1       1.170   9.901  19.101  0.00  0.00    +0.000 A 
ATOM      5  C   UNL     1       0.779  11.173  18.705  0.00  0.00    +0.000 A 
ATOM      6  C   UNL     1       0.134  11.989  19.653  0.00  0.00    +0.000 A 
ATOM      7  C   UNL     1      -0.140  11.478  20.950  0.00  0.00    +0.000 A 
ATOM      8  C   UNL     1       0.222  10.184  21.334  0.00  0.00    +0.000 A 
ATOM      9  C   UNL     1       1.924   8.834  18.382  0.00  0.00    +0.000 C 
ATOM     10  O   UNL     1       2.360   8.980  17.254  0.00  0.00    +0.000 OA
ENDROOT
BRANCH   6  11
ATOM     11  C   UNL     1      -0.328  13.394  19.424  0.00  0.00    +0.000 C 
ATOM     12  O   UNL     1      -1.499  13.654  19.713  0.00  0.00    +0.000 OA
ATOM     13  N   UNL     1       0.532  14.389  19.000  0.00  0.00    +0.000 N 
ATOM     14  C   UNL     1       0.092  15.779  19.063  0.00  0.00    +0.000 C 
ATOM     15  C   UNL     1       1.298  16.620  18.669  0.00  0.00    +0.000 C 
ATOM     16  C   UNL     1       2.488  15.698  18.906  0.00  0.00    +0.000 C 
ATOM     17  C   UNL     1       1.926  14.312  18.611  0.00  0.00    +0.000 C 
BRANCH  16  18
ATOM     18  O   UNL     1       3.584  16.034  18.073  0.00  0.00    +0.000 OA
ATOM     19  H   UNL     1       3.252  16.544  17.314  0.00  0.00    +0.000 HD
ENDBRANCH  16  18
ENDBRANCH   6  11
BRANCH   1  24
ATOM     20  C   UNL     1       4.071   5.060  17.662  0.00  0.00    +0.000 A 
ATOM     21  C   UNL     1       3.927   4.027  18.582  0.00  0.00    +0.000 A 
ATOM     22  C   UNL     1       3.225   4.240  19.778  0.00  0.00    +0.000 A 
ATOM     23  C   UNL     1       2.603   5.470  20.051  0.00  0.00    +0.000 A 
ATOM     24  C   UNL     1       2.682   6.502  19.123  0.00  0.00    +0.000 A 
ATOM     25  C   UNL     1       3.442   6.277  17.957  0.00  0.00    +0.000 A 
BRANCH  20  26
ATOM     26  C   UNL     1       4.826   4.959  16.342  0.00  0.00    +0.000 C 
ATOM     27  C   UNL     1       5.125   3.484  16.038  0.00  0.00    +0.000 C 
BRANCH  26  28
ATOM     28  C   UNL     1       6.101   5.815  16.224  0.00  0.00    +0.000 C 
BRANCH  28  34
ATOM     29  C   UNL     1       7.660   8.304  17.723  0.00  0.00    +0.000 C 
ATOM     30  C   UNL     1       7.628   6.873  18.092  0.00  0.00    +0.000 A 
ATOM     31  C   UNL     1       8.267   6.268  19.147  0.00  0.00    +0.000 A 
ATOM     32  O   UNL     1       7.976   4.947  19.171  0.00  0.00    +0.000 OA
ATOM     33  N   UNL     1       7.134   4.645  18.119  0.00  0.00    +0.000 NA
ATOM     34  C   UNL     1       6.949   5.796  17.457  0.00  0.00    +0.000 A 
ENDBRANCH  28  34
ENDBRANCH  26  28
ENDBRANCH  20  26
ENDBRANCH   1  24
BRANCH   8  35
ATOM     35  C   UNL     1      -0.082   9.658  22.715  0.00  0.00    +0.000 C 
ATOM     36  F   UNL     1      -0.733  10.553  23.510  0.00  0.00    +0.000 F 
ATOM     37  F   UNL     1      -0.872   8.554  22.686  0.00  0.00    +0.000 F 
ATOM     38  F   UNL     1       1.040   9.312  23.399  0.00  0.00    +0.000 F 
ENDBRANCH   8  35
TORSDOF 7
ENDMDL
MODEL 6
REMARK VINA RESULT:      -9.3      1.263      2.109
REMARK  Name = 
REMARK  9 active torsions:
REMARK  status: ('A' for Active; 'I' for Inactive)
REMARK    1  A    between atoms: C_1  and  C_2
REMARK    2  A    between atoms: C_6  and  C_7
REMARK    3  A    between atoms: C_7  and  C_8
REMARK    4  A    between atoms: C_8  and  C_9
REMARK    5  A    between atoms: C_8  and  C_10
REMARK    6  A    between atoms: C_14  and  N_15
REMARK    7  A    between atoms: C_20  and  C_21
REMARK    8  A    between atoms: C_26  and  O_27
REMARK    9  A    between atoms: C_30  and  C_31
REMARK                            x       y       z     vdW  Elec       q    Type
REMARK                         _______ _______ _______ _____ _____    ______ ____
ROOT
ATOM      1  N   UNL     1       2.077   7.359  19.486  0.00  0.00    +0.000 N 
ATOM      2  C   UNL     1       1.365   7.782  20.670  0.00  0.00    +0.000 C 
ATOM      3  C   UNL     1       0.969   9.177  20.385  0.00  0.00    +0.000 A 
ATOM      4  C   UNL     1       1.350   9.524  19.092  0.00  0.00    +0.000 A 
ATOM      5  C   UNL     1       1.044  10.771  18.567  0.00  0.00    +0.000 A 
ATOM      6  C   UNL     1       0.392  11.697  19.402  0.00  0.00    +0.000 A 
ATOM      7  C   UNL     1       0.026  11.316  20.721  0.00  0.00    +0.000 A 
ATOM      8  C   UNL     1       0.302  10.046  21.235  0.00  0.00    +0.000 A 
ATOM      9  C   UNL     1       2.086   8.363  18.511  0.00  0.00    +0.000 C 
ATOM     10  O   UNL     1       2.587   8.389  17.401  0.00  0.00    +0.000 OA
ENDROOT
BRANCH   6  11
ATOM     11  C   UNL     1       0.013  13.095  19.027  0.00  0.00    +0.000 C 
ATOM     12  O   UNL     1      -1.181  13.314  18.810  0.00  0.00    +0.000 OA
ATOM     13  N   UNL     1       0.934  14.127  19.016  0.00  0.00    +0.000 N 
ATOM     14  C   UNL     1       0.455  15.501  18.916  0.00  0.00    +0.000 C 
ATOM     15  C   UNL     1       1.683  16.387  19.072  0.00  0.00    +0.000 C 
ATOM     16  C   UNL     1       2.702  15.491  19.764  0.00  0.00    +0.000 C 
ATOM     17  C   UNL     1       2.365  14.099  19.238  0.00  0.00    +0.000 C 
BRANCH  16  18
ATOM     18  O   UNL     1       4.031  15.882  19.467  0.00  0.00    +0.000 OA
ATOM     19  H   UNL     1       4.430  16.259  20.271  0.00  0.00    +0.000 HD
ENDBRANCH  16  18
ENDBRANCH   6  11
BRANCH   1  24
ATOM     20  C   UNL     1       4.291   4.550  18.376  0.00  0.00    +0.000 A 
ATOM     21  C   UNL     1       3.882   3.531  19.230  0.00  0.00    +0.000 A 
ATOM     22  C   UNL     1       2.937   3.788  20.234  0.00  0.00    +0.000 A 
ATOM     23  C   UNL     1       2.339   5.053  20.368  0.00  0.00    +0.000 A 
ATOM     24  C   UNL     1       2.686   6.075  19.493  0.00  0.00    +0.000 A 
ATOM     25  C   UNL     1       3.681   5.802  18.530  0.00  0.00    +0.000 A 
BRANCH  20  26
ATOM     26  C   UNL     1       5.321   4.400  17.264  0.00  0.00    +0.000 C 
ATOM     27  C   UNL     1       6.733   4.452  17.867  0.00  0.00    +0.000 C 
BRANCH  26  28
ATOM     28  C   UNL     1       5.190   5.381  16.083  0.00  0.00    +0.000 C 
BRANCH  28  34
ATOM     29  C   UNL     1       5.100   3.691  13.254  0.00  0.00    +0.000 C 
ATOM     30  C   UNL     1       6.213   4.472  13.832  0.00  0.00    +0.000 A 
ATOM     31  C   UNL     1       7.473   4.646  13.310  0.00  0.00    +0.000 A 
ATOM     32  O   UNL     1       8.204   5.447  14.117  0.00  0.00    +0.000 OA
ATOM     33  N   UNL     1       7.440   5.821  15.205  0.00  0.00    +0.000 NA
ATOM     34  C   UNL     1       6.256   5.213  15.047  0.00  0.00    +0.000 A 
ENDBRANCH  28  34
ENDBRANCH  26  28
ENDBRANCH  20  26
ENDBRANCH   1  24
BRANCH   8  35
ATOM     35  C   UNL     1      -0.099   9.660  22.637  0.00  0.00    +0.000 C 
ATOM     36  F   UNL     1       0.953   9.310  23.431  0.00  0.00    +0.000 F 
ATOM     37  F   UNL     1      -0.729  10.669  23.293  0.00  0.00    +0.000 F 
ATOM     38  F   UNL     1      -0.944   8.596  22.662  0.00  0.00    +0.000 F 
ENDBRANCH   8  35
TORSDOF 7
ENDMDL
MODEL 7
REMARK VINA RESULT:      -9.2      3.083      3.893
REMARK  Name = 
REMARK  9 active torsions:
REMARK  status: ('A' for Active; 'I' for Inactive)
REMARK    1  A    between atoms: C_1  and  C_2
REMARK    2  A    between atoms: C_6  and  C_7
REMARK    3  A    between atoms: C_7  and  C_8
REMARK    4  A    between atoms: C_8  and  C_9
REMARK    5  A    between atoms: C_8  and  C_10
REMARK    6  A    between atoms: C_14  and  N_15
REMARK    7  A    between atoms: C_20  and  C_21
REMARK    8  A    between atoms: C_26  and  O_27
REMARK    9  A    between atoms: C_30  and  C_31
REMARK                            x       y       z     vdW  Elec       q    Type
REMARK                         _______ _______ _______ _____ _____    ______ ____
ROOT
ATOM      1  N   UNL     1       2.575   6.225  19.192  0.00  0.00    +0.000 N 
ATOM      2  C   UNL     1       2.492   7.527  18.573  0.00  0.00    +0.000 C 
ATOM      3  C   UNL     1       1.733   8.349  19.538  0.00  0.00    +0.000 A 
ATOM      4  C   UNL     1       1.459   7.605  20.682  0.00  0.00    +0.000 A 
ATOM      5  C   UNL     1       0.798   8.171  21.762  0.00  0.00    +0.000 A 
ATOM      6  C   UNL     1       0.357   9.503  21.642  0.00  0.00    +0.000 A 
ATOM      7  C   UNL     1       0.644  10.233  20.457  0.00  0.00    +0.000 A 
ATOM      8  C   UNL     1       1.342   9.670  19.385  0.00  0.00    +0.000 A 
ATOM      9  C   UNL     1       1.979   6.225  20.459  0.00  0.00    +0.000 C 
ATOM     10  O   UNL     1       1.841   5.328  21.272  0.00  0.00    +0.000 OA
ENDROOT
BRANCH   6  11
ATOM     11  C   UNL     1      -0.399  10.269  22.681  0.00  0.00    +0.000 C 
ATOM     12  O   UNL     1      -0.157  10.004  23.861  0.00  0.00    +0.000 OA
ATOM     13  N   UNL     1      -1.261  11.298  22.350  0.00  0.00    +0.000 N 
ATOM     14  C   UNL     1      -1.748  12.180  23.406  0.00  0.00    +0.000 C 
ATOM     15  C   UNL     1      -2.544  13.273  22.707  0.00  0.00    +0.000 C 
ATOM     16  C   UNL     1      -2.036  13.243  21.271  0.00  0.00    +0.000 C 
ATOM     17  C   UNL     1      -1.686  11.775  21.050  0.00  0.00    +0.000 C 
BRANCH  16  18
ATOM     18  O   UNL     1      -3.012  13.718  20.360  0.00  0.00    +0.000 OA
ATOM     19  H   UNL     1      -3.659  13.008  20.201  0.00  0.00    +0.000 HD
ENDBRANCH  16  18
ENDBRANCH   6  11
BRANCH   1  24
ATOM     20  C   UNL     1       4.704   4.546  16.608  0.00  0.00    +0.000 A 
ATOM     21  C   UNL     1       4.311   3.221  16.755  0.00  0.00    +0.000 A 
ATOM     22  C   UNL     1       3.407   2.860  17.766  0.00  0.00    +0.000 A 
ATOM     23  C   UNL     1       2.834   3.825  18.611  0.00  0.00    +0.000 A 
ATOM     24  C   UNL     1       3.165   5.165  18.450  0.00  0.00    +0.000 A 
ATOM     25  C   UNL     1       4.119   5.490  17.463  0.00  0.00    +0.000 A 
BRANCH  20  26
ATOM     26  C   UNL     1       5.691   5.057  15.566  0.00  0.00    +0.000 C 
ATOM     27  C   UNL     1       5.373   4.417  14.207  0.00  0.00    +0.000 C 
BRANCH  26  28
ATOM     28  C   UNL     1       7.184   4.902  15.913  0.00  0.00    +0.000 C 
BRANCH  28  34
ATOM     29  C   UNL     1       7.393   7.890  17.291  0.00  0.00    +0.000 C 
ATOM     30  C   UNL     1       7.608   6.566  17.911  0.00  0.00    +0.000 A 
ATOM     31  C   UNL     1       7.963   6.299  19.212  0.00  0.00    +0.000 A 
ATOM     32  O   UNL     1       8.040   4.964  19.407  0.00  0.00    +0.000 OA
ATOM     33  N   UNL     1       7.740   4.309  18.230  0.00  0.00    +0.000 NA
ATOM     34  C   UNL     1       7.509   5.272  17.326  0.00  0.00    +0.000 A 
ENDBRANCH  28  34
ENDBRANCH  26  28
ENDBRANCH  20  26
ENDBRANCH   1  24
BRANCH   8  35
ATOM     35  C   UNL     1       1.640  10.463  18.137  0.00  0.00    +0.000 C 
ATOM     36  F   UNL     1       2.962  10.486  17.805  0.00  0.00    +0.000 F 
ATOM     37  F   UNL     1       1.000   9.971  17.044  0.00  0.00    +0.000 F 
ATOM     38  F   UNL     1       1.270  11.766  18.246  0.00  0.00    +0.000 F 
ENDBRANCH   8  35
TORSDOF 7
ENDMDL
MODEL 8
REMARK VINA RESULT:      -9.2      2.054      2.768
REMARK  Name = 
REMARK  9 active torsions:
REMARK  status: ('A' for Active; 'I' for Inactive)
REMARK    1  A    between atoms: C_1  and  C_2
REMARK    2  A    between atoms: C_6  and  C_7
REMARK    3  A    between atoms: C_7  and  C_8
REMARK    4  A    between atoms: C_8  and  C_9
REMARK    5  A    between atoms: C_8  and  C_10
REMARK    6  A    between atoms: C_14  and  N_15
REMARK    7  A    between atoms: C_20  and  C_21
REMARK    8  A    between atoms: C_26  and  O_27
REMARK    9  A    between atoms: C_30  and  C_31
REMARK                            x       y       z     vdW  Elec       q    Type
REMARK                         _______ _______ _______ _____ _____    ______ ____
ROOT
ATOM      1  N   UNL     1       1.913   7.966  19.159  0.00  0.00    +0.000 N 
ATOM      2  C   UNL     1       1.260   8.132  20.437  0.00  0.00    +0.000 C 
ATOM      3  C   UNL     1       0.767   9.525  20.423  0.00  0.00    +0.000 A 
ATOM      4  C   UNL     1       1.039  10.112  19.191  0.00  0.00    +0.000 A 
ATOM      5  C   UNL     1       0.628  11.407  18.910  0.00  0.00    +0.000 A 
ATOM      6  C   UNL     1      -0.018  12.130  19.930  0.00  0.00    +0.000 A 
ATOM      7  C   UNL     1      -0.273  11.506  21.181  0.00  0.00    +0.000 A 
ATOM      8  C   UNL     1       0.110  10.189  21.448  0.00  0.00    +0.000 A 
ATOM      9  C   UNL     1       1.799   9.121  18.376  0.00  0.00    +0.000 C 
ATOM     10  O   UNL     1       2.222   9.370  17.260  0.00  0.00    +0.000 OA
ENDROOT
BRANCH   6  11
ATOM     11  C   UNL     1      -0.501  13.543  19.827  0.00  0.00    +0.000 C 
ATOM     12  O   UNL     1      -1.459  13.756  19.080  0.00  0.00    +0.000 OA
ATOM     13  N   UNL     1       0.030  14.558  20.601  0.00  0.00    +0.000 N 
ATOM     14  C   UNL     1      -0.663  15.841  20.658  0.00  0.00    +0.000 C 
ATOM     15  C   UNL     1       0.083  16.676  21.689  0.00  0.00    +0.000 C 
ATOM     16  C   UNL     1       0.833  15.650  22.527  0.00  0.00    +0.000 C 
ATOM     17  C   UNL     1       1.140  14.535  21.533  0.00  0.00    +0.000 C 
BRANCH  16  18
ATOM     18  O   UNL     1       2.001  16.201  23.110  0.00  0.00    +0.000 OA
ATOM     19  H   UNL     1       2.181  15.735  23.945  0.00  0.00    +0.000 HD
ENDBRANCH  16  18
ENDBRANCH   6  11
BRANCH   1  24
ATOM     20  C   UNL     1       4.320   5.589  17.553  0.00  0.00    +0.000 A 
ATOM     21  C   UNL     1       3.941   4.386  18.137  0.00  0.00    +0.000 A 
ATOM     22  C   UNL     1       2.949   4.364  19.130  0.00  0.00    +0.000 A 
ATOM     23  C   UNL     1       2.276   5.537  19.515  0.00  0.00    +0.000 A 
ATOM     24  C   UNL     1       2.594   6.744  18.907  0.00  0.00    +0.000 A 
ATOM     25  C   UNL     1       3.634   6.744  17.954  0.00  0.00    +0.000 A 
BRANCH  20  26
ATOM     26  C   UNL     1       5.394   5.743  16.484  0.00  0.00    +0.000 C 
ATOM     27  C   UNL     1       5.001   6.877  15.526  0.00  0.00    +0.000 C 
BRANCH  26  28
ATOM     28  C   UNL     1       5.762   4.466  15.704  0.00  0.00    +0.000 C 
BRANCH  28  34
ATOM     29  C   UNL     1       5.449   3.386  12.605  0.00  0.00    +0.000 C 
ATOM     30  C   UNL     1       6.503   4.244  13.185  0.00  0.00    +0.000 A 
ATOM     31  C   UNL     1       7.602   4.767  12.547  0.00  0.00    +0.000 A 
ATOM     32  O   UNL     1       8.322   5.522  13.406  0.00  0.00    +0.000 OA
ATOM     33  N   UNL     1       7.715   5.513  14.645  0.00  0.00    +0.000 NA
ATOM     34  C   UNL     1       6.639   4.723  14.519  0.00  0.00    +0.000 A 
ENDBRANCH  28  34
ENDBRANCH  26  28
ENDBRANCH  20  26
ENDBRANCH   1  24
BRANCH   8  35
ATOM     35  C   UNL     1      -0.173   9.542  22.781  0.00  0.00    +0.000 C 
ATOM     36  F   UNL     1      -0.903   8.395  22.690  0.00  0.00    +0.000 F 
ATOM     37  F   UNL     1       0.964   9.198  23.442  0.00  0.00    +0.000 F 
ATOM     38  F   UNL     1      -0.873  10.354  23.616  0.00  0.00    +0.000 F 
ENDBRANCH   8  35
TORSDOF 7
ENDMDL
MODEL 9
REMARK VINA RESULT:      -9.1      1.140      1.448
REMARK  Name = 
REMARK  9 active torsions:
REMARK  status: ('A' for Active; 'I' for Inactive)
REMARK    1  A    between atoms: C_1  and  C_2
REMARK    2  A    between atoms: C_6  and  C_7
REMARK    3  A    between atoms: C_7  and  C_8
REMARK    4  A    between atoms: C_8  and  C_9
REMARK    5  A    between atoms: C_8  and  C_10
REMARK    6  A    between atoms: C_14  and  N_15
REMARK    7  A    between atoms: C_20  and  C_21
REMARK    8  A    between atoms: C_26  and  O_27
REMARK    9  A    between atoms: C_30  and  C_31
REMARK                            x       y       z     vdW  Elec       q    Type
REMARK                         _______ _______ _______ _____ _____    ______ ____
ROOT
ATOM      1  N   UNL     1       1.762   7.297  19.932  0.00  0.00    +0.000 N 
ATOM      2  C   UNL     1       1.034   7.826  21.062  0.00  0.00    +0.000 C 
ATOM      3  C   UNL     1       0.848   9.257  20.747  0.00  0.00    +0.000 A 
ATOM      4  C   UNL     1       1.359   9.535  19.483  0.00  0.00    +0.000 A 
ATOM      5  C   UNL     1       1.259  10.805  18.934  0.00  0.00    +0.000 A 
ATOM      6  C   UNL     1       0.681  11.820  19.720  0.00  0.00    +0.000 A 
ATOM      7  C   UNL     1       0.177  11.506  21.011  0.00  0.00    +0.000 A 
ATOM      8  C   UNL     1       0.246  10.217  21.546  0.00  0.00    +0.000 A 
ATOM      9  C   UNL     1       1.972   8.280  18.958  0.00  0.00    +0.000 C 
ATOM     10  O   UNL     1       2.547   8.226  17.885  0.00  0.00    +0.000 OA
ENDROOT
BRANCH   6  11
ATOM     11  C   UNL     1       0.518  13.251  19.316  0.00  0.00    +0.000 C 
ATOM     12  O   UNL     1      -0.552  13.796  19.599  0.00  0.00    +0.000 OA
ATOM     13  N   UNL     1       1.546  13.971  18.737  0.00  0.00    +0.000 N 
ATOM     14  C   UNL     1       1.419  15.420  18.624  0.00  0.00    +0.000 C 
ATOM     15  C   UNL     1       2.753  15.919  18.087  0.00  0.00    +0.000 C 
ATOM     16  C   UNL     1       3.729  14.796  18.413  0.00  0.00    +0.000 C 
ATOM     17  C   UNL     1       2.867  13.541  18.324  0.00  0.00    +0.000 C 
BRANCH  16  18
ATOM     18  O   UNL     1       4.823  14.775  17.513  0.00  0.00    +0.000 OA
ATOM     19  H   UNL     1       5.284  15.630  17.565  0.00  0.00    +0.000 HD
ENDBRANCH  16  18
ENDBRANCH   6  11
BRANCH   1  24
ATOM     20  C   UNL     1       3.183   4.046  18.733  0.00  0.00    +0.000 A 
ATOM     21  C   UNL     1       2.951   3.229  19.833  0.00  0.00    +0.000 A 
ATOM     22  C   UNL     1       2.404   3.765  21.009  0.00  0.00    +0.000 A 
ATOM     23  C   UNL     1       2.026   5.116  21.088  0.00  0.00    +0.000 A 
ATOM     24  C   UNL     1       2.194   5.944  19.985  0.00  0.00    +0.000 A 
ATOM     25  C   UNL     1       2.798   5.390  18.836  0.00  0.00    +0.000 A 
BRANCH  20  26
ATOM     26  C   UNL     1       3.788   3.587  17.412  0.00  0.00    +0.000 C 
ATOM     27  C   UNL     1       3.366   2.138  17.135  0.00  0.00    +0.000 C 
BRANCH  26  28
ATOM     28  C   UNL     1       5.314   3.753  17.272  0.00  0.00    +0.000 C 
BRANCH  28  34
ATOM     29  C   UNL     1       7.345   5.602  19.096  0.00  0.00    +0.000 C 
ATOM     30  C   UNL     1       6.613   5.967  17.866  0.00  0.00    +0.000 A 
ATOM     31  C   UNL     1       6.612   7.182  17.223  0.00  0.00    +0.000 A 
ATOM     32  O   UNL     1       5.838   7.120  16.115  0.00  0.00    +0.000 OA
ATOM     33  N   UNL     1       5.301   5.854  16.002  0.00  0.00    +0.000 NA
ATOM     34  C   UNL     1       5.743   5.172  17.067  0.00  0.00    +0.000 A 
ENDBRANCH  28  34
ENDBRANCH  26  28
ENDBRANCH  20  26
ENDBRANCH   1  24
BRANCH   8  35
ATOM     35  C   UNL     1      -0.298   9.904  22.918  0.00  0.00    +0.000 C 
ATOM     36  F   UNL     1      -0.980  10.938  23.486  0.00  0.00    +0.000 F 
ATOM     37  F   UNL     1      -1.168   8.860  22.904  0.00  0.00    +0.000 F 
ATOM     38  F   UNL     1       0.679   9.582  23.805  0.00  0.00    +0.000 F 
ENDBRANCH   8  35
TORSDOF 7
ENDMDL
