MODEL 1
REMARK VINA RESULT:     -10.2      0.000      0.000
REMARK  Name = 
REMARK  11 active torsions:
REMARK  status: ('A' for Active; 'I' for Inactive)
REMARK    1  A    between atoms: C_1  and  N_2
REMARK    2  A    between atoms: C_6  and  C_7
REMARK    3  A    between atoms: C_7  and  C_10
REMARK    4  A    between atoms: C_10  and  C_11
REMARK    5  A    between atoms: C_10  and  C_13
REMARK    6  A    between atoms: C_17  and  N_18
REMARK    7  A    between atoms: C_23  and  C_24
REMARK    8  A    between atoms: C_24  and  N_25
REMARK    9  A    between atoms: C_28  and  S_29
REMARK   10  A    between atoms: S_29  and  C_30
REMARK   11  A    between atoms: C_35  and  C_36
REMARK                            x       y       z     vdW  Elec       q    Type
REMARK                         _______ _______ _______ _____ _____    ______ ____
ROOT
ATOM      1  N   UNL     1       1.957   7.901  19.431  0.00  0.00    +0.000 N 
ATOM      2  C   UNL     1       1.309   8.246  20.659  0.00  0.00    +0.000 C 
ATOM      3  C   UNL     1       0.728   9.579  20.434  0.00  0.00    +0.000 A 
ATOM      4  C   UNL     1       1.054  10.058  19.168  0.00  0.00    +0.000 A 
ATOM      5  C   UNL     1       0.647  11.341  18.802  0.00  0.00    +0.000 A 
ATOM      6  C   UNL     1      -0.146  12.111  19.714  0.00  0.00    +0.000 A 
ATOM      7  C   UNL     1      -0.492  11.528  20.965  0.00  0.00    +0.000 A 
ATOM      8  C   UNL     1      -0.020  10.287  21.364  0.00  0.00    +0.000 A 
ATOM      9  C   UNL     1       1.831   8.936  18.489  0.00  0.00    +0.000 C 
ATOM     10  O   UNL     1       2.254   9.008  17.344  0.00  0.00    +0.000 OA
ENDROOT
BRANCH   1  15
ATOM     11  C   UNL     1       4.291   5.198  18.189  0.00  0.00    +0.000 A 
ATOM     12  C   UNL     1       3.980   4.156  19.062  0.00  0.00    +0.000 A 
ATOM     13  C   UNL     1       3.021   4.344  20.078  0.00  0.00    +0.000 A 
ATOM     14  C   UNL     1       2.312   5.555  20.219  0.00  0.00    +0.000 A 
ATOM     15  C   UNL     1       2.617   6.623  19.393  0.00  0.00    +0.000 A 
ATOM     16  C   UNL     1       3.649   6.426  18.429  0.00  0.00    +0.000 A 
BRANCH  11  17
ATOM     17  C   UNL     1       5.074   5.033  16.860  0.00  0.00    +0.000 C 
ATOM     18  C   UNL     1       4.451   3.807  16.167  0.00  0.00    +0.000 C 
ATOM     19  F   UNL     1       4.807   6.095  16.007  0.00  0.00    +0.000 F 
BRANCH  17  20
ATOM     20  C   UNL     1       6.630   4.941  16.949  0.00  0.00    +0.000 C 
ATOM     21  F   UNL     1       7.143   4.581  15.737  0.00  0.00    +0.000 F 
ATOM     22  F   UNL     1       6.973   3.924  17.798  0.00  0.00    +0.000 F 
BRANCH  20  28
ATOM     23  C   UNL     1       8.049   5.669  19.746  0.00  0.00    +0.000 C 
ATOM     24  N   UNL     1       7.831   6.526  18.611  0.00  0.00    +0.000 N 
ATOM     25  C   UNL     1       8.187   7.844  18.566  0.00  0.00    +0.000 A 
ATOM     26  N   UNL     1       7.913   8.334  17.384  0.00  0.00    +0.000 NA
ATOM     27  N   UNL     1       7.353   7.327  16.641  0.00  0.00    +0.000 NA
ATOM     28  C   UNL     1       7.271   6.236  17.388  0.00  0.00    +0.000 A 
ENDBRANCH  20  28
ENDBRANCH  17  20
ENDBRANCH  11  17
ENDBRANCH   1  15
BRANCH   8  29
ATOM     29  C   UNL     1      -0.328   9.727  22.732  0.00  0.00    +0.000 C 
ATOM     30  F   UNL     1      -1.111  10.537  23.499  0.00  0.00    +0.000 F 
ATOM     31  F   UNL     1      -0.973   8.529  22.712  0.00  0.00    +0.000 F 
ATOM     32  F   UNL     1       0.804   9.529  23.470  0.00  0.00    +0.000 F 
ENDBRANCH   8  29
BRANCH   6  33
ATOM     33  C   UNL     1      -0.758  13.465  19.391  0.00  0.00    +0.000 C 
BRANCH  33  34
ATOM     34  N   UNL     1      -0.241  14.684  20.032  0.00  0.00    +0.000 NA
ATOM     35  C   UNL     1      -0.789  15.946  19.563  0.00  0.00    +0.000 C 
ATOM     36  C   UNL     1       0.313  16.551  18.708  0.00  0.00    +0.000 C 
ATOM     37  C   UNL     1       1.583  16.157  19.444  0.00  0.00    +0.000 C 
ATOM     38  C   UNL     1       1.212  14.856  20.169  0.00  0.00    +0.000 C 
BRANCH  37  39
ATOM     39  S   UNL     1       3.029  15.909  18.428  0.00  0.00    +0.000 S 
ATOM     40  C   UNL     1       4.422  15.779  19.518  0.00  0.00    +0.000 C 
ATOM     41  O   UNL     1       2.882  14.625  17.778  0.00  0.00    +0.000 OA
ATOM     42  O   UNL     1       3.247  17.113  17.642  0.00  0.00    +0.000 OA
ENDBRANCH  37  39
ENDBRANCH  33  34
ENDBRANCH   6  33
TORSDOF 8
ENDMDL
MODEL 2
REMARK VINA RESULT:     -10.1      2.181      2.652
REMARK  Name = 
REMARK  11 active torsions:
REMARK  status: ('A' for Active; 'I' for Inactive)
REMARK    1  A    between atoms: C_1  and  N_2
REMARK    2  A    between atoms: C_6  and  C_7
REMARK    3  A    between atoms: C_7  and  C_10
REMARK    4  A    between atoms: C_10  and  C_11
REMARK    5  A    between atoms: C_10  and  C_13
REMARK    6  A    between atoms: C_17  and  N_18
REMARK    7  A    between atoms: C_23  and  C_24
REMARK    8  A    between atoms: C_24  and  N_25
REMARK    9  A    between atoms: C_28  and  S_29
REMARK   10  A    between atoms: S_29  and  C_30
REMARK   11  A    between atoms: C_35  and  C_36
REMARK                            x       y       z     vdW  Elec       q    Type
REMARK                         _______ _______ _______ _____ _____    ______ ____
ROOT
ATOM      1  N   UNL     1       2.024   7.897  19.380  0.00  0.00    +0.000 N 
ATOM      2  C   UNL     1       1.388   8.219  20.619  0.00  0.00    +0.000 C 
ATOM      3  C   UNL     1       0.729   9.516  20.397  0.00  0.00    +0.000 A 
ATOM      4  C   UNL     1       0.997   9.998  19.119  0.00  0.00    +0.000 A 
ATOM      5  C   UNL     1       0.512  11.253  18.751  0.00  0.00    +0.000 A 
ATOM      6  C   UNL     1      -0.300  11.988  19.675  0.00  0.00    +0.000 A 
ATOM      7  C   UNL     1      -0.584  11.400  20.939  0.00  0.00    +0.000 A 
ATOM      8  C   UNL     1      -0.034  10.192  21.338  0.00  0.00    +0.000 A 
ATOM      9  C   UNL     1       1.819   8.914  18.431  0.00  0.00    +0.000 C 
ATOM     10  O   UNL     1       2.209   8.996  17.275  0.00  0.00    +0.000 OA
ENDROOT
BRANCH   1  15
ATOM     11  C   UNL     1       4.446   5.298  18.085  0.00  0.00    +0.000 A 
ATOM     12  C   UNL     1       4.235   4.262  18.994  0.00  0.00    +0.000 A 
ATOM     13  C   UNL     1       3.316   4.421  20.050  0.00  0.00    +0.000 A 
ATOM     14  C   UNL     1       2.548   5.594  20.200  0.00  0.00    +0.000 A 
ATOM     15  C   UNL     1       2.753   6.657  19.337  0.00  0.00    +0.000 A 
ATOM     16  C   UNL     1       3.748   6.494  18.328  0.00  0.00    +0.000 A 
BRANCH  11  17
ATOM     17  C   UNL     1       5.173   5.144  16.724  0.00  0.00    +0.000 C 
ATOM     18  C   UNL     1       4.531   3.916  16.052  0.00  0.00    +0.000 C 
ATOM     19  F   UNL     1       4.863   6.208  15.887  0.00  0.00    +0.000 F 
BRANCH  17  20
ATOM     20  C   UNL     1       6.732   5.064  16.747  0.00  0.00    +0.000 C 
ATOM     21  F   UNL     1       7.203   4.830  15.487  0.00  0.00    +0.000 F 
ATOM     22  F   UNL     1       7.116   3.975  17.480  0.00  0.00    +0.000 F 
BRANCH  20  28
ATOM     23  C   UNL     1       7.838   5.679  19.708  0.00  0.00    +0.000 C 
ATOM     24  N   UNL     1       7.799   6.563  18.573  0.00  0.00    +0.000 N 
ATOM     25  C   UNL     1       8.221   7.861  18.599  0.00  0.00    +0.000 A 
ATOM     26  N   UNL     1       8.115   8.381  17.402  0.00  0.00    +0.000 NA
ATOM     27  N   UNL     1       7.601   7.416  16.577  0.00  0.00    +0.000 NA
ATOM     28  C   UNL     1       7.377   6.319  17.286  0.00  0.00    +0.000 A 
ENDBRANCH  20  28
ENDBRANCH  17  20
ENDBRANCH  11  17
ENDBRANCH   1  15
BRANCH   8  29
ATOM     29  C   UNL     1      -0.278   9.630  22.718  0.00  0.00    +0.000 C 
ATOM     30  F   UNL     1       0.859   9.424  23.442  0.00  0.00    +0.000 F 
ATOM     31  F   UNL     1      -1.062  10.411  23.508  0.00  0.00    +0.000 F 
ATOM     32  F   UNL     1      -0.892   8.411  22.672  0.00  0.00    +0.000 F 
ENDBRANCH   8  29
BRANCH   6  33
ATOM     33  C   UNL     1      -0.994  13.303  19.354  0.00  0.00    +0.000 C 
BRANCH  33  34
ATOM     34  N   UNL     1      -0.504  14.561  19.939  0.00  0.00    +0.000 NA
ATOM     35  C   UNL     1       0.890  14.584  20.349  0.00  0.00    +0.000 C 
ATOM     36  C   UNL     1       0.847  14.500  21.866  0.00  0.00    +0.000 C 
ATOM     37  C   UNL     1      -0.376  15.325  22.227  0.00  0.00    +0.000 C 
ATOM     38  C   UNL     1      -1.288  15.208  20.999  0.00  0.00    +0.000 C 
BRANCH  37  39
ATOM     39  S   UNL     1      -1.252  14.820  23.698  0.00  0.00    +0.000 S 
ATOM     40  C   UNL     1      -2.760  15.751  23.760  0.00  0.00    +0.000 C 
ATOM     41  O   UNL     1      -1.620  13.431  23.523  0.00  0.00    +0.000 OA
ATOM     42  O   UNL     1      -0.477  15.236  24.857  0.00  0.00    +0.000 OA
ENDBRANCH  37  39
ENDBRANCH  33  34
ENDBRANCH   6  33
TORSDOF 8
ENDMDL
MODEL 3
REMARK VINA RESULT:     -10.1      0.675      1.097
REMARK  Name = 
REMARK  11 active torsions:
REMARK  status: ('A' for Active; 'I' for Inactive)
REMARK    1  A    between atoms: C_1  and  N_2
REMARK    2  A    between atoms: C_6  and  C_7
REMARK    3  A    between atoms: C_7  and  C_10
REMARK    4  A    between atoms: C_10  and  C_11
REMARK    5  A    between atoms: C_10  and  C_13
REMARK    6  A    between atoms: C_17  and  N_18
REMARK    7  A    between atoms: C_23  and  C_24
REMARK    8  A    between atoms: C_24  and  N_25
REMARK    9  A    between atoms: C_28  and  S_29
REMARK   10  A    between atoms: S_29  and  C_30
REMARK   11  A    between atoms: C_35  and  C_36
REMARK                            x       y       z     vdW  Elec       q    Type
REMARK                         _______ _______ _______ _____ _____    ______ ____
ROOT
ATOM      1  N   UNL     1       2.043   7.998  19.115  0.00  0.00    +0.000 N 
ATOM      2  C   UNL     1       1.421   8.255  20.377  0.00  0.00    +0.000 C 
ATOM      3  C   UNL     1       0.831   9.597  20.258  0.00  0.00    +0.000 A 
ATOM      4  C   UNL     1       1.127  10.164  19.021  0.00  0.00    +0.000 A 
ATOM      5  C   UNL     1       0.709  11.467  18.753  0.00  0.00    +0.000 A 
ATOM      6  C   UNL     1      -0.066  12.169  19.733  0.00  0.00    +0.000 A 
ATOM      7  C   UNL     1      -0.383  11.499  20.948  0.00  0.00    +0.000 A 
ATOM      8  C   UNL     1       0.102  10.236  21.250  0.00  0.00    +0.000 A 
ATOM      9  C   UNL     1       1.893   9.095  18.249  0.00  0.00    +0.000 C 
ATOM     10  O   UNL     1       2.290   9.247  17.102  0.00  0.00    +0.000 OA
ENDROOT
BRANCH   1  15
ATOM     11  C   UNL     1       4.363   5.401  17.643  0.00  0.00    +0.000 A 
ATOM     12  C   UNL     1       4.070   4.298  18.444  0.00  0.00    +0.000 A 
ATOM     13  C   UNL     1       3.128   4.408  19.487  0.00  0.00    +0.000 A 
ATOM     14  C   UNL     1       2.419   5.604  19.727  0.00  0.00    +0.000 A 
ATOM     15  C   UNL     1       2.706   6.729  18.974  0.00  0.00    +0.000 A 
ATOM     16  C   UNL     1       3.722   6.606  17.980  0.00  0.00    +0.000 A 
BRANCH  11  17
ATOM     17  C   UNL     1       5.123   5.334  16.292  0.00  0.00    +0.000 C 
ATOM     18  C   UNL     1       4.360   4.299  15.444  0.00  0.00    +0.000 C 
ATOM     19  F   UNL     1       4.985   6.530  15.601  0.00  0.00    +0.000 F 
BRANCH  17  20
ATOM     20  C   UNL     1       6.657   5.049  16.344  0.00  0.00    +0.000 C 
ATOM     21  F   UNL     1       7.290   5.733  15.348  0.00  0.00    +0.000 F 
ATOM     22  F   UNL     1       6.879   3.728  16.067  0.00  0.00    +0.000 F 
BRANCH  20  28
ATOM     23  C   UNL     1       7.426   7.960  17.485  0.00  0.00    +0.000 C 
ATOM     24  N   UNL     1       7.635   6.679  18.106  0.00  0.00    +0.000 N 
ATOM     25  C   UNL     1       8.245   6.505  19.315  0.00  0.00    +0.000 A 
ATOM     26  N   UNL     1       8.231   5.236  19.636  0.00  0.00    +0.000 NA
ATOM     27  N   UNL     1       7.616   4.560  18.614  0.00  0.00    +0.000 NA
ATOM     28  C   UNL     1       7.279   5.424  17.668  0.00  0.00    +0.000 A 
ENDBRANCH  20  28
ENDBRANCH  17  20
ENDBRANCH  11  17
ENDBRANCH   1  15
BRANCH   8  29
ATOM     29  C   UNL     1      -0.174   9.582  22.582  0.00  0.00    +0.000 C 
ATOM     30  F   UNL     1      -0.924  10.343  23.429  0.00  0.00    +0.000 F 
ATOM     31  F   UNL     1      -0.835   8.396  22.496  0.00  0.00    +0.000 F 
ATOM     32  F   UNL     1       0.976   9.319  23.271  0.00  0.00    +0.000 F 
ENDBRANCH   8  29
BRANCH   6  33
ATOM     33  C   UNL     1      -0.690  13.539  19.517  0.00  0.00    +0.000 C 
BRANCH  33  34
ATOM     34  N   UNL     1      -0.124  14.723  20.182  0.00  0.00    +0.000 NA
ATOM     35  C   UNL     1      -0.734  16.002  19.857  0.00  0.00    +0.000 C 
ATOM     36  C   UNL     1       0.265  16.683  18.936  0.00  0.00    +0.000 C 
ATOM     37  C   UNL     1       1.610  16.266  19.510  0.00  0.00    +0.000 C 
ATOM     38  C   UNL     1       1.333  14.914  20.180  0.00  0.00    +0.000 C 
BRANCH  37  39
ATOM     39  S   UNL     1       2.945  16.114  18.335  0.00  0.00    +0.000 S 
ATOM     40  C   UNL     1       4.463  16.205  19.250  0.00  0.00    +0.000 C 
ATOM     41  O   UNL     1       2.872  14.783  17.772  0.00  0.00    +0.000 OA
ATOM     42  O   UNL     1       2.929  17.283  17.470  0.00  0.00    +0.000 OA
ENDBRANCH  37  39
ENDBRANCH  33  34
ENDBRANCH   6  33
TORSDOF 8
ENDMDL
MODEL 4
REMARK VINA RESULT:      -9.9      1.411      2.285
REMARK  Name = 
REMARK  11 active torsions:
REMARK  status: ('A' for Active; 'I' for Inactive)
REMARK    1  A    between atoms: C_1  and  N_2
REMARK    2  A    between atoms: C_6  and  C_7
REMARK    3  A    between atoms: C_7  and  C_10
REMARK    4  A    between atoms: C_10  and  C_11
REMARK    5  A    between atoms: C_10  and  C_13
REMARK    6  A    between atoms: C_17  and  N_18
REMARK    7  A    between atoms: C_23  and  C_24
REMARK    8  A    between atoms: C_24  and  N_25
REMARK    9  A    between atoms: C_28  and  S_29
REMARK   10  A    between atoms: S_29  and  C_30
REMARK   11  A    between atoms: C_35  and  C_36
REMARK                            x       y       z     vdW  Elec       q    Type
REMARK                         _______ _______ _______ _____ _____    ______ ____
ROOT
ATOM      1  N   UNL     1       2.102   7.725  19.342  0.00  0.00    +0.000 N 
ATOM      2  C   UNL     1       1.455   8.084  20.566  0.00  0.00    +0.000 C 
ATOM      3  C   UNL     1       0.888   9.421  20.332  0.00  0.00    +0.000 A 
ATOM      4  C   UNL     1       1.220   9.889  19.063  0.00  0.00    +0.000 A 
ATOM      5  C   UNL     1       0.827  11.173  18.688  0.00  0.00    +0.000 A 
ATOM      6  C   UNL     1       0.040  11.957  19.594  0.00  0.00    +0.000 A 
ATOM      7  C   UNL     1      -0.315  11.385  20.847  0.00  0.00    +0.000 A 
ATOM      8  C   UNL     1       0.145  10.143  21.255  0.00  0.00    +0.000 A 
ATOM      9  C   UNL     1       1.989   8.755  18.393  0.00  0.00    +0.000 C 
ATOM     10  O   UNL     1       2.414   8.816  17.248  0.00  0.00    +0.000 OA
ENDROOT
BRANCH   1  15
ATOM     11  C   UNL     1       4.705   5.132  18.447  0.00  0.00    +0.000 A 
ATOM     12  C   UNL     1       4.160   3.993  19.039  0.00  0.00    +0.000 A 
ATOM     13  C   UNL     1       2.949   4.076  19.755  0.00  0.00    +0.000 A 
ATOM     14  C   UNL     1       2.225   5.282  19.859  0.00  0.00    +0.000 A 
ATOM     15  C   UNL     1       2.751   6.441  19.313  0.00  0.00    +0.000 A 
ATOM     16  C   UNL     1       4.017   6.339  18.665  0.00  0.00    +0.000 A 
BRANCH  11  17
ATOM     17  C   UNL     1       5.837   5.121  17.386  0.00  0.00    +0.000 C 
ATOM     18  C   UNL     1       6.183   6.601  17.141  0.00  0.00    +0.000 C 
ATOM     19  F   UNL     1       6.994   4.571  17.921  0.00  0.00    +0.000 F 
BRANCH  17  20
ATOM     20  C   UNL     1       5.570   4.343  16.060  0.00  0.00    +0.000 C 
ATOM     21  F   UNL     1       4.287   4.554  15.648  0.00  0.00    +0.000 F 
ATOM     22  F   UNL     1       5.652   2.999  16.301  0.00  0.00    +0.000 F 
BRANCH  20  28
ATOM     23  C   UNL     1       5.507   3.528  12.945  0.00  0.00    +0.000 C 
ATOM     24  N   UNL     1       6.480   4.335  13.632  0.00  0.00    +0.000 N 
ATOM     25  C   UNL     1       7.585   4.874  13.039  0.00  0.00    +0.000 A 
ATOM     26  N   UNL     1       8.240   5.603  13.907  0.00  0.00    +0.000 NA
ATOM     27  N   UNL     1       7.564   5.531  15.097  0.00  0.00    +0.000 NA
ATOM     28  C   UNL     1       6.513   4.739  14.948  0.00  0.00    +0.000 A 
ENDBRANCH  20  28
ENDBRANCH  17  20
ENDBRANCH  11  17
ENDBRANCH   1  15
BRANCH   8  29
ATOM     29  C   UNL     1      -0.171   9.594  22.626  0.00  0.00    +0.000 C 
ATOM     30  F   UNL     1      -0.892   8.438  22.607  0.00  0.00    +0.000 F 
ATOM     31  F   UNL     1       0.924   9.314  23.382  0.00  0.00    +0.000 F 
ATOM     32  F   UNL     1      -0.922  10.465  23.364  0.00  0.00    +0.000 F 
ENDBRANCH   8  29
BRANCH   6  33
ATOM     33  C   UNL     1      -0.559  13.315  19.260  0.00  0.00    +0.000 C 
BRANCH  33  34
ATOM     34  N   UNL     1      -0.123  14.515  19.991  0.00  0.00    +0.000 NA
ATOM     35  C   UNL     1      -0.634  15.788  19.509  0.00  0.00    +0.000 C 
ATOM     36  C   UNL     1       0.543  16.429  18.792  0.00  0.00    +0.000 C 
ATOM     37  C   UNL     1       1.734  16.020  19.643  0.00  0.00    +0.000 C 
ATOM     38  C   UNL     1       1.305  14.694  20.282  0.00  0.00    +0.000 C 
BRANCH  37  39
ATOM     39  S   UNL     1       3.280  15.818  18.773  0.00  0.00    +0.000 S 
ATOM     40  C   UNL     1       4.393  14.974  19.868  0.00  0.00    +0.000 C 
ATOM     41  O   UNL     1       3.032  14.930  17.658  0.00  0.00    +0.000 OA
ATOM     42  O   UNL     1       3.857  17.135  18.554  0.00  0.00    +0.000 OA
ENDBRANCH  37  39
ENDBRANCH  33  34
ENDBRANCH   6  33
TORSDOF 8
ENDMDL
MODEL 5
REMARK VINA RESULT:      -9.8      1.235      2.234
REMARK  Name = 
REMARK  11 active torsions:
REMARK  status: ('A' for Active; 'I' for Inactive)
REMARK    1  A    between atoms: C_1  and  N_2
REMARK    2  A    between atoms: C_6  and  C_7
REMARK    3  A    between atoms: C_7  and  C_10
REMARK    4  A    between atoms: C_10  and  C_11
REMARK    5  A    between atoms: C_10  and  C_13
REMARK    6  A    between atoms: C_17  and  N_18
REMARK    7  A    between atoms: C_23  and  C_24
REMARK    8  A    between atoms: C_24  and  N_25
REMARK    9  A    between atoms: C_28  and  S_29
REMARK   10  A    between atoms: S_29  and  C_30
REMARK   11  A    between atoms: C_35  and  C_36
REMARK                            x       y       z     vdW  Elec       q    Type
REMARK                         _______ _______ _______ _____ _____    ______ ____
ROOT
ATOM      1  N   UNL     1       2.206   7.627  19.396  0.00  0.00    +0.000 N 
ATOM      2  C   UNL     1       1.516   8.009  20.589  0.00  0.00    +0.000 C 
ATOM      3  C   UNL     1       0.926   9.325  20.297  0.00  0.00    +0.000 A 
ATOM      4  C   UNL     1       1.285   9.761  19.024  0.00  0.00    +0.000 A 
ATOM      5  C   UNL     1       0.875  11.023  18.598  0.00  0.00    +0.000 A 
ATOM      6  C   UNL     1       0.046  11.817  19.456  0.00  0.00    +0.000 A 
ATOM      7  C   UNL     1      -0.333  11.276  20.716  0.00  0.00    +0.000 A 
ATOM      8  C   UNL     1       0.142  10.058  21.176  0.00  0.00    +0.000 A 
ATOM      9  C   UNL     1       2.097   8.625  18.412  0.00  0.00    +0.000 C 
ATOM     10  O   UNL     1       2.554   8.659  17.279  0.00  0.00    +0.000 OA
ENDROOT
BRANCH   1  15
ATOM     11  C   UNL     1       5.055   5.165  19.053  0.00  0.00    +0.000 A 
ATOM     12  C   UNL     1       4.402   3.964  19.328  0.00  0.00    +0.000 A 
ATOM     13  C   UNL     1       3.031   3.959  19.652  0.00  0.00    +0.000 A 
ATOM     14  C   UNL     1       2.263   5.142  19.661  0.00  0.00    +0.000 A 
ATOM     15  C   UNL     1       2.882   6.357  19.427  0.00  0.00    +0.000 A 
ATOM     16  C   UNL     1       4.287   6.336  19.182  0.00  0.00    +0.000 A 
BRANCH  11  17
ATOM     17  C   UNL     1       6.451   5.280  18.387  0.00  0.00    +0.000 C 
ATOM     18  C   UNL     1       7.410   5.703  19.516  0.00  0.00    +0.000 C 
ATOM     19  F   UNL     1       6.901   4.028  17.991  0.00  0.00    +0.000 F 
BRANCH  17  20
ATOM     20  C   UNL     1       6.573   6.193  17.127  0.00  0.00    +0.000 C 
ATOM     21  F   UNL     1       7.730   6.914  17.188  0.00  0.00    +0.000 F 
ATOM     22  F   UNL     1       5.571   7.124  17.146  0.00  0.00    +0.000 F 
BRANCH  20  28
ATOM     23  C   UNL     1       4.261   4.298  15.931  0.00  0.00    +0.000 C 
ATOM     24  N   UNL     1       5.558   4.578  15.373  0.00  0.00    +0.000 N 
ATOM     25  C   UNL     1       6.027   4.030  14.213  0.00  0.00    +0.000 A 
ATOM     26  N   UNL     1       7.208   4.524  13.940  0.00  0.00    +0.000 NA
ATOM     27  N   UNL     1       7.530   5.400  14.944  0.00  0.00    +0.000 NA
ATOM     28  C   UNL     1       6.549   5.415  15.833  0.00  0.00    +0.000 A 
ENDBRANCH  20  28
ENDBRANCH  17  20
ENDBRANCH  11  17
ENDBRANCH   1  15
BRANCH   8  29
ATOM     29  C   UNL     1      -0.202   9.545  22.554  0.00  0.00    +0.000 C 
ATOM     30  F   UNL     1      -0.887   8.366  22.552  0.00  0.00    +0.000 F 
ATOM     31  F   UNL     1       0.876   9.325  23.354  0.00  0.00    +0.000 F 
ATOM     32  F   UNL     1      -1.002  10.416  23.238  0.00  0.00    +0.000 F 
ENDBRANCH   8  29
BRANCH   6  33
ATOM     33  C   UNL     1      -0.573  13.150  19.063  0.00  0.00    +0.000 C 
BRANCH  33  34
ATOM     34  N   UNL     1      -0.232  14.372  19.807  0.00  0.00    +0.000 NA
ATOM     35  C   UNL     1      -0.970  15.573  19.454  0.00  0.00    +0.000 C 
ATOM     36  C   UNL     1       0.015  16.409  18.652  0.00  0.00    +0.000 C 
ATOM     37  C   UNL     1       1.342  16.147  19.345  0.00  0.00    +0.000 C 
ATOM     38  C   UNL     1       1.181  14.748  19.953  0.00  0.00    +0.000 C 
BRANCH  37  39
ATOM     39  S   UNL     1       2.791  16.208  18.305  0.00  0.00    +0.000 S 
ATOM     40  C   UNL     1       4.178  16.553  19.356  0.00  0.00    +0.000 C 
ATOM     41  O   UNL     1       2.990  14.879  17.767  0.00  0.00    +0.000 OA
ATOM     42  O   UNL     1       2.668  17.353  17.417  0.00  0.00    +0.000 OA
ENDBRANCH  37  39
ENDBRANCH  33  34
ENDBRANCH   6  33
TORSDOF 8
ENDMDL
MODEL 6
REMARK VINA RESULT:      -9.8      2.221      3.090
REMARK  Name = 
REMARK  11 active torsions:
REMARK  status: ('A' for Active; 'I' for Inactive)
REMARK    1  A    between atoms: C_1  and  N_2
REMARK    2  A    between atoms: C_6  and  C_7
REMARK    3  A    between atoms: C_7  and  C_10
REMARK    4  A    between atoms: C_10  and  C_11
REMARK    5  A    between atoms: C_10  and  C_13
REMARK    6  A    between atoms: C_17  and  N_18
REMARK    7  A    between atoms: C_23  and  C_24
REMARK    8  A    between atoms: C_24  and  N_25
REMARK    9  A    between atoms: C_28  and  S_29
REMARK   10  A    between atoms: S_29  and  C_30
REMARK   11  A    between atoms: C_35  and  C_36
REMARK                            x       y       z     vdW  Elec       q    Type
REMARK                         _______ _______ _______ _____ _____    ______ ____
ROOT
ATOM      1  N   UNL     1       2.240   7.567  19.263  0.00  0.00    +0.000 N 
ATOM      2  C   UNL     1       1.562   7.937  20.467  0.00  0.00    +0.000 C 
ATOM      3  C   UNL     1       0.926   9.231  20.176  0.00  0.00    +0.000 A 
ATOM      4  C   UNL     1       1.246   9.668  18.894  0.00  0.00    +0.000 A 
ATOM      5  C   UNL     1       0.788  10.914  18.466  0.00  0.00    +0.000 A 
ATOM      6  C   UNL     1      -0.049  11.687  19.334  0.00  0.00    +0.000 A 
ATOM      7  C   UNL     1      -0.386  11.145  20.606  0.00  0.00    +0.000 A 
ATOM      8  C   UNL     1       0.136   9.946  21.065  0.00  0.00    +0.000 A 
ATOM      9  C   UNL     1       2.081   8.553  18.274  0.00  0.00    +0.000 C 
ATOM     10  O   UNL     1       2.515   8.592  17.131  0.00  0.00    +0.000 OA
ENDROOT
BRANCH   1  15
ATOM     11  C   UNL     1       4.952   5.065  18.437  0.00  0.00    +0.000 A 
ATOM     12  C   UNL     1       4.489   3.938  19.114  0.00  0.00    +0.000 A 
ATOM     13  C   UNL     1       3.297   4.000  19.865  0.00  0.00    +0.000 A 
ATOM     14  C   UNL     1       2.513   5.171  19.920  0.00  0.00    +0.000 A 
ATOM     15  C   UNL     1       2.956   6.319  19.289  0.00  0.00    +0.000 A 
ATOM     16  C   UNL     1       4.206   6.245  18.605  0.00  0.00    +0.000 A 
BRANCH  11  17
ATOM     17  C   UNL     1       6.050   5.048  17.341  0.00  0.00    +0.000 C 
ATOM     18  C   UNL     1       6.449   6.522  17.138  0.00  0.00    +0.000 C 
ATOM     19  F   UNL     1       7.199   4.433  17.817  0.00  0.00    +0.000 F 
BRANCH  17  20
ATOM     20  C   UNL     1       5.711   4.332  15.996  0.00  0.00    +0.000 C 
ATOM     21  F   UNL     1       4.420   4.596  15.642  0.00  0.00    +0.000 F 
ATOM     22  F   UNL     1       5.761   2.977  16.182  0.00  0.00    +0.000 F 
BRANCH  20  28
ATOM     23  C   UNL     1       5.599   3.515  12.883  0.00  0.00    +0.000 C 
ATOM     24  N   UNL     1       6.572   4.340  13.551  0.00  0.00    +0.000 N 
ATOM     25  C   UNL     1       7.654   4.899  12.935  0.00  0.00    +0.000 A 
ATOM     26  N   UNL     1       8.313   5.639  13.789  0.00  0.00    +0.000 NA
ATOM     27  N   UNL     1       7.663   5.556  14.993  0.00  0.00    +0.000 NA
ATOM     28  C   UNL     1       6.624   4.745  14.865  0.00  0.00    +0.000 A 
ENDBRANCH  20  28
ENDBRANCH  17  20
ENDBRANCH  11  17
ENDBRANCH   1  15
BRANCH   8  29
ATOM     29  C   UNL     1      -0.165   9.434  22.454  0.00  0.00    +0.000 C 
ATOM     30  F   UNL     1      -0.831   8.245  22.473  0.00  0.00    +0.000 F 
ATOM     31  F   UNL     1       0.937   9.233  23.226  0.00  0.00    +0.000 F 
ATOM     32  F   UNL     1      -0.961  10.295  23.155  0.00  0.00    +0.000 F 
ENDBRANCH   8  29
BRANCH   6  33
ATOM     33  C   UNL     1      -0.717  12.997  18.944  0.00  0.00    +0.000 C 
BRANCH  33  34
ATOM     34  N   UNL     1       0.012  14.268  19.077  0.00  0.00    +0.000 NA
ATOM     35  C   UNL     1       1.456  14.175  19.218  0.00  0.00    +0.000 C 
ATOM     36  C   UNL     1       1.720  14.468  20.686  0.00  0.00    +0.000 C 
ATOM     37  C   UNL     1       0.690  15.535  21.020  0.00  0.00    +0.000 C 
ATOM     38  C   UNL     1      -0.463  15.266  20.045  0.00  0.00    +0.000 C 
BRANCH  37  39
ATOM     39  S   UNL     1       0.091  15.542  22.701  0.00  0.00    +0.000 S 
ATOM     40  C   UNL     1      -1.325  16.609  22.751  0.00  0.00    +0.000 C 
ATOM     41  O   UNL     1      -0.378  14.205  22.995  0.00  0.00    +0.000 OA
ATOM     42  O   UNL     1       1.096  16.172  23.542  0.00  0.00    +0.000 OA
ENDBRANCH  37  39
ENDBRANCH  33  34
ENDBRANCH   6  33
TORSDOF 8
ENDMDL
MODEL 7
REMARK VINA RESULT:      -9.7      2.355      3.242
REMARK  Name = 
REMARK  11 active torsions:
REMARK  status: ('A' for Active; 'I' for Inactive)
REMARK    1  A    between atoms: C_1  and  N_2
REMARK    2  A    between atoms: C_6  and  C_7
REMARK    3  A    between atoms: C_7  and  C_10
REMARK    4  A    between atoms: C_10  and  C_11
REMARK    5  A    between atoms: C_10  and  C_13
REMARK    6  A    between atoms: C_17  and  N_18
REMARK    7  A    between atoms: C_23  and  C_24
REMARK    8  A    between atoms: C_24  and  N_25
REMARK    9  A    between atoms: C_28  and  S_29
REMARK   10  A    between atoms: S_29  and  C_30
REMARK   11  A    between atoms: C_35  and  C_36
REMARK                            x       y       z     vdW  Elec       q    Type
REMARK                         _______ _______ _______ _____ _____    ______ ____
ROOT
ATOM      1  N   UNL     1       2.220   7.515  19.412  0.00  0.00    +0.000 N 
ATOM      2  C   UNL     1       1.511   7.898  20.594  0.00  0.00    +0.000 C 
ATOM      3  C   UNL     1       0.866   9.179  20.266  0.00  0.00    +0.000 A 
ATOM      4  C   UNL     1       1.208   9.596  18.982  0.00  0.00    +0.000 A 
ATOM      5  C   UNL     1       0.744  10.827  18.522  0.00  0.00    +0.000 A 
ATOM      6  C   UNL     1      -0.122  11.606  19.357  0.00  0.00    +0.000 A 
ATOM      7  C   UNL     1      -0.479  11.084  20.631  0.00  0.00    +0.000 A 
ATOM      8  C   UNL     1       0.049   9.900  21.124  0.00  0.00    +0.000 A 
ATOM      9  C   UNL     1       2.069   8.480  18.401  0.00  0.00    +0.000 C 
ATOM     10  O   UNL     1       2.527   8.504  17.268  0.00  0.00    +0.000 OA
ENDROOT
BRANCH   1  15
ATOM     11  C   UNL     1       5.165   5.164  19.104  0.00  0.00    +0.000 A 
ATOM     12  C   UNL     1       4.571   3.948  19.439  0.00  0.00    +0.000 A 
ATOM     13  C   UNL     1       3.208   3.898  19.792  0.00  0.00    +0.000 A 
ATOM     14  C   UNL     1       2.390   5.047  19.772  0.00  0.00    +0.000 A 
ATOM     15  C   UNL     1       2.951   6.277  19.477  0.00  0.00    +0.000 A 
ATOM     16  C   UNL     1       4.351   6.306  19.203  0.00  0.00    +0.000 A 
BRANCH  11  17
ATOM     17  C   UNL     1       6.542   5.312  18.404  0.00  0.00    +0.000 C 
ATOM     18  C   UNL     1       7.519   5.753  19.510  0.00  0.00    +0.000 C 
ATOM     19  F   UNL     1       7.010   4.072  17.992  0.00  0.00    +0.000 F 
BRANCH  17  20
ATOM     20  C   UNL     1       6.613   6.231  17.144  0.00  0.00    +0.000 C 
ATOM     21  F   UNL     1       7.749   6.986  17.184  0.00  0.00    +0.000 F 
ATOM     22  F   UNL     1       5.584   7.132  17.185  0.00  0.00    +0.000 F 
BRANCH  20  28
ATOM     23  C   UNL     1       4.329   4.280  15.983  0.00  0.00    +0.000 C 
ATOM     24  N   UNL     1       5.609   4.594  15.403  0.00  0.00    +0.000 N 
ATOM     25  C   UNL     1       6.072   4.061  14.235  0.00  0.00    +0.000 A 
ATOM     26  N   UNL     1       7.235   4.585  13.942  0.00  0.00    +0.000 NA
ATOM     27  N   UNL     1       7.552   5.467  14.943  0.00  0.00    +0.000 NA
ATOM     28  C   UNL     1       6.586   5.455  15.848  0.00  0.00    +0.000 A 
ENDBRANCH  20  28
ENDBRANCH  17  20
ENDBRANCH  11  17
ENDBRANCH   1  15
BRANCH   8  29
ATOM     29  C   UNL     1      -0.275   9.410  22.516  0.00  0.00    +0.000 C 
ATOM     30  F   UNL     1      -1.122  10.224  23.207  0.00  0.00    +0.000 F 
ATOM     31  F   UNL     1      -0.859   8.182  22.553  0.00  0.00    +0.000 F 
ATOM     32  F   UNL     1       0.841   9.316  23.297  0.00  0.00    +0.000 F 
ENDBRANCH   8  29
BRANCH   6  33
ATOM     33  C   UNL     1      -0.797  12.900  18.928  0.00  0.00    +0.000 C 
BRANCH  33  34
ATOM     34  N   UNL     1      -0.256  14.197  19.363  0.00  0.00    +0.000 NA
ATOM     35  C   UNL     1       1.071  14.179  19.955  0.00  0.00    +0.000 C 
ATOM     36  C   UNL     1       0.832  14.365  21.444  0.00  0.00    +0.000 C 
ATOM     37  C   UNL     1      -0.335  15.337  21.492  0.00  0.00    +0.000 C 
ATOM     38  C   UNL     1      -1.095  15.081  20.184  0.00  0.00    +0.000 C 
BRANCH  37  39
ATOM     39  S   UNL     1      -1.433  15.168  22.889  0.00  0.00    +0.000 S 
ATOM     40  C   UNL     1      -2.581  13.871  22.504  0.00  0.00    +0.000 C 
ATOM     41  O   UNL     1      -0.637  14.708  24.007  0.00  0.00    +0.000 OA
ATOM     42  O   UNL     1      -2.225  16.383  22.998  0.00  0.00    +0.000 OA
ENDBRANCH  37  39
ENDBRANCH  33  34
ENDBRANCH   6  33
TORSDOF 8
ENDMDL
MODEL 8
REMARK VINA RESULT:      -9.7      1.879      2.572
REMARK  Name = 
REMARK  11 active torsions:
REMARK  status: ('A' for Active; 'I' for Inactive)
REMARK    1  A    between atoms: C_1  and  N_2
REMARK    2  A    between atoms: C_6  and  C_7
REMARK    3  A    between atoms: C_7  and  C_10
REMARK    4  A    between atoms: C_10  and  C_11
REMARK    5  A    between atoms: C_10  and  C_13
REMARK    6  A    between atoms: C_17  and  N_18
REMARK    7  A    between atoms: C_23  and  C_24
REMARK    8  A    between atoms: C_24  and  N_25
REMARK    9  A    between atoms: C_28  and  S_29
REMARK   10  A    between atoms: S_29  and  C_30
REMARK   11  A    between atoms: C_35  and  C_36
REMARK                            x       y       z     vdW  Elec       q    Type
REMARK                         _______ _______ _______ _____ _____    ______ ____
ROOT
ATOM      1  N   UNL     1       1.936   8.147  19.253  0.00  0.00    +0.000 N 
ATOM      2  C   UNL     1       1.357   8.366  20.542  0.00  0.00    +0.000 C 
ATOM      3  C   UNL     1       0.657   9.657  20.443  0.00  0.00    +0.000 A 
ATOM      4  C   UNL     1       0.847  10.232  19.189  0.00  0.00    +0.000 A 
ATOM      5  C   UNL     1       0.314  11.495  18.934  0.00  0.00    +0.000 A 
ATOM      6  C   UNL     1      -0.467  12.143  19.946  0.00  0.00    +0.000 A 
ATOM      7  C   UNL     1      -0.671  11.463  21.179  0.00  0.00    +0.000 A 
ATOM      8  C   UNL     1      -0.072  10.246  21.465  0.00  0.00    +0.000 A 
ATOM      9  C   UNL     1       1.658   9.220  18.388  0.00  0.00    +0.000 C 
ATOM     10  O   UNL     1       1.986   9.391  17.223  0.00  0.00    +0.000 OA
ENDROOT
BRANCH   1  15
ATOM     11  C   UNL     1       4.609   5.838  17.903  0.00  0.00    +0.000 A 
ATOM     12  C   UNL     1       4.268   4.641  18.532  0.00  0.00    +0.000 A 
ATOM     13  C   UNL     1       3.176   4.592  19.420  0.00  0.00    +0.000 A 
ATOM     14  C   UNL     1       2.365   5.719  19.667  0.00  0.00    +0.000 A 
ATOM     15  C   UNL     1       2.691   6.933  19.088  0.00  0.00    +0.000 A 
ATOM     16  C   UNL     1       3.850   6.968  18.258  0.00  0.00    +0.000 A 
BRANCH  11  17
ATOM     17  C   UNL     1       5.566   5.957  16.688  0.00  0.00    +0.000 C 
ATOM     18  C   UNL     1       4.901   6.973  15.740  0.00  0.00    +0.000 C 
ATOM     19  F   UNL     1       6.758   6.556  17.068  0.00  0.00    +0.000 F 
BRANCH  17  20
ATOM     20  C   UNL     1       5.969   4.637  15.959  0.00  0.00    +0.000 C 
ATOM     21  F   UNL     1       4.851   3.912  15.661  0.00  0.00    +0.000 F 
ATOM     22  F   UNL     1       6.687   3.850  16.816  0.00  0.00    +0.000 F 
BRANCH  20  28
ATOM     23  C   UNL     1       5.436   3.506  12.991  0.00  0.00    +0.000 C 
ATOM     24  N   UNL     1       6.515   4.346  13.442  0.00  0.00    +0.000 N 
ATOM     25  C   UNL     1       7.532   4.781  12.642  0.00  0.00    +0.000 A 
ATOM     26  N   UNL     1       8.320   5.572  13.324  0.00  0.00    +0.000 NA
ATOM     27  N   UNL     1       7.824   5.648  14.599  0.00  0.00    +0.000 NA
ATOM     28  C   UNL     1       6.747   4.882  14.687  0.00  0.00    +0.000 A 
ENDBRANCH  20  28
ENDBRANCH  17  20
ENDBRANCH  11  17
ENDBRANCH   1  15
BRANCH   8  29
ATOM     29  C   UNL     1      -0.231   9.585  22.814  0.00  0.00    +0.000 C 
ATOM     30  F   UNL     1      -0.831   8.362  22.765  0.00  0.00    +0.000 F 
ATOM     31  F   UNL     1       0.939   9.377  23.475  0.00  0.00    +0.000 F 
ATOM     32  F   UNL     1      -1.010  10.326  23.657  0.00  0.00    +0.000 F 
ENDBRANCH   8  29
BRANCH   6  33
ATOM     33  C   UNL     1      -1.208  13.458  19.752  0.00  0.00    +0.000 C 
BRANCH  33  34
ATOM     34  N   UNL     1      -0.463  14.725  19.693  0.00  0.00    +0.000 NA
ATOM     35  C   UNL     1       0.151  15.056  18.418  0.00  0.00    +0.000 C 
ATOM     36  C   UNL     1       1.634  14.794  18.624  0.00  0.00    +0.000 C 
ATOM     37  C   UNL     1       1.870  15.236  20.059  0.00  0.00    +0.000 C 
ATOM     38  C   UNL     1       0.514  15.029  20.746  0.00  0.00    +0.000 C 
BRANCH  37  39
ATOM     39  S   UNL     1       3.152  14.363  20.943  0.00  0.00    +0.000 S 
ATOM     40  C   UNL     1       3.485  15.278  22.426  0.00  0.00    +0.000 C 
ATOM     41  O   UNL     1       2.601  13.088  21.349  0.00  0.00    +0.000 OA
ATOM     42  O   UNL     1       4.372  14.422  20.154  0.00  0.00    +0.000 OA
ENDBRANCH  37  39
ENDBRANCH  33  34
ENDBRANCH   6  33
TORSDOF 8
ENDMDL
MODEL 9
REMARK VINA RESULT:      -9.7      2.460      3.278
REMARK  Name = 
REMARK  11 active torsions:
REMARK  status: ('A' for Active; 'I' for Inactive)
REMARK    1  A    between atoms: C_1  and  N_2
REMARK    2  A    between atoms: C_6  and  C_7
REMARK    3  A    between atoms: C_7  and  C_10
REMARK    4  A    between atoms: C_10  and  C_11
REMARK    5  A    between atoms: C_10  and  C_13
REMARK    6  A    between atoms: C_17  and  N_18
REMARK    7  A    between atoms: C_23  and  C_24
REMARK    8  A    between atoms: C_24  and  N_25
REMARK    9  A    between atoms: C_28  and  S_29
REMARK   10  A    between atoms: S_29  and  C_30
REMARK   11  A    between atoms: C_35  and  C_36
REMARK                            x       y       z     vdW  Elec       q    Type
REMARK                         _______ _______ _______ _____ _____    ______ ____
ROOT
ATOM      1  N   UNL     1       2.344   7.454  19.156  0.00  0.00    +0.000 N 
ATOM      2  C   UNL     1       1.647   7.804  20.354  0.00  0.00    +0.000 C 
ATOM      3  C   UNL     1       1.010   9.100  20.072  0.00  0.00    +0.000 A 
ATOM      4  C   UNL     1       1.348   9.556  18.801  0.00  0.00    +0.000 A 
ATOM      5  C   UNL     1       0.892  10.806  18.384  0.00  0.00    +0.000 A 
ATOM      6  C   UNL     1       0.038  11.564  19.250  0.00  0.00    +0.000 A 
ATOM      7  C   UNL     1      -0.315  11.003  20.509  0.00  0.00    +0.000 A 
ATOM      8  C   UNL     1       0.204   9.799  20.959  0.00  0.00    +0.000 A 
ATOM      9  C   UNL     1       2.196   8.453  18.178  0.00  0.00    +0.000 C 
ATOM     10  O   UNL     1       2.647   8.510  17.043  0.00  0.00    +0.000 OA
ENDROOT
BRANCH   1  15
ATOM     11  C   UNL     1       5.065   4.966  18.315  0.00  0.00    +0.000 A 
ATOM     12  C   UNL     1       4.606   3.833  18.987  0.00  0.00    +0.000 A 
ATOM     13  C   UNL     1       3.415   3.888  19.738  0.00  0.00    +0.000 A 
ATOM     14  C   UNL     1       2.626   5.055  19.800  0.00  0.00    +0.000 A 
ATOM     15  C   UNL     1       3.065   6.209  19.175  0.00  0.00    +0.000 A 
ATOM     16  C   UNL     1       4.315   6.143  18.490  0.00  0.00    +0.000 A 
BRANCH  11  17
ATOM     17  C   UNL     1       6.162   4.959  17.218  0.00  0.00    +0.000 C 
ATOM     18  C   UNL     1       6.554   6.435  17.021  0.00  0.00    +0.000 C 
ATOM     19  F   UNL     1       7.314   4.347  17.692  0.00  0.00    +0.000 F 
BRANCH  17  20
ATOM     20  C   UNL     1       5.826   4.246  15.871  0.00  0.00    +0.000 C 
ATOM     21  F   UNL     1       4.520   4.467  15.542  0.00  0.00    +0.000 F 
ATOM     22  F   UNL     1       5.927   2.892  16.039  0.00  0.00    +0.000 F 
BRANCH  20  28
ATOM     23  C   UNL     1       5.688   3.463  12.750  0.00  0.00    +0.000 C 
ATOM     24  N   UNL     1       6.642   4.314  13.411  0.00  0.00    +0.000 N 
ATOM     25  C   UNL     1       7.693   4.918  12.784  0.00  0.00    +0.000 A 
ATOM     26  N   UNL     1       8.340   5.672  13.636  0.00  0.00    +0.000 NA
ATOM     27  N   UNL     1       7.715   5.551  14.850  0.00  0.00    +0.000 NA
ATOM     28  C   UNL     1       6.703   4.704  14.729  0.00  0.00    +0.000 A 
ENDBRANCH  20  28
ENDBRANCH  17  20
ENDBRANCH  11  17
ENDBRANCH   1  15
BRANCH   8  29
ATOM     29  C   UNL     1      -0.115   9.266  22.336  0.00  0.00    +0.000 C 
ATOM     30  F   UNL     1      -0.830  10.129  23.112  0.00  0.00    +0.000 F 
ATOM     31  F   UNL     1      -0.836   8.113  22.335  0.00  0.00    +0.000 F 
ATOM     32  F   UNL     1       1.015   8.999  23.055  0.00  0.00    +0.000 F 
ENDBRANCH   8  29
BRANCH   6  33
ATOM     33  C   UNL     1      -0.629  12.877  18.869  0.00  0.00    +0.000 C 
BRANCH  33  34
ATOM     34  N   UNL     1      -0.022  14.158  19.264  0.00  0.00    +0.000 NA
ATOM     35  C   UNL     1       1.277  14.087  19.912  0.00  0.00    +0.000 C 
ATOM     36  C   UNL     1       0.991  14.362  21.379  0.00  0.00    +0.000 C 
ATOM     37  C   UNL     1      -0.112  15.407  21.331  0.00  0.00    +0.000 C 
ATOM     38  C   UNL     1      -0.833  15.133  20.005  0.00  0.00    +0.000 C 
BRANCH  37  39
ATOM     39  S   UNL     1      -1.273  15.379  22.686  0.00  0.00    +0.000 S 
ATOM     40  C   UNL     1      -1.231  13.747  23.381  0.00  0.00    +0.000 C 
ATOM     41  O   UNL     1      -0.772  16.282  23.699  0.00  0.00    +0.000 OA
ATOM     42  O   UNL     1      -2.612  15.547  22.144  0.00  0.00    +0.000 OA
ENDBRANCH  37  39
ENDBRANCH  33  34
ENDBRANCH   6  33
TORSDOF 8
ENDMDL
