MODEL 1
REMARK VINA RESULT:      -9.7      0.000      0.000
REMARK  Name = 
REMARK  9 active torsions:
REMARK  status: ('A' for Active; 'I' for Inactive)
REMARK    1  A    between atoms: C_1  and  C_2
REMARK    2  A    between atoms: C_2  and  C_3
REMARK    3  A    between atoms: C_2  and  N_34
REMARK    4  A    between atoms: C_7  and  C_8
REMARK    5  A    between atoms: N_14  and  C_15
REMARK    6  A    between atoms: C_19  and  C_20
REMARK    7  A    between atoms: C_20  and  C_21
REMARK    8  A    between atoms: C_21  and  C_22
REMARK    9  A    between atoms: N_26  and  C_27
REMARK                            x       y       z     vdW  Elec       q    Type
REMARK                         _______ _______ _______ _____ _____    ______ ____
ROOT
ATOM      1  C   UNL     1       5.055   4.306  16.512  0.00  0.00    +0.000 A 
ATOM      2  C   UNL     1       4.706   5.640  16.767  0.00  0.00    +0.000 A 
ATOM      3  C   UNL     1       3.755   5.885  17.737  0.00  0.00    +0.000 A 
ATOM      4  C   UNL     1       3.132   4.883  18.470  0.00  0.00    +0.000 A 
ATOM      5  C   UNL     1       3.431   3.548  18.236  0.00  0.00    +0.000 A 
ATOM      6  C   UNL     1       4.411   3.277  17.250  0.00  0.00    +0.000 A 
ATOM      7  C   UNL     1       2.198   5.501  19.457  0.00  0.00    +0.000 C 
ATOM      8  N   UNL     1       2.338   6.928  19.200  0.00  0.00    +0.000 N 
ATOM      9  C   UNL     1       3.245   7.184  18.173  0.00  0.00    +0.000 C 
ATOM     10  O   UNL     1       3.627   8.226  17.679  0.00  0.00    +0.000 OA
ENDROOT
BRANCH   8  11
ATOM     11  C   UNL     1       1.609   7.894  19.928  0.00  0.00    +0.000 A 
ATOM     12  C   UNL     1       1.212   7.672  21.249  0.00  0.00    +0.000 A 
ATOM     13  C   UNL     1       0.505   8.642  21.949  0.00  0.00    +0.000 A 
ATOM     14  C   UNL     1       0.143   9.829  21.319  0.00  0.00    +0.000 A 
ATOM     15  C   UNL     1       0.469  10.080  19.973  0.00  0.00    +0.000 A 
ATOM     16  C   UNL     1       1.249   9.106  19.322  0.00  0.00    +0.000 A 
BRANCH  15  17
ATOM     17  C   UNL     1      -0.068  11.364  19.192  0.00  0.00    +0.000 C 
ATOM     18  C   UNL     1      -1.064  11.171  18.006  0.00  0.00    +0.000 C 
ATOM     19  O   UNL     1      -1.928  12.216  18.540  0.00  0.00    +0.000 OA
ATOM     20  C   UNL     1      -1.326  12.018  19.843  0.00  0.00    +0.000 C 
BRANCH  17  21
ATOM     21  C   UNL     1       1.064  12.363  18.885  0.00  0.00    +0.000 C 
BRANCH  21  22
ATOM     22  C   UNL     1       1.333  13.327  19.995  0.00  0.00    +0.000 A 
ATOM     23  N   UNL     1       1.986  13.070  21.111  0.00  0.00    +0.000 NA
ATOM     24  N   UNL     1       2.041  14.218  21.865  0.00  0.00    +0.000 NA
ATOM     25  C   UNL     1       1.426  15.159  21.196  0.00  0.00    +0.000 A 
ATOM     26  N   UNL     1       0.956  14.651  20.021  0.00  0.00    +0.000 N 
ATOM     27  C   UNL     1       0.235  15.394  19.029  0.00  0.00    +0.000 C 
ENDBRANCH  21  22
ENDBRANCH  17  21
ENDBRANCH  15  17
ENDBRANCH   8  11
BRANCH   5  28
ATOM     28  C   UNL     1       2.762   2.423  18.980  0.00  0.00    +0.000 C 
ATOM     29  F   UNL     1       2.960   2.476  20.335  0.00  0.00    +0.000 F 
ATOM     30  F   UNL     1       1.412   2.421  18.810  0.00  0.00    +0.000 F 
ATOM     31  F   UNL     1       3.199   1.201  18.592  0.00  0.00    +0.000 F 
ENDBRANCH   5  28
BRANCH   1  33
ATOM     32  C   UNL     1       7.398   4.750  15.822  0.00  0.00    +0.000 C 
ATOM     33  C   UNL     1       6.103   4.011  15.433  0.00  0.00    +0.000 C 
BRANCH  33  34
ATOM     34  N   UNL     1       5.643   4.362  14.073  0.00  0.00    +0.000 NA
ATOM     35  C   UNL     1       6.743   4.676  13.136  0.00  0.00    +0.000 C 
ATOM     36  C   UNL     1       6.805   3.569  12.099  0.00  0.00    +0.000 C 
ATOM     37  C   UNL     1       5.365   3.162  11.983  0.00  0.00    +0.000 C 
ATOM     38  F   UNL     1       5.248   1.910  11.500  0.00  0.00    +0.000 F 
ATOM     39  F   UNL     1       4.706   3.992  11.144  0.00  0.00    +0.000 F 
ATOM     40  C   UNL     1       4.846   3.289  13.412  0.00  0.00    +0.000 C 
ENDBRANCH  33  34
ENDBRANCH   1  33
TORSDOF 7
ENDMDL
MODEL 2
REMARK VINA RESULT:      -9.7      4.305      9.148
REMARK  Name = 
REMARK  9 active torsions:
REMARK  status: ('A' for Active; 'I' for Inactive)
REMARK    1  A    between atoms: C_1  and  C_2
REMARK    2  A    between atoms: C_2  and  C_3
REMARK    3  A    between atoms: C_2  and  N_34
REMARK    4  A    between atoms: C_7  and  C_8
REMARK    5  A    between atoms: N_14  and  C_15
REMARK    6  A    between atoms: C_19  and  C_20
REMARK    7  A    between atoms: C_20  and  C_21
REMARK    8  A    between atoms: C_21  and  C_22
REMARK    9  A    between atoms: N_26  and  C_27
REMARK                            x       y       z     vdW  Elec       q    Type
REMARK                         _______ _______ _______ _____ _____    ______ ____
ROOT
ATOM      1  C   UNL     1      -0.179  11.166  19.114  0.00  0.00    +0.000 A 
ATOM      2  C   UNL     1       0.606  10.315  18.321  0.00  0.00    +0.000 A 
ATOM      3  C   UNL     1       1.169   9.208  18.922  0.00  0.00    +0.000 A 
ATOM      4  C   UNL     1       0.996   8.894  20.265  0.00  0.00    +0.000 A 
ATOM      5  C   UNL     1       0.245   9.718  21.091  0.00  0.00    +0.000 A 
ATOM      6  C   UNL     1      -0.347  10.856  20.490  0.00  0.00    +0.000 A 
ATOM      7  C   UNL     1       1.702   7.614  20.567  0.00  0.00    +0.000 C 
ATOM      8  N   UNL     1       2.297   7.251  19.289  0.00  0.00    +0.000 N 
ATOM      9  C   UNL     1       2.010   8.188  18.298  0.00  0.00    +0.000 C 
ATOM     10  O   UNL     1       2.319   8.237  17.123  0.00  0.00    +0.000 OA
ENDROOT
BRANCH   8  11
ATOM     11  C   UNL     1       3.074   6.082  19.130  0.00  0.00    +0.000 A 
ATOM     12  C   UNL     1       3.126   5.096  20.117  0.00  0.00    +0.000 A 
ATOM     13  C   UNL     1       3.888   3.948  19.934  0.00  0.00    +0.000 A 
ATOM     14  C   UNL     1       4.649   3.796  18.778  0.00  0.00    +0.000 A 
ATOM     15  C   UNL     1       4.675   4.784  17.777  0.00  0.00    +0.000 A 
ATOM     16  C   UNL     1       3.833   5.896  17.966  0.00  0.00    +0.000 A 
BRANCH  15  17
ATOM     17  C   UNL     1       5.657   4.697  16.521  0.00  0.00    +0.000 C 
ATOM     18  C   UNL     1       5.385   3.628  15.416  0.00  0.00    +0.000 C 
ATOM     19  O   UNL     1       5.561   4.635  14.377  0.00  0.00    +0.000 OA
ATOM     20  C   UNL     1       5.281   5.664  15.357  0.00  0.00    +0.000 C 
BRANCH  17  21
ATOM     21  C   UNL     1       7.136   4.777  16.944  0.00  0.00    +0.000 C 
BRANCH  21  22
ATOM     22  C   UNL     1       7.562   6.141  17.385  0.00  0.00    +0.000 A 
ATOM     23  N   UNL     1       7.643   7.216  16.627  0.00  0.00    +0.000 NA
ATOM     24  N   UNL     1       8.050   8.275  17.404  0.00  0.00    +0.000 NA
ATOM     25  C   UNL     1       8.206   7.831  18.625  0.00  0.00    +0.000 A 
ATOM     26  N   UNL     1       7.921   6.498  18.665  0.00  0.00    +0.000 N 
ATOM     27  C   UNL     1       7.978   5.676  19.839  0.00  0.00    +0.000 C 
ENDBRANCH  21  22
ENDBRANCH  17  21
ENDBRANCH  15  17
ENDBRANCH   8  11
BRANCH   5  28
ATOM     28  C   UNL     1       0.053   9.441  22.558  0.00  0.00    +0.000 C 
ATOM     29  F   UNL     1      -0.584  10.455  23.223  0.00  0.00    +0.000 F 
ATOM     30  F   UNL     1      -0.701   8.330  22.781  0.00  0.00    +0.000 F 
ATOM     31  F   UNL     1       1.222   9.249  23.215  0.00  0.00    +0.000 F 
ENDBRANCH   5  28
BRANCH   1  33
ATOM     32  C   UNL     1      -0.860  13.515  19.536  0.00  0.00    +0.000 C 
ATOM     33  C   UNL     1      -0.806  12.406  18.468  0.00  0.00    +0.000 C 
BRANCH  33  34
ATOM     34  N   UNL     1      -2.132  12.135  17.873  0.00  0.00    +0.000 NA
ATOM     35  C   UNL     1      -2.067  11.615  16.489  0.00  0.00    +0.000 C 
ATOM     36  C   UNL     1      -2.530  10.169  16.511  0.00  0.00    +0.000 C 
ATOM     37  C   UNL     1      -3.541  10.177  17.621  0.00  0.00    +0.000 C 
ATOM     38  F   UNL     1      -3.720   8.941  18.127  0.00  0.00    +0.000 F 
ATOM     39  F   UNL     1      -4.736  10.614  17.168  0.00  0.00    +0.000 F 
ATOM     40  C   UNL     1      -2.943  11.144  18.637  0.00  0.00    +0.000 C 
ENDBRANCH  33  34
ENDBRANCH   1  33
TORSDOF 7
ENDMDL
MODEL 3
REMARK VINA RESULT:      -9.6      4.458      9.757
REMARK  Name = 
REMARK  9 active torsions:
REMARK  status: ('A' for Active; 'I' for Inactive)
REMARK    1  A    between atoms: C_1  and  C_2
REMARK    2  A    between atoms: C_2  and  C_3
REMARK    3  A    between atoms: C_2  and  N_34
REMARK    4  A    between atoms: C_7  and  C_8
REMARK    5  A    between atoms: N_14  and  C_15
REMARK    6  A    between atoms: C_19  and  C_20
REMARK    7  A    between atoms: C_20  and  C_21
REMARK    8  A    between atoms: C_21  and  C_22
REMARK    9  A    between atoms: N_26  and  C_27
REMARK                            x       y       z     vdW  Elec       q    Type
REMARK                         _______ _______ _______ _____ _____    ______ ____
ROOT
ATOM      1  C   UNL     1      -0.516  11.183  19.378  0.00  0.00    +0.000 A 
ATOM      2  C   UNL     1       0.358  10.390  18.620  0.00  0.00    +0.000 A 
ATOM      3  C   UNL     1       0.950   9.308  19.239  0.00  0.00    +0.000 A 
ATOM      4  C   UNL     1       0.724   8.966  20.566  0.00  0.00    +0.000 A 
ATOM      5  C   UNL     1      -0.117   9.734  21.360  0.00  0.00    +0.000 A 
ATOM      6  C   UNL     1      -0.740  10.845  20.740  0.00  0.00    +0.000 A 
ATOM      7  C   UNL     1       1.484   7.723  20.893  0.00  0.00    +0.000 C 
ATOM      8  N   UNL     1       2.167   7.412  19.645  0.00  0.00    +0.000 N 
ATOM      9  C   UNL     1       1.880   8.346  18.650  0.00  0.00    +0.000 C 
ATOM     10  O   UNL     1       2.248   8.429  17.495  0.00  0.00    +0.000 OA
ENDROOT
BRANCH   8  11
ATOM     11  C   UNL     1       3.017   6.291  19.515  0.00  0.00    +0.000 A 
ATOM     12  C   UNL     1       2.628   5.022  19.950  0.00  0.00    +0.000 A 
ATOM     13  C   UNL     1       3.477   3.931  19.802  0.00  0.00    +0.000 A 
ATOM     14  C   UNL     1       4.747   4.107  19.261  0.00  0.00    +0.000 A 
ATOM     15  C   UNL     1       5.209   5.374  18.859  0.00  0.00    +0.000 A 
ATOM     16  C   UNL     1       4.294   6.439  18.956  0.00  0.00    +0.000 A 
BRANCH  15  17
ATOM     17  C   UNL     1       6.712   5.619  18.381  0.00  0.00    +0.000 C 
ATOM     18  C   UNL     1       7.116   7.022  17.828  0.00  0.00    +0.000 C 
ATOM     19  O   UNL     1       8.306   7.028  18.670  0.00  0.00    +0.000 OA
ATOM     20  C   UNL     1       7.678   6.047  19.529  0.00  0.00    +0.000 C 
BRANCH  17  21
ATOM     21  C   UNL     1       7.240   4.450  17.527  0.00  0.00    +0.000 C 
BRANCH  21  22
ATOM     22  C   UNL     1       6.939   4.587  16.069  0.00  0.00    +0.000 A 
ATOM     23  N   UNL     1       7.637   5.279  15.190  0.00  0.00    +0.000 NA
ATOM     24  N   UNL     1       7.052   5.138  13.954  0.00  0.00    +0.000 NA
ATOM     25  C   UNL     1       6.010   4.359  14.096  0.00  0.00    +0.000 A 
ATOM     26  N   UNL     1       5.890   3.993  15.404  0.00  0.00    +0.000 N 
ATOM     27  C   UNL     1       4.867   3.138  15.932  0.00  0.00    +0.000 C 
ENDBRANCH  21  22
ENDBRANCH  17  21
ENDBRANCH  15  17
ENDBRANCH   8  11
BRANCH   5  28
ATOM     28  C   UNL     1      -0.371   9.426  22.811  0.00  0.00    +0.000 C 
ATOM     29  F   UNL     1      -1.152  10.362  23.436  0.00  0.00    +0.000 F 
ATOM     30  F   UNL     1      -1.017   8.240  22.983  0.00  0.00    +0.000 F 
ATOM     31  F   UNL     1       0.768   9.352  23.541  0.00  0.00    +0.000 F 
ENDBRANCH   5  28
BRANCH   1  33
ATOM     32  C   UNL     1      -1.767  13.279  19.828  0.00  0.00    +0.000 C 
ATOM     33  C   UNL     1      -1.177  12.395  18.713  0.00  0.00    +0.000 C 
BRANCH  33  34
ATOM     34  N   UNL     1      -2.189  12.015  17.704  0.00  0.00    +0.000 NA
ATOM     35  C   UNL     1      -2.048  10.625  17.215  0.00  0.00    +0.000 C 
ATOM     36  C   UNL     1      -3.236   9.828  17.723  0.00  0.00    +0.000 C 
ATOM     37  C   UNL     1      -4.323  10.862  17.753  0.00  0.00    +0.000 C 
ATOM     38  F   UNL     1      -5.307  10.512  18.603  0.00  0.00    +0.000 F 
ATOM     39  F   UNL     1      -4.870  11.006  16.525  0.00  0.00    +0.000 F 
ATOM     40  C   UNL     1      -3.594  12.128  18.190  0.00  0.00    +0.000 C 
ENDBRANCH  33  34
ENDBRANCH   1  33
TORSDOF 7
ENDMDL
MODEL 4
REMARK VINA RESULT:      -9.3      2.659      3.538
REMARK  Name = 
REMARK  9 active torsions:
REMARK  status: ('A' for Active; 'I' for Inactive)
REMARK    1  A    between atoms: C_1  and  C_2
REMARK    2  A    between atoms: C_2  and  C_3
REMARK    3  A    between atoms: C_2  and  N_34
REMARK    4  A    between atoms: C_7  and  C_8
REMARK    5  A    between atoms: N_14  and  C_15
REMARK    6  A    between atoms: C_19  and  C_20
REMARK    7  A    between atoms: C_20  and  C_21
REMARK    8  A    between atoms: C_21  and  C_22
REMARK    9  A    between atoms: N_26  and  C_27
REMARK                            x       y       z     vdW  Elec       q    Type
REMARK                         _______ _______ _______ _____ _____    ______ ____
ROOT
ATOM      1  C   UNL     1       3.890   5.211  17.787  0.00  0.00    +0.000 A 
ATOM      2  C   UNL     1       3.458   6.546  17.832  0.00  0.00    +0.000 A 
ATOM      3  C   UNL     1       2.612   6.917  18.857  0.00  0.00    +0.000 A 
ATOM      4  C   UNL     1       2.171   6.041  19.842  0.00  0.00    +0.000 A 
ATOM      5  C   UNL     1       2.557   4.708  19.825  0.00  0.00    +0.000 A 
ATOM      6  C   UNL     1       3.431   4.310  18.785  0.00  0.00    +0.000 A 
ATOM      7  C   UNL     1       1.311   6.782  20.812  0.00  0.00    +0.000 C 
ATOM      8  N   UNL     1       1.293   8.136  20.276  0.00  0.00    +0.000 N 
ATOM      9  C   UNL     1       2.045   8.241  19.106  0.00  0.00    +0.000 C 
ATOM     10  O   UNL     1       2.272   9.187  18.378  0.00  0.00    +0.000 OA
ENDROOT
BRANCH   8  11
ATOM     11  C   UNL     1       0.574   9.179  20.901  0.00  0.00    +0.000 A 
ATOM     12  C   UNL     1       0.449   9.254  22.289  0.00  0.00    +0.000 A 
ATOM     13  C   UNL     1      -0.253  10.296  22.883  0.00  0.00    +0.000 A 
ATOM     14  C   UNL     1      -0.882  11.251  22.089  0.00  0.00    +0.000 A 
ATOM     15  C   UNL     1      -0.834  11.191  20.684  0.00  0.00    +0.000 A 
ATOM     16  C   UNL     1      -0.051  10.164  20.124  0.00  0.00    +0.000 A 
BRANCH  15  17
ATOM     17  C   UNL     1      -1.674  12.186  19.761  0.00  0.00    +0.000 C 
ATOM     18  C   UNL     1      -2.186  11.686  18.374  0.00  0.00    +0.000 C 
ATOM     19  O   UNL     1      -3.512  12.222  18.653  0.00  0.00    +0.000 OA
ATOM     20  C   UNL     1      -3.203  12.193  20.068  0.00  0.00    +0.000 C 
BRANCH  17  21
ATOM     21  C   UNL     1      -1.043  13.590  19.710  0.00  0.00    +0.000 C 
BRANCH  21  22
ATOM     22  C   UNL     1       0.430  13.579  19.457  0.00  0.00    +0.000 A 
ATOM     23  N   UNL     1       1.027  13.206  18.342  0.00  0.00    +0.000 NA
ATOM     24  N   UNL     1       2.385  13.361  18.496  0.00  0.00    +0.000 NA
ATOM     25  C   UNL     1       2.595  13.831  19.699  0.00  0.00    +0.000 A 
ATOM     26  N   UNL     1       1.403  13.978  20.346  0.00  0.00    +0.000 N 
ATOM     27  C   UNL     1       1.244  14.473  21.682  0.00  0.00    +0.000 C 
ENDBRANCH  21  22
ENDBRANCH  17  21
ENDBRANCH  15  17
ENDBRANCH   8  11
BRANCH   5  28
ATOM     28  C   UNL     1       2.083   3.713  20.850  0.00  0.00    +0.000 C 
ATOM     29  F   UNL     1       0.721   3.562  20.870  0.00  0.00    +0.000 F 
ATOM     30  F   UNL     1       2.582   2.466  20.631  0.00  0.00    +0.000 F 
ATOM     31  F   UNL     1       2.433   4.050  22.114  0.00  0.00    +0.000 F 
ENDBRANCH   5  28
BRANCH   1  33
ATOM     32  C   UNL     1       4.315   3.422  16.120  0.00  0.00    +0.000 C 
ATOM     33  C   UNL     1       4.823   4.776  16.652  0.00  0.00    +0.000 C 
BRANCH  33  34
ATOM     34  N   UNL     1       6.242   4.721  17.064  0.00  0.00    +0.000 NA
ATOM     35  C   UNL     1       7.013   5.930  16.702  0.00  0.00    +0.000 C 
ATOM     36  C   UNL     1       7.369   6.659  17.986  0.00  0.00    +0.000 C 
ATOM     37  C   UNL     1       7.518   5.529  18.961  0.00  0.00    +0.000 C 
ATOM     38  F   UNL     1       7.358   5.954  20.230  0.00  0.00    +0.000 F 
ATOM     39  F   UNL     1       8.750   4.981  18.863  0.00  0.00    +0.000 F 
ATOM     40  C   UNL     1       6.435   4.546  18.532  0.00  0.00    +0.000 C 
ENDBRANCH  33  34
ENDBRANCH   1  33
TORSDOF 7
ENDMDL
MODEL 5
REMARK VINA RESULT:      -9.3      0.601      1.202
REMARK  Name = 
REMARK  9 active torsions:
REMARK  status: ('A' for Active; 'I' for Inactive)
REMARK    1  A    between atoms: C_1  and  C_2
REMARK    2  A    between atoms: C_2  and  C_3
REMARK    3  A    between atoms: C_2  and  N_34
REMARK    4  A    between atoms: C_7  and  C_8
REMARK    5  A    between atoms: N_14  and  C_15
REMARK    6  A    between atoms: C_19  and  C_20
REMARK    7  A    between atoms: C_20  and  C_21
REMARK    8  A    between atoms: C_21  and  C_22
REMARK    9  A    between atoms: N_26  and  C_27
REMARK                            x       y       z     vdW  Elec       q    Type
REMARK                         _______ _______ _______ _____ _____    ______ ____
ROOT
ATOM      1  C   UNL     1       4.977   4.313  16.559  0.00  0.00    +0.000 A 
ATOM      2  C   UNL     1       4.678   5.665  16.783  0.00  0.00    +0.000 A 
ATOM      3  C   UNL     1       3.729   5.968  17.738  0.00  0.00    +0.000 A 
ATOM      4  C   UNL     1       3.060   5.007  18.486  0.00  0.00    +0.000 A 
ATOM      5  C   UNL     1       3.308   3.656  18.283  0.00  0.00    +0.000 A 
ATOM      6  C   UNL     1       4.286   3.326  17.312  0.00  0.00    +0.000 A 
ATOM      7  C   UNL     1       2.142   5.682  19.451  0.00  0.00    +0.000 C 
ATOM      8  N   UNL     1       2.341   7.096  19.166  0.00  0.00    +0.000 N 
ATOM      9  C   UNL     1       3.266   7.295  18.143  0.00  0.00    +0.000 C 
ATOM     10  O   UNL     1       3.693   8.311  17.630  0.00  0.00    +0.000 OA
ENDROOT
BRANCH   8  11
ATOM     11  C   UNL     1       1.644   8.106  19.866  0.00  0.00    +0.000 A 
ATOM     12  C   UNL     1       1.477   8.054  21.252  0.00  0.00    +0.000 A 
ATOM     13  C   UNL     1       0.797   9.065  21.922  0.00  0.00    +0.000 A 
ATOM     14  C   UNL     1       0.233  10.117  21.205  0.00  0.00    +0.000 A 
ATOM     15  C   UNL     1       0.324  10.187  19.802  0.00  0.00    +0.000 A 
ATOM     16  C   UNL     1       1.083   9.185  19.170  0.00  0.00    +0.000 A 
BRANCH  15  17
ATOM     17  C   UNL     1      -0.445  11.299  18.954  0.00  0.00    +0.000 C 
ATOM     18  C   UNL     1      -1.578  10.860  17.974  0.00  0.00    +0.000 C 
ATOM     19  O   UNL     1      -2.454  11.901  18.496  0.00  0.00    +0.000 OA
ATOM     20  C   UNL     1      -1.654  11.940  19.703  0.00  0.00    +0.000 C 
BRANCH  17  21
ATOM     21  C   UNL     1       0.526  12.328  18.345  0.00  0.00    +0.000 C 
BRANCH  21  22
ATOM     22  C   UNL     1       0.485  13.664  19.015  0.00  0.00    +0.000 A 
ATOM     23  N   UNL     1      -0.301  14.673  18.697  0.00  0.00    +0.000 NA
ATOM     24  N   UNL     1      -0.055  15.714  19.560  0.00  0.00    +0.000 NA
ATOM     25  C   UNL     1       0.875  15.323  20.395  0.00  0.00    +0.000 A 
ATOM     26  N   UNL     1       1.253  14.049  20.091  0.00  0.00    +0.000 N 
ATOM     27  C   UNL     1       2.246  13.292  20.796  0.00  0.00    +0.000 C 
ENDBRANCH  21  22
ENDBRANCH  17  21
ENDBRANCH  15  17
ENDBRANCH   8  11
BRANCH   5  28
ATOM     28  C   UNL     1       2.588   2.575  19.043  0.00  0.00    +0.000 C 
ATOM     29  F   UNL     1       2.943   1.310  18.653  0.00  0.00    +0.000 F 
ATOM     30  F   UNL     1       2.839   2.626  20.380  0.00  0.00    +0.000 F 
ATOM     31  F   UNL     1       1.243   2.638  18.902  0.00  0.00    +0.000 F 
ENDBRANCH   5  28
BRANCH   1  33
ATOM     32  C   UNL     1       7.353   4.613  15.908  0.00  0.00    +0.000 C 
ATOM     33  C   UNL     1       6.022   3.954  15.497  0.00  0.00    +0.000 C 
BRANCH  33  34
ATOM     34  N   UNL     1       5.606   4.334  14.130  0.00  0.00    +0.000 NA
ATOM     35  C   UNL     1       6.737   4.651  13.231  0.00  0.00    +0.000 C 
ATOM     36  C   UNL     1       6.817   3.561  12.178  0.00  0.00    +0.000 C 
ATOM     37  C   UNL     1       5.377   3.173  12.013  0.00  0.00    +0.000 C 
ATOM     38  F   UNL     1       5.262   1.930  11.505  0.00  0.00    +0.000 F 
ATOM     39  F   UNL     1       4.753   4.023  11.169  0.00  0.00    +0.000 F 
ATOM     40  C   UNL     1       4.818   3.281  13.427  0.00  0.00    +0.000 C 
ENDBRANCH  33  34
ENDBRANCH   1  33
TORSDOF 7
ENDMDL
MODEL 6
REMARK VINA RESULT:      -9.2      2.668      3.477
REMARK  Name = 
REMARK  9 active torsions:
REMARK  status: ('A' for Active; 'I' for Inactive)
REMARK    1  A    between atoms: C_1  and  C_2
REMARK    2  A    between atoms: C_2  and  C_3
REMARK    3  A    between atoms: C_2  and  N_34
REMARK    4  A    between atoms: C_7  and  C_8
REMARK    5  A    between atoms: N_14  and  C_15
REMARK    6  A    between atoms: C_19  and  C_20
REMARK    7  A    between atoms: C_20  and  C_21
REMARK    8  A    between atoms: C_21  and  C_22
REMARK    9  A    between atoms: N_26  and  C_27
REMARK                            x       y       z     vdW  Elec       q    Type
REMARK                         _______ _______ _______ _____ _____    ______ ____
ROOT
ATOM      1  C   UNL     1       3.783   5.106  17.833  0.00  0.00    +0.000 A 
ATOM      2  C   UNL     1       3.390   6.452  17.890  0.00  0.00    +0.000 A 
ATOM      3  C   UNL     1       2.589   6.846  18.942  0.00  0.00    +0.000 A 
ATOM      4  C   UNL     1       2.157   5.984  19.943  0.00  0.00    +0.000 A 
ATOM      5  C   UNL     1       2.505   4.641  19.915  0.00  0.00    +0.000 A 
ATOM      6  C   UNL     1       3.334   4.218  18.847  0.00  0.00    +0.000 A 
ATOM      7  C   UNL     1       1.351   6.749  20.940  0.00  0.00    +0.000 C 
ATOM      8  N   UNL     1       1.352   8.102  20.402  0.00  0.00    +0.000 N 
ATOM      9  C   UNL     1       2.067   8.186  19.209  0.00  0.00    +0.000 C 
ATOM     10  O   UNL     1       2.295   9.125  18.472  0.00  0.00    +0.000 OA
ENDROOT
BRANCH   8  11
ATOM     11  C   UNL     1       0.683   9.165  21.049  0.00  0.00    +0.000 A 
ATOM     12  C   UNL     1       0.090   9.003  22.303  0.00  0.00    +0.000 A 
ATOM     13  C   UNL     1      -0.554  10.066  22.926  0.00  0.00    +0.000 A 
ATOM     14  C   UNL     1      -0.653  11.294  22.278  0.00  0.00    +0.000 A 
ATOM     15  C   UNL     1      -0.121  11.495  20.991  0.00  0.00    +0.000 A 
ATOM     16  C   UNL     1       0.586  10.417  20.426  0.00  0.00    +0.000 A 
BRANCH  15  17
ATOM     17  C   UNL     1      -0.358  12.845  20.173  0.00  0.00    +0.000 C 
ATOM     18  C   UNL     1       0.632  13.225  19.028  0.00  0.00    +0.000 C 
ATOM     19  O   UNL     1      -0.484  13.518  18.138  0.00  0.00    +0.000 OA
ATOM     20  C   UNL     1      -1.334  12.688  18.966  0.00  0.00    +0.000 C 
BRANCH  17  21
ATOM     21  C   UNL     1      -0.702  14.025  21.102  0.00  0.00    +0.000 C 
BRANCH  21  22
ATOM     22  C   UNL     1       0.482  14.855  21.481  0.00  0.00    +0.000 A 
ATOM     23  N   UNL     1       1.416  14.530  22.353  0.00  0.00    +0.000 NA
ATOM     24  N   UNL     1       2.342  15.545  22.406  0.00  0.00    +0.000 NA
ATOM     25  C   UNL     1       1.962  16.470  21.562  0.00  0.00    +0.000 A 
ATOM     26  N   UNL     1       0.798  16.091  20.963  0.00  0.00    +0.000 N 
ATOM     27  C   UNL     1       0.089  16.854  19.977  0.00  0.00    +0.000 C 
ENDBRANCH  21  22
ENDBRANCH  17  21
ENDBRANCH  15  17
ENDBRANCH   8  11
BRANCH   5  28
ATOM     28  C   UNL     1       2.038   3.659  20.956  0.00  0.00    +0.000 C 
ATOM     29  F   UNL     1       2.544   2.398  20.778  0.00  0.00    +0.000 F 
ATOM     30  F   UNL     1       2.408   4.023  22.214  0.00  0.00    +0.000 F 
ATOM     31  F   UNL     1       0.692   3.515  20.978  0.00  0.00    +0.000 F 
ENDBRANCH   5  28
BRANCH   1  33
ATOM     32  C   UNL     1       4.149   3.270  16.203  0.00  0.00    +0.000 C 
ATOM     33  C   UNL     1       4.666   4.645  16.668  0.00  0.00    +0.000 C 
BRANCH  33  34
ATOM     34  N   UNL     1       6.103   4.616  17.013  0.00  0.00    +0.000 NA
ATOM     35  C   UNL     1       6.841   5.824  16.583  0.00  0.00    +0.000 C 
ATOM     36  C   UNL     1       7.249   6.592  17.827  0.00  0.00    +0.000 C 
ATOM     37  C   UNL     1       7.459   5.490  18.824  0.00  0.00    +0.000 C 
ATOM     38  F   UNL     1       7.354   5.947  20.087  0.00  0.00    +0.000 F 
ATOM     39  F   UNL     1       8.691   4.953  18.681  0.00  0.00    +0.000 F 
ATOM     40  C   UNL     1       6.369   4.483  18.474  0.00  0.00    +0.000 C 
ENDBRANCH  33  34
ENDBRANCH   1  33
TORSDOF 7
ENDMDL
MODEL 7
REMARK VINA RESULT:      -9.1      2.717      3.500
REMARK  Name = 
REMARK  9 active torsions:
REMARK  status: ('A' for Active; 'I' for Inactive)
REMARK    1  A    between atoms: C_1  and  C_2
REMARK    2  A    between atoms: C_2  and  C_3
REMARK    3  A    between atoms: C_2  and  N_34
REMARK    4  A    between atoms: C_7  and  C_8
REMARK    5  A    between atoms: N_14  and  C_15
REMARK    6  A    between atoms: C_19  and  C_20
REMARK    7  A    between atoms: C_20  and  C_21
REMARK    8  A    between atoms: C_21  and  C_22
REMARK    9  A    between atoms: N_26  and  C_27
REMARK                            x       y       z     vdW  Elec       q    Type
REMARK                         _______ _______ _______ _____ _____    ______ ____
ROOT
ATOM      1  C   UNL     1       3.797   5.208  17.832  0.00  0.00    +0.000 A 
ATOM      2  C   UNL     1       3.392   6.549  17.923  0.00  0.00    +0.000 A 
ATOM      3  C   UNL     1       2.589   6.910  18.985  0.00  0.00    +0.000 A 
ATOM      4  C   UNL     1       2.166   6.020  19.964  0.00  0.00    +0.000 A 
ATOM      5  C   UNL     1       2.526   4.680  19.903  0.00  0.00    +0.000 A 
ATOM      6  C   UNL     1       3.356   4.292  18.824  0.00  0.00    +0.000 A 
ATOM      7  C   UNL     1       1.354   6.752  20.981  0.00  0.00    +0.000 C 
ATOM      8  N   UNL     1       1.343   8.119  20.477  0.00  0.00    +0.000 N 
ATOM      9  C   UNL     1       2.056   8.238  19.285  0.00  0.00    +0.000 C 
ATOM     10  O   UNL     1       2.276   9.197  18.572  0.00  0.00    +0.000 OA
ENDROOT
BRANCH   8  11
ATOM     11  C   UNL     1       0.666   9.160  21.150  0.00  0.00    +0.000 A 
ATOM     12  C   UNL     1      -0.043   8.929  22.332  0.00  0.00    +0.000 A 
ATOM     13  C   UNL     1      -0.692   9.971  22.983  0.00  0.00    +0.000 A 
ATOM     14  C   UNL     1      -0.681  11.250  22.433  0.00  0.00    +0.000 A 
ATOM     15  C   UNL     1      -0.029  11.524  21.216  0.00  0.00    +0.000 A 
ATOM     16  C   UNL     1       0.678  10.460  20.627  0.00  0.00    +0.000 A 
BRANCH  15  17
ATOM     17  C   UNL     1      -0.136  12.944  20.495  0.00  0.00    +0.000 C 
ATOM     18  C   UNL     1      -1.431  13.297  19.698  0.00  0.00    +0.000 C 
ATOM     19  O   UNL     1      -1.494  14.600  20.348  0.00  0.00    +0.000 OA
ATOM     20  C   UNL     1      -0.667  14.083  21.419  0.00  0.00    +0.000 C 
BRANCH  17  21
ATOM     21  C   UNL     1       1.161  13.305  19.746  0.00  0.00    +0.000 C 
BRANCH  21  22
ATOM     22  C   UNL     1       2.178  13.992  20.600  0.00  0.00    +0.000 A 
ATOM     23  N   UNL     1       2.951  13.422  21.502  0.00  0.00    +0.000 NA
ATOM     24  N   UNL     1       3.763  14.383  22.057  0.00  0.00    +0.000 NA
ATOM     25  C   UNL     1       3.476  15.523  21.481  0.00  0.00    +0.000 A 
ATOM     26  N   UNL     1       2.483  15.334  20.566  0.00  0.00    +0.000 N 
ATOM     27  C   UNL     1       1.915  16.359  19.740  0.00  0.00    +0.000 C 
ENDBRANCH  21  22
ENDBRANCH  17  21
ENDBRANCH  15  17
ENDBRANCH   8  11
BRANCH   5  28
ATOM     28  C   UNL     1       2.068   3.669  20.920  0.00  0.00    +0.000 C 
ATOM     29  F   UNL     1       0.709   3.489  20.932  0.00  0.00    +0.000 F 
ATOM     30  F   UNL     1       2.596   2.435  20.697  0.00  0.00    +0.000 F 
ATOM     31  F   UNL     1       2.404   4.008  22.188  0.00  0.00    +0.000 F 
ENDBRANCH   5  28
BRANCH   1  33
ATOM     32  C   UNL     1       4.140   3.445  16.120  0.00  0.00    +0.000 C 
ATOM     33  C   UNL     1       4.683   4.783  16.656  0.00  0.00    +0.000 C 
BRANCH  33  34
ATOM     34  N   UNL     1       6.115   4.706  17.013  0.00  0.00    +0.000 NA
ATOM     35  C   UNL     1       6.893   5.899  16.613  0.00  0.00    +0.000 C 
ATOM     36  C   UNL     1       7.310   6.631  17.875  0.00  0.00    +0.000 C 
ATOM     37  C   UNL     1       7.478   5.505  18.854  0.00  0.00    +0.000 C 
ATOM     38  F   UNL     1       7.374   5.943  20.124  0.00  0.00    +0.000 F 
ATOM     39  F   UNL     1       8.695   4.935  18.713  0.00  0.00    +0.000 F 
ATOM     40  C   UNL     1       6.362   4.538  18.474  0.00  0.00    +0.000 C 
ENDBRANCH  33  34
ENDBRANCH   1  33
TORSDOF 7
ENDMDL
MODEL 8
REMARK VINA RESULT:      -9.1      1.487      2.074
REMARK  Name = 
REMARK  9 active torsions:
REMARK  status: ('A' for Active; 'I' for Inactive)
REMARK    1  A    between atoms: C_1  and  C_2
REMARK    2  A    between atoms: C_2  and  C_3
REMARK    3  A    between atoms: C_2  and  N_34
REMARK    4  A    between atoms: C_7  and  C_8
REMARK    5  A    between atoms: N_14  and  C_15
REMARK    6  A    between atoms: C_19  and  C_20
REMARK    7  A    between atoms: C_20  and  C_21
REMARK    8  A    between atoms: C_21  and  C_22
REMARK    9  A    between atoms: N_26  and  C_27
REMARK                            x       y       z     vdW  Elec       q    Type
REMARK                         _______ _______ _______ _____ _____    ______ ____
ROOT
ATOM      1  C   UNL     1       4.350   4.731  18.114  0.00  0.00    +0.000 A 
ATOM      2  C   UNL     1       3.936   6.067  17.999  0.00  0.00    +0.000 A 
ATOM      3  C   UNL     1       2.987   6.528  18.889  0.00  0.00    +0.000 A 
ATOM      4  C   UNL     1       2.428   5.742  19.889  0.00  0.00    +0.000 A 
ATOM      5  C   UNL     1       2.792   4.410  20.026  0.00  0.00    +0.000 A 
ATOM      6  C   UNL     1       3.770   3.920  19.126  0.00  0.00    +0.000 A 
ATOM      7  C   UNL     1       1.477   6.567  20.692  0.00  0.00    +0.000 C 
ATOM      8  N   UNL     1       1.539   7.871  20.045  0.00  0.00    +0.000 N 
ATOM      9  C   UNL     1       2.417   7.872  18.962  0.00  0.00    +0.000 C 
ATOM     10  O   UNL     1       2.737   8.752  18.188  0.00  0.00    +0.000 OA
ENDROOT
BRANCH   8  11
ATOM     11  C   UNL     1       0.771   8.968  20.497  0.00  0.00    +0.000 A 
ATOM     12  C   UNL     1       0.666   9.279  21.854  0.00  0.00    +0.000 A 
ATOM     13  C   UNL     1      -0.086  10.370  22.275  0.00  0.00    +0.000 A 
ATOM     14  C   UNL     1      -0.783  11.134  21.344  0.00  0.00    +0.000 A 
ATOM     15  C   UNL     1      -0.755  10.830  19.970  0.00  0.00    +0.000 A 
ATOM     16  C   UNL     1       0.076   9.765  19.578  0.00  0.00    +0.000 A 
BRANCH  15  17
ATOM     17  C   UNL     1      -1.668  11.599  18.910  0.00  0.00    +0.000 C 
ATOM     18  C   UNL     1      -2.738  10.798  18.104  0.00  0.00    +0.000 C 
ATOM     19  O   UNL     1      -3.740  11.815  18.395  0.00  0.00    +0.000 OA
ATOM     20  C   UNL     1      -2.946  12.244  19.527  0.00  0.00    +0.000 C 
BRANCH  17  21
ATOM     21  C   UNL     1      -0.842  12.565  18.038  0.00  0.00    +0.000 C 
BRANCH  21  22
ATOM     22  C   UNL     1      -0.015  13.528  18.826  0.00  0.00    +0.000 A 
ATOM     23  N   UNL     1      -0.464  14.550  19.527  0.00  0.00    +0.000 NA
ATOM     24  N   UNL     1       0.604  15.179  20.124  0.00  0.00    +0.000 NA
ATOM     25  C   UNL     1       1.686  14.528  19.782  0.00  0.00    +0.000 A 
ATOM     26  N   UNL     1       1.355  13.490  18.963  0.00  0.00    +0.000 N 
ATOM     27  C   UNL     1       2.283  12.556  18.396  0.00  0.00    +0.000 C 
ENDBRANCH  21  22
ENDBRANCH  17  21
ENDBRANCH  15  17
ENDBRANCH   8  11
BRANCH   5  28
ATOM     28  C   UNL     1       2.193   3.508  21.071  0.00  0.00    +0.000 C 
ATOM     29  F   UNL     1       0.834   3.372  20.956  0.00  0.00    +0.000 F 
ATOM     30  F   UNL     1       2.690   2.242  21.010  0.00  0.00    +0.000 F 
ATOM     31  F   UNL     1       2.412   3.946  22.334  0.00  0.00    +0.000 F 
ENDBRANCH   5  28
BRANCH   1  33
ATOM     32  C   UNL     1       6.766   4.761  17.549  0.00  0.00    +0.000 C 
ATOM     33  C   UNL     1       5.396   4.196  17.130  0.00  0.00    +0.000 C 
BRANCH  33  34
ATOM     34  N   UNL     1       5.069   4.502  15.721  0.00  0.00    +0.000 NA
ATOM     35  C   UNL     1       5.909   5.571  15.136  0.00  0.00    +0.000 C 
ATOM     36  C   UNL     1       6.805   4.939  14.086  0.00  0.00    +0.000 C 
ATOM     37  C   UNL     1       5.945   3.826  13.563  0.00  0.00    +0.000 C 
ATOM     38  F   UNL     1       6.690   2.862  12.988  0.00  0.00    +0.000 F 
ATOM     39  F   UNL     1       5.085   4.294  12.631  0.00  0.00    +0.000 F 
ATOM     40  C   UNL     1       5.208   3.335  14.804  0.00  0.00    +0.000 C 
ENDBRANCH  33  34
ENDBRANCH   1  33
TORSDOF 7
ENDMDL
MODEL 9
REMARK VINA RESULT:      -9.1      4.527      9.656
REMARK  Name = 
REMARK  9 active torsions:
REMARK  status: ('A' for Active; 'I' for Inactive)
REMARK    1  A    between atoms: C_1  and  C_2
REMARK    2  A    between atoms: C_2  and  C_3
REMARK    3  A    between atoms: C_2  and  N_34
REMARK    4  A    between atoms: C_7  and  C_8
REMARK    5  A    between atoms: N_14  and  C_15
REMARK    6  A    between atoms: C_19  and  C_20
REMARK    7  A    between atoms: C_20  and  C_21
REMARK    8  A    between atoms: C_21  and  C_22
REMARK    9  A    between atoms: N_26  and  C_27
REMARK                            x       y       z     vdW  Elec       q    Type
REMARK                         _______ _______ _______ _____ _____    ______ ____
ROOT
ATOM      1  C   UNL     1      -0.068  11.652  19.639  0.00  0.00    +0.000 A 
ATOM      2  C   UNL     1       0.692  10.833  18.790  0.00  0.00    +0.000 A 
ATOM      3  C   UNL     1       1.132   9.622  19.285  0.00  0.00    +0.000 A 
ATOM      4  C   UNL     1       0.859   9.176  20.573  0.00  0.00    +0.000 A 
ATOM      5  C   UNL     1       0.129   9.962  21.453  0.00  0.00    +0.000 A 
ATOM      6  C   UNL     1      -0.338  11.205  20.960  0.00  0.00    +0.000 A 
ATOM      7  C   UNL     1       1.445   7.815  20.758  0.00  0.00    +0.000 C 
ATOM      8  N   UNL     1       2.082   7.549  19.475  0.00  0.00    +0.000 N 
ATOM      9  C   UNL     1       1.925   8.611  18.587  0.00  0.00    +0.000 C 
ATOM     10  O   UNL     1       2.302   8.765  17.442  0.00  0.00    +0.000 OA
ENDROOT
BRANCH   8  11
ATOM     11  C   UNL     1       2.773   6.343  19.218  0.00  0.00    +0.000 A 
ATOM     12  C   UNL     1       2.697   5.255  20.090  0.00  0.00    +0.000 A 
ATOM     13  C   UNL     1       3.376   4.075  19.811  0.00  0.00    +0.000 A 
ATOM     14  C   UNL     1       4.182   3.988  18.679  0.00  0.00    +0.000 A 
ATOM     15  C   UNL     1       4.338   5.074  17.798  0.00  0.00    +0.000 A 
ATOM     16  C   UNL     1       3.575   6.224  18.076  0.00  0.00    +0.000 A 
BRANCH  15  17
ATOM     17  C   UNL     1       5.373   5.043  16.584  0.00  0.00    +0.000 C 
ATOM     18  C   UNL     1       5.075   4.132  15.353  0.00  0.00    +0.000 C 
ATOM     19  O   UNL     1       5.386   5.230  14.446  0.00  0.00    +0.000 OA
ATOM     20  C   UNL     1       5.138   6.163  15.525  0.00  0.00    +0.000 C 
BRANCH  17  21
ATOM     21  C   UNL     1       6.830   4.949  17.077  0.00  0.00    +0.000 C 
BRANCH  21  22
ATOM     22  C   UNL     1       7.407   6.261  17.502  0.00  0.00    +0.000 A 
ATOM     23  N   UNL     1       7.476   7.356  16.772  0.00  0.00    +0.000 NA
ATOM     24  N   UNL     1       8.052   8.352  17.524  0.00  0.00    +0.000 NA
ATOM     25  C   UNL     1       8.321   7.851  18.703  0.00  0.00    +0.000 A 
ATOM     26  N   UNL     1       7.944   6.541  18.739  0.00  0.00    +0.000 N 
ATOM     27  C   UNL     1       8.081   5.672  19.871  0.00  0.00    +0.000 C 
ENDBRANCH  21  22
ENDBRANCH  17  21
ENDBRANCH  15  17
ENDBRANCH   8  11
BRANCH   5  28
ATOM     28  C   UNL     1      -0.166   9.540  22.867  0.00  0.00    +0.000 C 
ATOM     29  F   UNL     1      -0.868  10.478  23.578  0.00  0.00    +0.000 F 
ATOM     30  F   UNL     1      -0.916   8.406  22.923  0.00  0.00    +0.000 F 
ATOM     31  F   UNL     1       0.954   9.295  23.588  0.00  0.00    +0.000 F 
ENDBRANCH   5  28
BRANCH   1  33
ATOM     32  C   UNL     1      -0.466  12.972  17.574  0.00  0.00    +0.000 C 
ATOM     33  C   UNL     1      -0.559  13.005  19.112  0.00  0.00    +0.000 C 
BRANCH  33  34
ATOM     34  N   UNL     1       0.174  14.149  19.694  0.00  0.00    +0.000 NA
ATOM     35  C   UNL     1       1.644  14.043  19.561  0.00  0.00    +0.000 C 
ATOM     36  C   UNL     1       2.104  15.111  18.586  0.00  0.00    +0.000 C 
ATOM     37  C   UNL     1       1.114  16.212  18.832  0.00  0.00    +0.000 C 
ATOM     38  F   UNL     1       1.032  17.041  17.773  0.00  0.00    +0.000 F 
ATOM     39  F   UNL     1       1.484  16.948  19.904  0.00  0.00    +0.000 F 
ATOM     40  C   UNL     1      -0.189  15.464  19.092  0.00  0.00    +0.000 C 
ENDBRANCH  33  34
ENDBRANCH   1  33
TORSDOF 7
ENDMDL
