MODEL 1
REMARK VINA RESULT:     -10.4      0.000      0.000
REMARK  Name = 
REMARK  9 active torsions:
REMARK  status: ('A' for Active; 'I' for Inactive)
REMARK    1  A    between atoms: C_1  and  N_2
REMARK    2  A    between atoms: N_8  and  C_9
REMARK    3  A    between atoms: C_13  and  C_14
REMARK    4  A    between atoms: N_20  and  C_21
REMARK    5  A    between atoms: C_25  and  C_26
REMARK    6  A    between atoms: C_26  and  C_27
REMARK    7  A    between atoms: C_26  and  C_29
REMARK    8  A    between atoms: C_29  and  C_32
REMARK    9  A    between atoms: N_36  and  C_37
REMARK                            x       y       z     vdW  Elec       q    Type
REMARK                         _______ _______ _______ _____ _____    ______ ____
ROOT
ATOM      1  C   UNL     1       3.689   5.560  17.818  0.00  0.00    +0.000 A 
ATOM      2  C   UNL     1       3.293   6.894  17.977  0.00  0.00    +0.000 A 
ATOM      3  C   UNL     1       2.482   7.247  19.038  0.00  0.00    +0.000 A 
ATOM      4  C   UNL     1       2.056   6.339  19.992  0.00  0.00    +0.000 A 
ATOM      5  C   UNL     1       2.432   5.005  19.895  0.00  0.00    +0.000 A 
ATOM      6  C   UNL     1       3.250   4.642  18.801  0.00  0.00    +0.000 A 
ATOM      7  C   UNL     1       1.211   7.042  21.007  0.00  0.00    +0.000 C 
ATOM      8  N   UNL     1       1.158   8.410  20.514  0.00  0.00    +0.000 N 
ATOM      9  C   UNL     1       1.920   8.562  19.351  0.00  0.00    +0.000 C 
ATOM     10  O   UNL     1       2.147   9.537  18.659  0.00  0.00    +0.000 OA
ENDROOT
BRANCH   1  18
ATOM     11  C   UNL     1       7.947   4.404  17.543  0.00  0.00    +0.000 C 
ATOM     12  N   UNL     1       7.384   4.963  16.320  0.00  0.00    +0.000 NA
ATOM     13  C   UNL     1       6.703   6.268  16.570  0.00  0.00    +0.000 C 
ATOM     14  C   UNL     1       5.311   6.075  15.921  0.00  0.00    +0.000 C 
ATOM     15  C   UNL     1       5.673   5.132  14.771  0.00  0.00    +0.000 C 
ATOM     16  C   UNL     1       6.312   4.115  15.713  0.00  0.00    +0.000 C 
ATOM     17  C   UNL     1       5.106   3.835  16.663  0.00  0.00    +0.000 C 
ATOM     18  N   UNL     1       4.499   5.178  16.783  0.00  0.00    +0.000 N 
ENDBRANCH   1  18
BRANCH   8  19
ATOM     19  C   UNL     1       0.399   9.425  21.161  0.00  0.00    +0.000 A 
ATOM     20  C   UNL     1      -0.142   9.231  22.435  0.00  0.00    +0.000 A 
ATOM     21  C   UNL     1      -0.883  10.234  23.061  0.00  0.00    +0.000 A 
ATOM     22  C   UNL     1      -1.151  11.430  22.399  0.00  0.00    +0.000 A 
ATOM     23  C   UNL     1      -0.691  11.639  21.089  0.00  0.00    +0.000 A 
ATOM     24  C   UNL     1       0.131  10.646  20.510  0.00  0.00    +0.000 A 
BRANCH  23  25
ATOM     25  C   UNL     1      -1.326  12.776  20.257  0.00  0.00    +0.000 C 
ATOM     26  C   UNL     1      -1.200  12.284  18.801  0.00  0.00    +0.000 C 
ATOM     27  F   UNL     1      -2.682  12.859  20.514  0.00  0.00    +0.000 F 
BRANCH  25  28
ATOM     28  C   UNL     1      -0.751  14.210  20.471  0.00  0.00    +0.000 C 
ATOM     29  F   UNL     1      -0.950  14.950  19.338  0.00  0.00    +0.000 F 
ATOM     30  F   UNL     1      -1.453  14.860  21.445  0.00  0.00    +0.000 F 
BRANCH  28  31
ATOM     31  C   UNL     1       0.705  14.216  20.846  0.00  0.00    +0.000 A 
ATOM     32  N   UNL     1       1.171  14.388  22.075  0.00  0.00    +0.000 NA
ATOM     33  N   UNL     1       2.541  14.322  22.042  0.00  0.00    +0.000 NA
ATOM     34  C   UNL     1       2.898  14.133  20.794  0.00  0.00    +0.000 A 
ATOM     35  N   UNL     1       1.785  14.060  20.008  0.00  0.00    +0.000 N 
ATOM     36  C   UNL     1       1.808  13.862  18.584  0.00  0.00    +0.000 C 
ENDBRANCH  28  31
ENDBRANCH  25  28
ENDBRANCH  23  25
ENDBRANCH   8  19
BRANCH   5  37
ATOM     37  C   UNL     1       2.025   3.959  20.901  0.00  0.00    +0.000 C 
ATOM     38  F   UNL     1       2.417   4.245  22.173  0.00  0.00    +0.000 F 
ATOM     39  F   UNL     1       0.675   3.798  20.955  0.00  0.00    +0.000 F 
ATOM     40  F   UNL     1       2.541   2.732  20.620  0.00  0.00    +0.000 F 
ENDBRANCH   5  37
TORSDOF 6
ENDMDL
MODEL 2
REMARK VINA RESULT:     -10.1      0.626      1.193
REMARK  Name = 
REMARK  9 active torsions:
REMARK  status: ('A' for Active; 'I' for Inactive)
REMARK    1  A    between atoms: C_1  and  N_2
REMARK    2  A    between atoms: N_8  and  C_9
REMARK    3  A    between atoms: C_13  and  C_14
REMARK    4  A    between atoms: N_20  and  C_21
REMARK    5  A    between atoms: C_25  and  C_26
REMARK    6  A    between atoms: C_26  and  C_27
REMARK    7  A    between atoms: C_26  and  C_29
REMARK    8  A    between atoms: C_29  and  C_32
REMARK    9  A    between atoms: N_36  and  C_37
REMARK                            x       y       z     vdW  Elec       q    Type
REMARK                         _______ _______ _______ _____ _____    ______ ____
ROOT
ATOM      1  C   UNL     1       3.675   5.545  17.790  0.00  0.00    +0.000 A 
ATOM      2  C   UNL     1       3.283   6.880  17.947  0.00  0.00    +0.000 A 
ATOM      3  C   UNL     1       2.470   7.236  19.005  0.00  0.00    +0.000 A 
ATOM      4  C   UNL     1       2.038   6.330  19.958  0.00  0.00    +0.000 A 
ATOM      5  C   UNL     1       2.411   4.995  19.863  0.00  0.00    +0.000 A 
ATOM      6  C   UNL     1       3.231   4.629  18.772  0.00  0.00    +0.000 A 
ATOM      7  C   UNL     1       1.192   7.036  20.970  0.00  0.00    +0.000 C 
ATOM      8  N   UNL     1       1.145   8.404  20.476  0.00  0.00    +0.000 N 
ATOM      9  C   UNL     1       1.911   8.553  19.316  0.00  0.00    +0.000 C 
ATOM     10  O   UNL     1       2.143   9.527  18.623  0.00  0.00    +0.000 OA
ENDROOT
BRANCH   1  18
ATOM     11  C   UNL     1       7.932   4.381  17.528  0.00  0.00    +0.000 C 
ATOM     12  N   UNL     1       7.373   4.939  16.302  0.00  0.00    +0.000 NA
ATOM     13  C   UNL     1       6.694   6.246  16.548  0.00  0.00    +0.000 C 
ATOM     14  C   UNL     1       5.303   6.053  15.896  0.00  0.00    +0.000 C 
ATOM     15  C   UNL     1       5.666   5.108  14.749  0.00  0.00    +0.000 C 
ATOM     16  C   UNL     1       6.302   4.091  15.694  0.00  0.00    +0.000 C 
ATOM     17  C   UNL     1       5.092   3.815  16.642  0.00  0.00    +0.000 C 
ATOM     18  N   UNL     1       4.488   5.159  16.758  0.00  0.00    +0.000 N 
ENDBRANCH   1  18
BRANCH   8  19
ATOM     19  C   UNL     1       0.387   9.422  21.120  0.00  0.00    +0.000 A 
ATOM     20  C   UNL     1      -0.030   9.292  22.447  0.00  0.00    +0.000 A 
ATOM     21  C   UNL     1      -0.771  10.297  23.070  0.00  0.00    +0.000 A 
ATOM     22  C   UNL     1      -1.164  11.427  22.356  0.00  0.00    +0.000 A 
ATOM     23  C   UNL     1      -0.832  11.565  21.000  0.00  0.00    +0.000 A 
ATOM     24  C   UNL     1      -0.006  10.578  20.416  0.00  0.00    +0.000 A 
BRANCH  23  25
ATOM     25  C   UNL     1      -1.601  12.606  20.154  0.00  0.00    +0.000 C 
ATOM     26  C   UNL     1      -2.292  11.760  19.066  0.00  0.00    +0.000 C 
ATOM     27  F   UNL     1      -2.619  13.172  20.900  0.00  0.00    +0.000 F 
BRANCH  25  28
ATOM     28  C   UNL     1      -0.772  13.792  19.573  0.00  0.00    +0.000 C 
ATOM     29  F   UNL     1      -0.626  13.623  18.224  0.00  0.00    +0.000 F 
ATOM     30  F   UNL     1      -1.462  14.963  19.710  0.00  0.00    +0.000 F 
BRANCH  28  31
ATOM     31  C   UNL     1       0.574  13.951  20.225  0.00  0.00    +0.000 A 
ATOM     32  N   UNL     1       1.726  13.582  19.685  0.00  0.00    +0.000 NA
ATOM     33  N   UNL     1       2.741  13.890  20.554  0.00  0.00    +0.000 NA
ATOM     34  C   UNL     1       2.199  14.423  21.623  0.00  0.00    +0.000 A 
ATOM     35  N   UNL     1       0.845  14.482  21.464  0.00  0.00    +0.000 N 
ATOM     36  C   UNL     1      -0.065  15.006  22.447  0.00  0.00    +0.000 C 
ENDBRANCH  28  31
ENDBRANCH  25  28
ENDBRANCH  23  25
ENDBRANCH   8  19
BRANCH   5  37
ATOM     37  C   UNL     1       1.997   3.951  20.869  0.00  0.00    +0.000 C 
ATOM     38  F   UNL     1       2.527   2.720  20.627  0.00  0.00    +0.000 F 
ATOM     39  F   UNL     1       2.376   4.278  22.133  0.00  0.00    +0.000 F 
ATOM     40  F   UNL     1       0.648   3.772  20.914  0.00  0.00    +0.000 F 
ENDBRANCH   5  37
TORSDOF 6
ENDMDL
MODEL 3
REMARK VINA RESULT:      -9.9      2.263      2.985
REMARK  Name = 
REMARK  9 active torsions:
REMARK  status: ('A' for Active; 'I' for Inactive)
REMARK    1  A    between atoms: C_1  and  N_2
REMARK    2  A    between atoms: N_8  and  C_9
REMARK    3  A    between atoms: C_13  and  C_14
REMARK    4  A    between atoms: N_20  and  C_21
REMARK    5  A    between atoms: C_25  and  C_26
REMARK    6  A    between atoms: C_26  and  C_27
REMARK    7  A    between atoms: C_26  and  C_29
REMARK    8  A    between atoms: C_29  and  C_32
REMARK    9  A    between atoms: N_36  and  C_37
REMARK                            x       y       z     vdW  Elec       q    Type
REMARK                         _______ _______ _______ _____ _____    ______ ____
ROOT
ATOM      1  C   UNL     1       3.639   5.636  17.820  0.00  0.00    +0.000 A 
ATOM      2  C   UNL     1       3.228   6.961  18.006  0.00  0.00    +0.000 A 
ATOM      3  C   UNL     1       2.408   7.282  19.071  0.00  0.00    +0.000 A 
ATOM      4  C   UNL     1       1.987   6.348  20.002  0.00  0.00    +0.000 A 
ATOM      5  C   UNL     1       2.378   5.020  19.877  0.00  0.00    +0.000 A 
ATOM      6  C   UNL     1       3.205   4.691  18.779  0.00  0.00    +0.000 A 
ATOM      7  C   UNL     1       1.129   7.019  21.028  0.00  0.00    +0.000 C 
ATOM      8  N   UNL     1       1.064   8.397  20.566  0.00  0.00    +0.000 N 
ATOM      9  C   UNL     1       1.830   8.583  19.411  0.00  0.00    +0.000 C 
ATOM     10  O   UNL     1       2.051   9.576  18.741  0.00  0.00    +0.000 OA
ENDROOT
BRANCH   1  18
ATOM     11  C   UNL     1       7.875   4.399  17.556  0.00  0.00    +0.000 C 
ATOM     12  N   UNL     1       7.345   5.028  16.353  0.00  0.00    +0.000 NA
ATOM     13  C   UNL     1       6.688   6.335  16.654  0.00  0.00    +0.000 C 
ATOM     14  C   UNL     1       5.303   6.204  15.975  0.00  0.00    +0.000 C 
ATOM     15  C   UNL     1       5.664   5.310  14.787  0.00  0.00    +0.000 C 
ATOM     16  C   UNL     1       6.265   4.234  15.689  0.00  0.00    +0.000 C 
ATOM     17  C   UNL     1       5.037   3.937  16.605  0.00  0.00    +0.000 C 
ATOM     18  N   UNL     1       4.458   5.286  16.780  0.00  0.00    +0.000 N 
ENDBRANCH   1  18
BRANCH   8  19
ATOM     19  C   UNL     1       0.292   9.389  21.232  0.00  0.00    +0.000 A 
ATOM     20  C   UNL     1       0.020   9.305  22.600  0.00  0.00    +0.000 A 
ATOM     21  C   UNL     1      -0.738  10.285  23.244  0.00  0.00    +0.000 A 
ATOM     22  C   UNL     1      -1.291  11.338  22.518  0.00  0.00    +0.000 A 
ATOM     23  C   UNL     1      -1.107  11.421  21.129  0.00  0.00    +0.000 A 
ATOM     24  C   UNL     1      -0.263  10.468  20.514  0.00  0.00    +0.000 A 
BRANCH  23  25
ATOM     25  C   UNL     1      -2.039  12.347  20.315  0.00  0.00    +0.000 C 
ATOM     26  C   UNL     1      -1.122  12.924  19.218  0.00  0.00    +0.000 C 
ATOM     27  F   UNL     1      -2.999  11.602  19.655  0.00  0.00    +0.000 F 
BRANCH  25  28
ATOM     28  C   UNL     1      -2.808  13.446  21.111  0.00  0.00    +0.000 C 
ATOM     29  F   UNL     1      -2.074  13.807  22.207  0.00  0.00    +0.000 F 
ATOM     30  F   UNL     1      -2.912  14.585  20.364  0.00  0.00    +0.000 F 
BRANCH  28  31
ATOM     31  C   UNL     1      -4.188  13.021  21.529  0.00  0.00    +0.000 A 
ATOM     32  N   UNL     1      -4.498  12.505  22.710  0.00  0.00    +0.000 NA
ATOM     33  N   UNL     1      -5.845  12.249  22.741  0.00  0.00    +0.000 NA
ATOM     34  C   UNL     1      -6.340  12.590  21.575  0.00  0.00    +0.000 A 
ATOM     35  N   UNL     1      -5.343  13.078  20.783  0.00  0.00    +0.000 N 
ATOM     36  C   UNL     1      -5.530  13.540  19.434  0.00  0.00    +0.000 C 
ENDBRANCH  28  31
ENDBRANCH  25  28
ENDBRANCH  23  25
ENDBRANCH   8  19
BRANCH   5  37
ATOM     37  C   UNL     1       1.976   3.948  20.857  0.00  0.00    +0.000 C 
ATOM     38  F   UNL     1       2.354   4.213  22.138  0.00  0.00    +0.000 F 
ATOM     39  F   UNL     1       0.629   3.767  20.896  0.00  0.00    +0.000 F 
ATOM     40  F   UNL     1       2.512   2.734  20.554  0.00  0.00    +0.000 F 
ENDBRANCH   5  37
TORSDOF 6
ENDMDL
MODEL 4
REMARK VINA RESULT:      -9.8      0.906      1.379
REMARK  Name = 
REMARK  9 active torsions:
REMARK  status: ('A' for Active; 'I' for Inactive)
REMARK    1  A    between atoms: C_1  and  N_2
REMARK    2  A    between atoms: N_8  and  C_9
REMARK    3  A    between atoms: C_13  and  C_14
REMARK    4  A    between atoms: N_20  and  C_21
REMARK    5  A    between atoms: C_25  and  C_26
REMARK    6  A    between atoms: C_26  and  C_27
REMARK    7  A    between atoms: C_26  and  C_29
REMARK    8  A    between atoms: C_29  and  C_32
REMARK    9  A    between atoms: N_36  and  C_37
REMARK                            x       y       z     vdW  Elec       q    Type
REMARK                         _______ _______ _______ _____ _____    ______ ____
ROOT
ATOM      1  C   UNL     1       3.653   5.431  17.845  0.00  0.00    +0.000 A 
ATOM      2  C   UNL     1       3.274   6.768  18.019  0.00  0.00    +0.000 A 
ATOM      3  C   UNL     1       2.469   7.119  19.085  0.00  0.00    +0.000 A 
ATOM      4  C   UNL     1       2.033   6.205  20.029  0.00  0.00    +0.000 A 
ATOM      5  C   UNL     1       2.392   4.868  19.916  0.00  0.00    +0.000 A 
ATOM      6  C   UNL     1       3.204   4.507  18.817  0.00  0.00    +0.000 A 
ATOM      7  C   UNL     1       1.198   6.907  21.053  0.00  0.00    +0.000 C 
ATOM      8  N   UNL     1       1.161   8.281  20.577  0.00  0.00    +0.000 N 
ATOM      9  C   UNL     1       1.923   8.437  19.414  0.00  0.00    +0.000 C 
ATOM     10  O   UNL     1       2.162   9.417  18.733  0.00  0.00    +0.000 OA
ENDROOT
BRANCH   1  18
ATOM     11  C   UNL     1       7.938   4.393  17.521  0.00  0.00    +0.000 C 
ATOM     12  N   UNL     1       7.339   4.910  16.296  0.00  0.00    +0.000 NA
ATOM     13  C   UNL     1       6.625   6.200  16.531  0.00  0.00    +0.000 C 
ATOM     14  C   UNL     1       5.228   5.953  15.910  0.00  0.00    +0.000 C 
ATOM     15  C   UNL     1       5.599   4.997  14.774  0.00  0.00    +0.000 C 
ATOM     16  C   UNL     1       6.283   4.019  15.725  0.00  0.00    +0.000 C 
ATOM     17  C   UNL     1       5.101   3.724  16.701  0.00  0.00    +0.000 C 
ATOM     18  N   UNL     1       4.457   5.051  16.804  0.00  0.00    +0.000 N 
ENDBRANCH   1  18
BRANCH   8  19
ATOM     19  C   UNL     1       0.416   9.298  21.237  0.00  0.00    +0.000 A 
ATOM     20  C   UNL     1      -0.153   9.085  22.495  0.00  0.00    +0.000 A 
ATOM     21  C   UNL     1      -0.880  10.090  23.134  0.00  0.00    +0.000 A 
ATOM     22  C   UNL     1      -1.106  11.309  22.498  0.00  0.00    +0.000 A 
ATOM     23  C   UNL     1      -0.619  11.539  21.203  0.00  0.00    +0.000 A 
ATOM     24  C   UNL     1       0.190  10.541  20.612  0.00  0.00    +0.000 A 
BRANCH  23  25
ATOM     25  C   UNL     1      -1.210  12.713  20.389  0.00  0.00    +0.000 C 
ATOM     26  C   UNL     1      -1.759  12.040  19.115  0.00  0.00    +0.000 C 
ATOM     27  F   UNL     1      -2.308  13.244  21.042  0.00  0.00    +0.000 F 
BRANCH  25  28
ATOM     28  C   UNL     1      -0.258  13.911  20.087  0.00  0.00    +0.000 C 
ATOM     29  F   UNL     1       0.908  13.436  19.553  0.00  0.00    +0.000 F 
ATOM     30  F   UNL     1      -0.794  14.707  19.115  0.00  0.00    +0.000 F 
BRANCH  28  31
ATOM     31  C   UNL     1       0.032  14.758  21.294  0.00  0.00    +0.000 A 
ATOM     32  N   UNL     1       1.015  14.540  22.156  0.00  0.00    +0.000 NA
ATOM     33  N   UNL     1       0.983  15.516  23.119  0.00  0.00    +0.000 NA
ATOM     34  C   UNL     1      -0.028  16.306  22.850  0.00  0.00    +0.000 A 
ATOM     35  N   UNL     1      -0.655  15.873  21.717  0.00  0.00    +0.000 N 
ATOM     36  C   UNL     1      -1.809  16.503  21.136  0.00  0.00    +0.000 C 
ENDBRANCH  28  31
ENDBRANCH  25  28
ENDBRANCH  23  25
ENDBRANCH   8  19
BRANCH   5  37
ATOM     37  C   UNL     1       1.973   3.816  20.911  0.00  0.00    +0.000 C 
ATOM     38  F   UNL     1       2.386   4.073  22.183  0.00  0.00    +0.000 F 
ATOM     39  F   UNL     1       0.621   3.684  20.979  0.00  0.00    +0.000 F 
ATOM     40  F   UNL     1       2.458   2.582  20.604  0.00  0.00    +0.000 F 
ENDBRANCH   5  37
TORSDOF 6
ENDMDL
MODEL 5
REMARK VINA RESULT:      -9.7      0.744      1.139
REMARK  Name = 
REMARK  9 active torsions:
REMARK  status: ('A' for Active; 'I' for Inactive)
REMARK    1  A    between atoms: C_1  and  N_2
REMARK    2  A    between atoms: N_8  and  C_9
REMARK    3  A    between atoms: C_13  and  C_14
REMARK    4  A    between atoms: N_20  and  C_21
REMARK    5  A    between atoms: C_25  and  C_26
REMARK    6  A    between atoms: C_26  and  C_27
REMARK    7  A    between atoms: C_26  and  C_29
REMARK    8  A    between atoms: C_29  and  C_32
REMARK    9  A    between atoms: N_36  and  C_37
REMARK                            x       y       z     vdW  Elec       q    Type
REMARK                         _______ _______ _______ _____ _____    ______ ____
ROOT
ATOM      1  C   UNL     1       3.664   5.567  17.822  0.00  0.00    +0.000 A 
ATOM      2  C   UNL     1       3.268   6.898  18.004  0.00  0.00    +0.000 A 
ATOM      3  C   UNL     1       2.455   7.232  19.070  0.00  0.00    +0.000 A 
ATOM      4  C   UNL     1       2.027   6.307  20.007  0.00  0.00    +0.000 A 
ATOM      5  C   UNL     1       2.404   4.975  19.886  0.00  0.00    +0.000 A 
ATOM      6  C   UNL     1       3.223   4.631  18.787  0.00  0.00    +0.000 A 
ATOM      7  C   UNL     1       1.180   6.992  21.032  0.00  0.00    +0.000 C 
ATOM      8  N   UNL     1       1.128   8.368  20.564  0.00  0.00    +0.000 N 
ATOM      9  C   UNL     1       1.892   8.541  19.405  0.00  0.00    +0.000 C 
ATOM     10  O   UNL     1       2.121   9.529  18.730  0.00  0.00    +0.000 OA
ENDROOT
BRANCH   1  18
ATOM     11  C   UNL     1       7.911   4.370  17.540  0.00  0.00    +0.000 C 
ATOM     12  N   UNL     1       7.361   4.968  16.329  0.00  0.00    +0.000 NA
ATOM     13  C   UNL     1       6.693   6.274  16.609  0.00  0.00    +0.000 C 
ATOM     14  C   UNL     1       5.302   6.113  15.948  0.00  0.00    +0.000 C 
ATOM     15  C   UNL     1       5.660   5.197  14.776  0.00  0.00    +0.000 C 
ATOM     16  C   UNL     1       6.283   4.148  15.694  0.00  0.00    +0.000 C 
ATOM     17  C   UNL     1       5.068   3.857  16.629  0.00  0.00    +0.000 C 
ATOM     18  N   UNL     1       4.476   5.203  16.781  0.00  0.00    +0.000 N 
ENDBRANCH   1  18
BRANCH   8  19
ATOM     19  C   UNL     1       0.369   9.372  21.228  0.00  0.00    +0.000 A 
ATOM     20  C   UNL     1      -0.132   9.175  22.517  0.00  0.00    +0.000 A 
ATOM     21  C   UNL     1      -0.874  10.166  23.160  0.00  0.00    +0.000 A 
ATOM     22  C   UNL     1      -1.184  11.353  22.499  0.00  0.00    +0.000 A 
ATOM     23  C   UNL     1      -0.767  11.564  21.176  0.00  0.00    +0.000 A 
ATOM     24  C   UNL     1       0.059  10.584  20.578  0.00  0.00    +0.000 A 
BRANCH  23  25
ATOM     25  C   UNL     1      -1.447  12.684  20.357  0.00  0.00    +0.000 C 
ATOM     26  C   UNL     1      -1.224  12.259  18.892  0.00  0.00    +0.000 C 
ATOM     27  F   UNL     1      -2.815  12.659  20.555  0.00  0.00    +0.000 F 
BRANCH  25  28
ATOM     28  C   UNL     1      -0.988  14.146  20.647  0.00  0.00    +0.000 C 
ATOM     29  F   UNL     1      -1.971  15.013  20.258  0.00  0.00    +0.000 F 
ATOM     30  F   UNL     1      -0.856  14.342  21.992  0.00  0.00    +0.000 F 
BRANCH  28  31
ATOM     31  C   UNL     1       0.313  14.503  19.982  0.00  0.00    +0.000 A 
ATOM     32  N   UNL     1       1.475  13.915  20.225  0.00  0.00    +0.000 NA
ATOM     33  N   UNL     1       2.436  14.489  19.431  0.00  0.00    +0.000 NA
ATOM     34  C   UNL     1       1.856  15.433  18.729  0.00  0.00    +0.000 A 
ATOM     35  N   UNL     1       0.528  15.481  19.039  0.00  0.00    +0.000 N 
ATOM     36  C   UNL     1      -0.408  16.404  18.457  0.00  0.00    +0.000 C 
ENDBRANCH  28  31
ENDBRANCH  25  28
ENDBRANCH  23  25
ENDBRANCH   8  19
BRANCH   5  37
ATOM     37  C   UNL     1       1.994   3.912  20.873  0.00  0.00    +0.000 C 
ATOM     38  F   UNL     1       2.508   2.682  20.593  0.00  0.00    +0.000 F 
ATOM     39  F   UNL     1       2.397   4.204  22.139  0.00  0.00    +0.000 F 
ATOM     40  F   UNL     1       0.645   3.746  20.935  0.00  0.00    +0.000 F 
ENDBRANCH   5  37
TORSDOF 6
ENDMDL
MODEL 6
REMARK VINA RESULT:      -9.7      1.164      1.629
REMARK  Name = 
REMARK  9 active torsions:
REMARK  status: ('A' for Active; 'I' for Inactive)
REMARK    1  A    between atoms: C_1  and  N_2
REMARK    2  A    between atoms: N_8  and  C_9
REMARK    3  A    between atoms: C_13  and  C_14
REMARK    4  A    between atoms: N_20  and  C_21
REMARK    5  A    between atoms: C_25  and  C_26
REMARK    6  A    between atoms: C_26  and  C_27
REMARK    7  A    between atoms: C_26  and  C_29
REMARK    8  A    between atoms: C_29  and  C_32
REMARK    9  A    between atoms: N_36  and  C_37
REMARK                            x       y       z     vdW  Elec       q    Type
REMARK                         _______ _______ _______ _____ _____    ______ ____
ROOT
ATOM      1  C   UNL     1       3.666   5.443  17.787  0.00  0.00    +0.000 A 
ATOM      2  C   UNL     1       3.289   6.783  17.943  0.00  0.00    +0.000 A 
ATOM      3  C   UNL     1       2.480   7.148  19.002  0.00  0.00    +0.000 A 
ATOM      4  C   UNL     1       2.038   6.248  19.955  0.00  0.00    +0.000 A 
ATOM      5  C   UNL     1       2.395   4.908  19.860  0.00  0.00    +0.000 A 
ATOM      6  C   UNL     1       3.211   4.532  18.769  0.00  0.00    +0.000 A 
ATOM      7  C   UNL     1       1.200   6.964  20.967  0.00  0.00    +0.000 C 
ATOM      8  N   UNL     1       1.169   8.332  20.473  0.00  0.00    +0.000 N 
ATOM      9  C   UNL     1       1.937   8.472  19.313  0.00  0.00    +0.000 C 
ATOM     10  O   UNL     1       2.180   9.443  18.620  0.00  0.00    +0.000 OA
ENDROOT
BRANCH   1  18
ATOM     11  C   UNL     1       7.943   4.363  17.500  0.00  0.00    +0.000 C 
ATOM     12  N   UNL     1       7.357   4.877  16.268  0.00  0.00    +0.000 NA
ATOM     13  C   UNL     1       6.653   6.175  16.489  0.00  0.00    +0.000 C 
ATOM     14  C   UNL     1       5.259   5.937  15.860  0.00  0.00    +0.000 C 
ATOM     15  C   UNL     1       5.628   4.969  14.733  0.00  0.00    +0.000 C 
ATOM     16  C   UNL     1       6.297   3.991  15.696  0.00  0.00    +0.000 C 
ATOM     17  C   UNL     1       5.105   3.715  16.665  0.00  0.00    +0.000 C 
ATOM     18  N   UNL     1       4.474   5.048  16.754  0.00  0.00    +0.000 N 
ENDBRANCH   1  18
BRANCH   8  19
ATOM     19  C   UNL     1       0.423   9.359  21.117  0.00  0.00    +0.000 A 
ATOM     20  C   UNL     1      -0.122   9.175  22.390  0.00  0.00    +0.000 A 
ATOM     21  C   UNL     1      -0.850  10.189  23.014  0.00  0.00    +0.000 A 
ATOM     22  C   UNL     1      -1.100  11.388  22.349  0.00  0.00    +0.000 A 
ATOM     23  C   UNL     1      -0.636  11.587  21.039  0.00  0.00    +0.000 A 
ATOM     24  C   UNL     1       0.174  10.582  20.463  0.00  0.00    +0.000 A 
BRANCH  23  25
ATOM     25  C   UNL     1      -1.254  12.732  20.204  0.00  0.00    +0.000 C 
ATOM     26  C   UNL     1      -2.422  12.056  19.458  0.00  0.00    +0.000 C 
ATOM     27  F   UNL     1      -1.829  13.676  21.035  0.00  0.00    +0.000 F 
BRANCH  25  28
ATOM     28  C   UNL     1      -0.290  13.510  19.256  0.00  0.00    +0.000 C 
ATOM     29  F   UNL     1       0.903  12.848  19.183  0.00  0.00    +0.000 F 
ATOM     30  F   UNL     1      -0.776  13.503  17.979  0.00  0.00    +0.000 F 
BRANCH  28  31
ATOM     31  C   UNL     1      -0.068  14.936  19.675  0.00  0.00    +0.000 A 
ATOM     32  N   UNL     1      -0.584  15.995  19.066  0.00  0.00    +0.000 NA
ATOM     33  N   UNL     1      -0.179  17.126  19.728  0.00  0.00    +0.000 NA
ATOM     34  C   UNL     1       0.594  16.750  20.719  0.00  0.00    +0.000 A 
ATOM     35  N   UNL     1       0.694  15.389  20.727  0.00  0.00    +0.000 N 
ATOM     36  C   UNL     1       1.470  14.638  21.676  0.00  0.00    +0.000 C 
ENDBRANCH  28  31
ENDBRANCH  25  28
ENDBRANCH  23  25
ENDBRANCH   8  19
BRANCH   5  37
ATOM     37  C   UNL     1       1.969   3.870  20.866  0.00  0.00    +0.000 C 
ATOM     38  F   UNL     1       2.479   2.631  20.620  0.00  0.00    +0.000 F 
ATOM     39  F   UNL     1       2.359   4.188  22.129  0.00  0.00    +0.000 F 
ATOM     40  F   UNL     1       0.618   3.712  20.916  0.00  0.00    +0.000 F 
ENDBRANCH   5  37
TORSDOF 6
ENDMDL
MODEL 7
REMARK VINA RESULT:      -9.6      0.852      1.334
REMARK  Name = 
REMARK  9 active torsions:
REMARK  status: ('A' for Active; 'I' for Inactive)
REMARK    1  A    between atoms: C_1  and  N_2
REMARK    2  A    between atoms: N_8  and  C_9
REMARK    3  A    between atoms: C_13  and  C_14
REMARK    4  A    between atoms: N_20  and  C_21
REMARK    5  A    between atoms: C_25  and  C_26
REMARK    6  A    between atoms: C_26  and  C_27
REMARK    7  A    between atoms: C_26  and  C_29
REMARK    8  A    between atoms: C_29  and  C_32
REMARK    9  A    between atoms: N_36  and  C_37
REMARK                            x       y       z     vdW  Elec       q    Type
REMARK                         _______ _______ _______ _____ _____    ______ ____
ROOT
ATOM      1  C   UNL     1       3.654   5.583  17.799  0.00  0.00    +0.000 A 
ATOM      2  C   UNL     1       3.272   6.916  17.994  0.00  0.00    +0.000 A 
ATOM      3  C   UNL     1       2.475   7.250  19.072  0.00  0.00    +0.000 A 
ATOM      4  C   UNL     1       2.051   6.324  20.008  0.00  0.00    +0.000 A 
ATOM      5  C   UNL     1       2.413   4.989  19.875  0.00  0.00    +0.000 A 
ATOM      6  C   UNL     1       3.216   4.645  18.763  0.00  0.00    +0.000 A 
ATOM      7  C   UNL     1       1.223   7.009  21.048  0.00  0.00    +0.000 C 
ATOM      8  N   UNL     1       1.177   8.389  20.589  0.00  0.00    +0.000 N 
ATOM      9  C   UNL     1       1.929   8.563  19.422  0.00  0.00    +0.000 C 
ATOM     10  O   UNL     1       2.158   9.552  18.751  0.00  0.00    +0.000 OA
ENDROOT
BRANCH   1  18
ATOM     11  C   UNL     1       7.891   4.369  17.454  0.00  0.00    +0.000 C 
ATOM     12  N   UNL     1       7.327   4.972  16.253  0.00  0.00    +0.000 NA
ATOM     13  C   UNL     1       6.669   6.280  16.546  0.00  0.00    +0.000 C 
ATOM     14  C   UNL     1       5.268   6.128  15.904  0.00  0.00    +0.000 C 
ATOM     15  C   UNL     1       5.606   5.213  14.724  0.00  0.00    +0.000 C 
ATOM     16  C   UNL     1       6.237   4.159  15.631  0.00  0.00    +0.000 C 
ATOM     17  C   UNL     1       5.034   3.871  16.582  0.00  0.00    +0.000 C 
ATOM     18  N   UNL     1       4.450   5.219  16.746  0.00  0.00    +0.000 N 
ENDBRANCH   1  18
BRANCH   8  19
ATOM     19  C   UNL     1       0.435   9.395  21.269  0.00  0.00    +0.000 A 
ATOM     20  C   UNL     1      -0.261   9.117  22.448  0.00  0.00    +0.000 A 
ATOM     21  C   UNL     1      -0.984  10.112  23.107  0.00  0.00    +0.000 A 
ATOM     22  C   UNL     1      -1.078  11.392  22.565  0.00  0.00    +0.000 A 
ATOM     23  C   UNL     1      -0.457  11.696  21.343  0.00  0.00    +0.000 A 
ATOM     24  C   UNL     1       0.343  10.699  20.740  0.00  0.00    +0.000 A 
BRANCH  23  25
ATOM     25  C   UNL     1      -0.900  12.970  20.589  0.00  0.00    +0.000 C 
ATOM     26  C   UNL     1      -0.599  12.648  19.111  0.00  0.00    +0.000 C 
ATOM     27  F   UNL     1      -2.271  13.126  20.673  0.00  0.00    +0.000 F 
BRANCH  25  28
ATOM     28  C   UNL     1      -0.275  14.320  21.060  0.00  0.00    +0.000 C 
ATOM     29  F   UNL     1      -1.269  15.142  21.515  0.00  0.00    +0.000 F 
ATOM     30  F   UNL     1       0.534  14.113  22.141  0.00  0.00    +0.000 F 
BRANCH  28  31
ATOM     31  C   UNL     1       0.522  15.012  19.990  0.00  0.00    +0.000 A 
ATOM     32  N   UNL     1       0.063  15.977  19.206  0.00  0.00    +0.000 NA
ATOM     33  N   UNL     1       1.068  16.376  18.362  0.00  0.00    +0.000 NA
ATOM     34  C   UNL     1       2.121  15.639  18.622  0.00  0.00    +0.000 A 
ATOM     35  N   UNL     1       1.829  14.770  19.634  0.00  0.00    +0.000 N 
ATOM     36  C   UNL     1       2.754  13.809  20.171  0.00  0.00    +0.000 C 
ENDBRANCH  28  31
ENDBRANCH  25  28
ENDBRANCH  23  25
ENDBRANCH   8  19
BRANCH   5  37
ATOM     37  C   UNL     1       2.006   3.923  20.859  0.00  0.00    +0.000 C 
ATOM     38  F   UNL     1       2.526   2.696  20.580  0.00  0.00    +0.000 F 
ATOM     39  F   UNL     1       2.405   4.216  22.126  0.00  0.00    +0.000 F 
ATOM     40  F   UNL     1       0.658   3.751  20.918  0.00  0.00    +0.000 F 
ENDBRANCH   5  37
TORSDOF 6
ENDMDL
MODEL 8
REMARK VINA RESULT:      -9.6      2.081      3.114
REMARK  Name = 
REMARK  9 active torsions:
REMARK  status: ('A' for Active; 'I' for Inactive)
REMARK    1  A    between atoms: C_1  and  N_2
REMARK    2  A    between atoms: N_8  and  C_9
REMARK    3  A    between atoms: C_13  and  C_14
REMARK    4  A    between atoms: N_20  and  C_21
REMARK    5  A    between atoms: C_25  and  C_26
REMARK    6  A    between atoms: C_26  and  C_27
REMARK    7  A    between atoms: C_26  and  C_29
REMARK    8  A    between atoms: C_29  and  C_32
REMARK    9  A    between atoms: N_36  and  C_37
REMARK                            x       y       z     vdW  Elec       q    Type
REMARK                         _______ _______ _______ _____ _____    ______ ____
ROOT
ATOM      1  C   UNL     1       3.619   5.651  17.842  0.00  0.00    +0.000 A 
ATOM      2  C   UNL     1       3.215   6.979  18.027  0.00  0.00    +0.000 A 
ATOM      3  C   UNL     1       2.415   7.309  19.104  0.00  0.00    +0.000 A 
ATOM      4  C   UNL     1       2.008   6.383  20.049  0.00  0.00    +0.000 A 
ATOM      5  C   UNL     1       2.393   5.053  19.926  0.00  0.00    +0.000 A 
ATOM      6  C   UNL     1       3.199   4.714  18.816  0.00  0.00    +0.000 A 
ATOM      7  C   UNL     1       1.171   7.063  21.085  0.00  0.00    +0.000 C 
ATOM      8  N   UNL     1       1.102   8.438  20.615  0.00  0.00    +0.000 N 
ATOM      9  C   UNL     1       1.847   8.615  19.445  0.00  0.00    +0.000 C 
ATOM     10  O   UNL     1       2.059   9.602  18.765  0.00  0.00    +0.000 OA
ENDROOT
BRANCH   1  18
ATOM     11  C   UNL     1       7.849   4.408  17.512  0.00  0.00    +0.000 C 
ATOM     12  N   UNL     1       7.297   5.028  16.313  0.00  0.00    +0.000 NA
ATOM     13  C   UNL     1       6.647   6.337  16.615  0.00  0.00    +0.000 C 
ATOM     14  C   UNL     1       5.250   6.202  15.963  0.00  0.00    +0.000 C 
ATOM     15  C   UNL     1       5.588   5.297  14.776  0.00  0.00    +0.000 C 
ATOM     16  C   UNL     1       6.205   4.229  15.676  0.00  0.00    +0.000 C 
ATOM     17  C   UNL     1       4.993   3.940  16.616  0.00  0.00    +0.000 C 
ATOM     18  N   UNL     1       4.419   5.291  16.791  0.00  0.00    +0.000 N 
ENDBRANCH   1  18
BRANCH   8  19
ATOM     19  C   UNL     1       0.344   9.437  21.288  0.00  0.00    +0.000 A 
ATOM     20  C   UNL     1      -0.181   9.218  22.564  0.00  0.00    +0.000 A 
ATOM     21  C   UNL     1      -0.921  10.206  23.216  0.00  0.00    +0.000 A 
ATOM     22  C   UNL     1      -1.205  11.411  22.577  0.00  0.00    +0.000 A 
ATOM     23  C   UNL     1      -0.761  11.645  21.266  0.00  0.00    +0.000 A 
ATOM     24  C   UNL     1       0.061  10.667  20.660  0.00  0.00    +0.000 A 
BRANCH  23  25
ATOM     25  C   UNL     1      -1.413  12.791  20.460  0.00  0.00    +0.000 C 
ATOM     26  C   UNL     1      -0.827  14.069  21.093  0.00  0.00    +0.000 C 
ATOM     27  F   UNL     1      -0.964  12.775  19.152  0.00  0.00    +0.000 F 
BRANCH  25  28
ATOM     28  C   UNL     1      -2.971  12.804  20.388  0.00  0.00    +0.000 C 
ATOM     29  F   UNL     1      -3.481  12.336  21.567  0.00  0.00    +0.000 F 
ATOM     30  F   UNL     1      -3.430  14.087  20.289  0.00  0.00    +0.000 F 
BRANCH  28  31
ATOM     31  C   UNL     1      -3.519  12.010  19.234  0.00  0.00    +0.000 A 
ATOM     32  N   UNL     1      -2.784  11.345  18.355  0.00  0.00    +0.000 NA
ATOM     33  N   UNL     1      -3.619  10.732  17.455  0.00  0.00    +0.000 NA
ATOM     34  C   UNL     1      -4.850  11.045  17.780  0.00  0.00    +0.000 A 
ATOM     35  N   UNL     1      -4.840  11.843  18.887  0.00  0.00    +0.000 N 
ATOM     36  C   UNL     1      -6.018  12.377  19.514  0.00  0.00    +0.000 C 
ENDBRANCH  28  31
ENDBRANCH  25  28
ENDBRANCH  23  25
ENDBRANCH   8  19
BRANCH   5  37
ATOM     37  C   UNL     1       2.006   3.989  20.920  0.00  0.00    +0.000 C 
ATOM     38  F   UNL     1       0.661   3.797  21.016  0.00  0.00    +0.000 F 
ATOM     39  F   UNL     1       2.533   2.775  20.605  0.00  0.00    +0.000 F 
ATOM     40  F   UNL     1       2.432   4.270  22.181  0.00  0.00    +0.000 F 
ENDBRANCH   5  37
TORSDOF 6
ENDMDL
MODEL 9
REMARK VINA RESULT:      -9.5      1.587      2.322
REMARK  Name = 
REMARK  9 active torsions:
REMARK  status: ('A' for Active; 'I' for Inactive)
REMARK    1  A    between atoms: C_1  and  N_2
REMARK    2  A    between atoms: N_8  and  C_9
REMARK    3  A    between atoms: C_13  and  C_14
REMARK    4  A    between atoms: N_20  and  C_21
REMARK    5  A    between atoms: C_25  and  C_26
REMARK    6  A    between atoms: C_26  and  C_27
REMARK    7  A    between atoms: C_26  and  C_29
REMARK    8  A    between atoms: C_29  and  C_32
REMARK    9  A    between atoms: N_36  and  C_37
REMARK                            x       y       z     vdW  Elec       q    Type
REMARK                         _______ _______ _______ _____ _____    ______ ____
ROOT
ATOM      1  C   UNL     1       3.656   5.601  17.836  0.00  0.00    +0.000 A 
ATOM      2  C   UNL     1       3.253   6.926  18.044  0.00  0.00    +0.000 A 
ATOM      3  C   UNL     1       2.439   7.235  19.117  0.00  0.00    +0.000 A 
ATOM      4  C   UNL     1       2.017   6.290  20.036  0.00  0.00    +0.000 A 
ATOM      5  C   UNL     1       2.401   4.962  19.890  0.00  0.00    +0.000 A 
ATOM      6  C   UNL     1       3.221   4.645  18.783  0.00  0.00    +0.000 A 
ATOM      7  C   UNL     1       1.168   6.949  21.076  0.00  0.00    +0.000 C 
ATOM      8  N   UNL     1       1.108   8.335  20.635  0.00  0.00    +0.000 N 
ATOM      9  C   UNL     1       1.869   8.534  19.479  0.00  0.00    +0.000 C 
ATOM     10  O   UNL     1       2.092   9.536  18.824  0.00  0.00    +0.000 OA
ENDROOT
BRANCH   1  18
ATOM     11  C   UNL     1       7.897   4.392  17.531  0.00  0.00    +0.000 C 
ATOM     12  N   UNL     1       7.353   5.026  16.335  0.00  0.00    +0.000 NA
ATOM     13  C   UNL     1       6.691   6.327  16.650  0.00  0.00    +0.000 C 
ATOM     14  C   UNL     1       5.302   6.192  15.982  0.00  0.00    +0.000 C 
ATOM     15  C   UNL     1       5.658   5.307  14.785  0.00  0.00    +0.000 C 
ATOM     16  C   UNL     1       6.273   4.229  15.676  0.00  0.00    +0.000 C 
ATOM     17  C   UNL     1       5.054   3.919  16.600  0.00  0.00    +0.000 C 
ATOM     18  N   UNL     1       4.469   5.263  16.788  0.00  0.00    +0.000 N 
ENDBRANCH   1  18
BRANCH   8  19
ATOM     19  C   UNL     1       0.343   9.321  21.319  0.00  0.00    +0.000 A 
ATOM     20  C   UNL     1      -0.079   9.131  22.637  0.00  0.00    +0.000 A 
ATOM     21  C   UNL     1      -0.826  10.106  23.300  0.00  0.00    +0.000 A 
ATOM     22  C   UNL     1      -1.221  11.265  22.634  0.00  0.00    +0.000 A 
ATOM     23  C   UNL     1      -0.884  11.463  21.286  0.00  0.00    +0.000 A 
ATOM     24  C   UNL     1      -0.052  10.505  20.664  0.00  0.00    +0.000 A 
BRANCH  23  25
ATOM     25  C   UNL     1      -1.654  12.536  20.483  0.00  0.00    +0.000 C 
ATOM     26  C   UNL     1      -1.276  12.243  19.018  0.00  0.00    +0.000 C 
ATOM     27  F   UNL     1      -3.016  12.318  20.575  0.00  0.00    +0.000 F 
BRANCH  25  28
ATOM     28  C   UNL     1      -1.419  14.023  20.891  0.00  0.00    +0.000 C 
ATOM     29  F   UNL     1      -0.117  14.184  21.278  0.00  0.00    +0.000 F 
ATOM     30  F   UNL     1      -1.569  14.840  19.807  0.00  0.00    +0.000 F 
BRANCH  28  31
ATOM     31  C   UNL     1      -2.345  14.494  21.978  0.00  0.00    +0.000 A 
ATOM     32  N   UNL     1      -2.058  14.495  23.272  0.00  0.00    +0.000 NA
ATOM     33  N   UNL     1      -3.129  15.003  23.962  0.00  0.00    +0.000 NA
ATOM     34  C   UNL     1      -4.065  15.286  23.088  0.00  0.00    +0.000 A 
ATOM     35  N   UNL     1      -3.622  14.985  21.833  0.00  0.00    +0.000 N 
ATOM     36  C   UNL     1      -4.395  15.165  20.634  0.00  0.00    +0.000 C 
ENDBRANCH  28  31
ENDBRANCH  25  28
ENDBRANCH  23  25
ENDBRANCH   8  19
BRANCH   5  37
ATOM     37  C   UNL     1       1.999   3.878  20.856  0.00  0.00    +0.000 C 
ATOM     38  F   UNL     1       0.654   3.669  20.911  0.00  0.00    +0.000 F 
ATOM     39  F   UNL     1       2.548   2.675  20.536  0.00  0.00    +0.000 F 
ATOM     40  F   UNL     1       2.387   4.142  22.133  0.00  0.00    +0.000 F 
ENDBRANCH   5  37
TORSDOF 6
ENDMDL
