MODEL 1
REMARK VINA RESULT:      -8.9      0.000      0.000
REMARK  Name = 
REMARK  7 active torsions:
REMARK  status: ('A' for Active; 'I' for Inactive)
REMARK    1  A    between atoms: C_1  and  C_2
REMARK    2  A    between atoms: C_2  and  S_3
REMARK    3  A    between atoms: C_2  and  C_10
REMARK    4  A    between atoms: S_3  and  C_4
REMARK    5  A    between atoms: N_8  and  C_9
REMARK    6  A    between atoms: C_12  and  N_13
REMARK    7  A    between atoms: C_23  and  C_24
REMARK                            x       y       z     vdW  Elec       q    Type
REMARK                         _______ _______ _______ _____ _____    ______ ____
ROOT
ATOM      1  C   UNL     1       0.061  10.146  21.006  0.00  0.00    +0.000 A 
ATOM      2  C   UNL     1       0.298  11.206  20.127  0.00  0.00    +0.000 A 
ATOM      3  C   UNL     1       1.115  11.000  19.026  0.00  0.00    +0.000 A 
ATOM      4  N   UNL     1       1.687   9.818  18.751  0.00  0.00    +0.000 NA
ATOM      5  C   UNL     1       1.473   8.779  19.579  0.00  0.00    +0.000 A 
ATOM      6  N   UNL     1       2.056   7.529  19.281  0.00  0.00    +0.000 N 
ATOM      7  C   UNL     1       1.813   6.337  20.073  0.00  0.00    +0.000 C 
ATOM      8  C   UNL     1       2.571   5.271  19.352  0.00  0.00    +0.000 A 
ATOM      9  C   UNL     1       3.218   5.838  18.255  0.00  0.00    +0.000 A 
ATOM     10  C   UNL     1       4.016   5.102  17.401  0.00  0.00    +0.000 A 
ATOM     11  C   UNL     1       4.166   3.741  17.668  0.00  0.00    +0.000 A 
ATOM     12  C   UNL     1       3.510   3.152  18.767  0.00  0.00    +0.000 A 
ATOM     13  C   UNL     1       2.694   3.910  19.628  0.00  0.00    +0.000 A 
ATOM     14  C   UNL     1       2.889   7.270  18.196  0.00  0.00    +0.000 C 
ATOM     15  O   UNL     1       3.325   7.987  17.315  0.00  0.00    +0.000 OA
ATOM     16  C   UNL     1       0.677   8.921  20.714  0.00  0.00    +0.000 A 
ENDROOT
BRANCH  13  17
ATOM     17  C   UNL     1       1.992   3.243  20.781  0.00  0.00    +0.000 C 
ATOM     18  F   UNL     1       2.081   1.883  20.762  0.00  0.00    +0.000 F 
ATOM     19  F   UNL     1       2.494   3.628  21.986  0.00  0.00    +0.000 F 
ATOM     20  F   UNL     1       0.661   3.525  20.818  0.00  0.00    +0.000 F 
ENDBRANCH  13  17
BRANCH   3  21
ATOM     21  N   UNL     1       1.336  12.023  18.106  0.00  0.00    +0.000 N 
ATOM     22  H   UNL     1       1.747  12.843  18.536  0.00  0.00    +0.000 HD
ATOM     23  H   UNL     1       1.938  11.629  17.383  0.00  0.00    +0.000 HD
ENDBRANCH   3  21
BRANCH   1  25
ATOM     24  C   UNL     1      -0.240   9.648  23.486  0.00  0.00    +0.000 C 
ATOM     25  C   UNL     1      -0.807  10.347  22.240  0.00  0.00    +0.000 C 
BRANCH  25  26
ATOM     26  S   UNL     1      -0.989  12.152  22.546  0.00  0.00    +0.000 S 
BRANCH  26  27
ATOM     27  C   UNL     1      -2.700  12.297  22.722  0.00  0.00    +0.000 A 
ATOM     28  N   UNL     1      -3.405  12.067  23.805  0.00  0.00    +0.000 NA
ATOM     29  N   UNL     1      -4.716  12.381  23.524  0.00  0.00    +0.000 NA
ATOM     30  C   UNL     1      -4.770  12.783  22.274  0.00  0.00    +0.000 A 
ATOM     31  N   UNL     1      -3.524  12.730  21.725  0.00  0.00    +0.000 N 
ATOM     32  C   UNL     1      -3.177  13.093  20.378  0.00  0.00    +0.000 C 
ENDBRANCH  26  27
ENDBRANCH  25  26
ENDBRANCH   1  25
TORSDOF 5
ENDMDL
MODEL 2
REMARK VINA RESULT:      -8.7      0.902      1.139
REMARK  Name = 
REMARK  7 active torsions:
REMARK  status: ('A' for Active; 'I' for Inactive)
REMARK    1  A    between atoms: C_1  and  C_2
REMARK    2  A    between atoms: C_2  and  S_3
REMARK    3  A    between atoms: C_2  and  C_10
REMARK    4  A    between atoms: S_3  and  C_4
REMARK    5  A    between atoms: N_8  and  C_9
REMARK    6  A    between atoms: C_12  and  N_13
REMARK    7  A    between atoms: C_23  and  C_24
REMARK                            x       y       z     vdW  Elec       q    Type
REMARK                         _______ _______ _______ _____ _____    ______ ____
ROOT
ATOM      1  C   UNL     1       0.113  10.497  20.814  0.00  0.00    +0.000 A 
ATOM      2  C   UNL     1       0.387  11.541  19.928  0.00  0.00    +0.000 A 
ATOM      3  C   UNL     1       1.211  11.305  18.839  0.00  0.00    +0.000 A 
ATOM      4  N   UNL     1       1.758  10.106  18.584  0.00  0.00    +0.000 NA
ATOM      5  C   UNL     1       1.510   9.082  19.420  0.00  0.00    +0.000 A 
ATOM      6  N   UNL     1       2.066   7.815  19.142  0.00  0.00    +0.000 N 
ATOM      7  C   UNL     1       1.785   6.638  19.944  0.00  0.00    +0.000 C 
ATOM      8  C   UNL     1       2.526   5.546  19.243  0.00  0.00    +0.000 A 
ATOM      9  C   UNL     1       3.200   6.086  18.149  0.00  0.00    +0.000 A 
ATOM     10  C   UNL     1       3.991   5.322  17.312  0.00  0.00    +0.000 A 
ATOM     11  C   UNL     1       4.104   3.961  17.595  0.00  0.00    +0.000 A 
ATOM     12  C   UNL     1       3.422   3.399  18.692  0.00  0.00    +0.000 A 
ATOM     13  C   UNL     1       2.613   4.186  19.535  0.00  0.00    +0.000 A 
ATOM     14  C   UNL     1       2.906   7.525  18.070  0.00  0.00    +0.000 C 
ATOM     15  O   UNL     1       3.370   8.221  17.187  0.00  0.00    +0.000 OA
ATOM     16  C   UNL     1       0.703   9.255  20.544  0.00  0.00    +0.000 A 
ENDROOT
BRANCH  13  17
ATOM     17  C   UNL     1       1.882   3.548  20.687  0.00  0.00    +0.000 C 
ATOM     18  F   UNL     1       1.948   2.187  20.688  0.00  0.00    +0.000 F 
ATOM     19  F   UNL     1       2.372   3.942  21.893  0.00  0.00    +0.000 F 
ATOM     20  F   UNL     1       0.556   3.854  20.698  0.00  0.00    +0.000 F 
ENDBRANCH  13  17
BRANCH   3  21
ATOM     21  N   UNL     1       1.468  12.312  17.911  0.00  0.00    +0.000 N 
ATOM     22  H   UNL     1       1.907  13.120  18.334  0.00  0.00    +0.000 HD
ATOM     23  H   UNL     1       2.055  11.891  17.191  0.00  0.00    +0.000 HD
ENDBRANCH   3  21
BRANCH   1  25
ATOM     24  C   UNL     1      -0.322   9.906  23.254  0.00  0.00    +0.000 C 
ATOM     25  C   UNL     1      -0.764  10.732  22.035  0.00  0.00    +0.000 C 
BRANCH  25  26
ATOM     26  S   UNL     1      -0.747  12.527  22.439  0.00  0.00    +0.000 S 
BRANCH  26  27
ATOM     27  C   UNL     1      -2.262  12.710  23.247  0.00  0.00    +0.000 A 
ATOM     28  N   UNL     1      -3.255  11.852  23.263  0.00  0.00    +0.000 NA
ATOM     29  N   UNL     1      -4.233  12.363  24.088  0.00  0.00    +0.000 NA
ATOM     30  C   UNL     1      -3.807  13.522  24.539  0.00  0.00    +0.000 A 
ATOM     31  N   UNL     1      -2.575  13.788  24.020  0.00  0.00    +0.000 N 
ATOM     32  C   UNL     1      -1.783  14.958  24.282  0.00  0.00    +0.000 C 
ENDBRANCH  26  27
ENDBRANCH  25  26
ENDBRANCH   1  25
TORSDOF 5
ENDMDL
MODEL 3
REMARK VINA RESULT:      -8.6      0.604      1.146
REMARK  Name = 
REMARK  7 active torsions:
REMARK  status: ('A' for Active; 'I' for Inactive)
REMARK    1  A    between atoms: C_1  and  C_2
REMARK    2  A    between atoms: C_2  and  S_3
REMARK    3  A    between atoms: C_2  and  C_10
REMARK    4  A    between atoms: S_3  and  C_4
REMARK    5  A    between atoms: N_8  and  C_9
REMARK    6  A    between atoms: C_12  and  N_13
REMARK    7  A    between atoms: C_23  and  C_24
REMARK                            x       y       z     vdW  Elec       q    Type
REMARK                         _______ _______ _______ _____ _____    ______ ____
ROOT
ATOM      1  C   UNL     1       0.233  10.163  20.807  0.00  0.00    +0.000 A 
ATOM      2  C   UNL     1       0.541  11.186  19.908  0.00  0.00    +0.000 A 
ATOM      3  C   UNL     1       1.392  10.918  18.847  0.00  0.00    +0.000 A 
ATOM      4  N   UNL     1       1.931   9.709  18.629  0.00  0.00    +0.000 NA
ATOM      5  C   UNL     1       1.648   8.704  19.478  0.00  0.00    +0.000 A 
ATOM      6  N   UNL     1       2.196   7.426  19.240  0.00  0.00    +0.000 N 
ATOM      7  C   UNL     1       1.880   6.268  20.057  0.00  0.00    +0.000 C 
ATOM      8  C   UNL     1       2.626   5.155  19.398  0.00  0.00    +0.000 A 
ATOM      9  C   UNL     1       3.335   5.664  18.311  0.00  0.00    +0.000 A 
ATOM     10  C   UNL     1       4.138   4.875  17.511  0.00  0.00    +0.000 A 
ATOM     11  C   UNL     1       4.228   3.519  17.824  0.00  0.00    +0.000 A 
ATOM     12  C   UNL     1       3.510   2.987  18.913  0.00  0.00    +0.000 A 
ATOM     13  C   UNL     1       2.689   3.799  19.719  0.00  0.00    +0.000 A 
ATOM     14  C   UNL     1       3.060   7.105  18.197  0.00  0.00    +0.000 C 
ATOM     15  O   UNL     1       3.555   7.778  17.313  0.00  0.00    +0.000 OA
ATOM     16  C   UNL     1       0.814   8.909  20.577  0.00  0.00    +0.000 A 
ENDROOT
BRANCH  13  17
ATOM     17  C   UNL     1       1.920   3.193  20.863  0.00  0.00    +0.000 C 
ATOM     18  F   UNL     1       1.969   1.831  20.892  0.00  0.00    +0.000 F 
ATOM     19  F   UNL     1       2.384   3.605  22.074  0.00  0.00    +0.000 F 
ATOM     20  F   UNL     1       0.599   3.515  20.834  0.00  0.00    +0.000 F 
ENDBRANCH  13  17
BRANCH   3  21
ATOM     21  N   UNL     1       1.684  11.904  17.906  0.00  0.00    +0.000 N 
ATOM     22  H   UNL     1       2.589  11.764  17.473  0.00  0.00    +0.000 HD
ATOM     23  H   UNL     1       0.927  11.878  17.223  0.00  0.00    +0.000 HD
ENDBRANCH   3  21
BRANCH   1  25
ATOM     24  C   UNL     1      -0.189   9.740  23.284  0.00  0.00    +0.000 C 
ATOM     25  C   UNL     1      -0.673  10.432  22.000  0.00  0.00    +0.000 C 
BRANCH  25  26
ATOM     26  S   UNL     1      -0.787  12.250  22.257  0.00  0.00    +0.000 S 
BRANCH  26  27
ATOM     27  C   UNL     1      -2.384  12.577  21.690  0.00  0.00    +0.000 A 
ATOM     28  N   UNL     1      -2.748  12.814  20.451  0.00  0.00    +0.000 NA
ATOM     29  N   UNL     1      -4.120  12.943  20.437  0.00  0.00    +0.000 NA
ATOM     30  C   UNL     1      -4.546  12.791  21.671  0.00  0.00    +0.000 A 
ATOM     31  N   UNL     1      -3.484  12.575  22.497  0.00  0.00    +0.000 N 
ATOM     32  C   UNL     1      -3.546  12.360  23.916  0.00  0.00    +0.000 C 
ENDBRANCH  26  27
ENDBRANCH  25  26
ENDBRANCH   1  25
TORSDOF 5
ENDMDL
MODEL 4
REMARK VINA RESULT:      -8.2      1.159      1.799
REMARK  Name = 
REMARK  7 active torsions:
REMARK  status: ('A' for Active; 'I' for Inactive)
REMARK    1  A    between atoms: C_1  and  C_2
REMARK    2  A    between atoms: C_2  and  S_3
REMARK    3  A    between atoms: C_2  and  C_10
REMARK    4  A    between atoms: S_3  and  C_4
REMARK    5  A    between atoms: N_8  and  C_9
REMARK    6  A    between atoms: C_12  and  N_13
REMARK    7  A    between atoms: C_23  and  C_24
REMARK                            x       y       z     vdW  Elec       q    Type
REMARK                         _______ _______ _______ _____ _____    ______ ____
ROOT
ATOM      1  C   UNL     1       0.469  10.264  20.097  0.00  0.00    +0.000 A 
ATOM      2  C   UNL     1       0.976  11.264  19.265  0.00  0.00    +0.000 A 
ATOM      3  C   UNL     1       1.939  10.935  18.323  0.00  0.00    +0.000 A 
ATOM      4  N   UNL     1       2.406   9.687  18.160  0.00  0.00    +0.000 NA
ATOM      5  C   UNL     1       1.932   8.704  18.947  0.00  0.00    +0.000 A 
ATOM      6  N   UNL     1       2.406   7.387  18.764  0.00  0.00    +0.000 N 
ATOM      7  C   UNL     1       1.892   6.254  19.511  0.00  0.00    +0.000 C 
ATOM      8  C   UNL     1       2.631   5.088  18.940  0.00  0.00    +0.000 A 
ATOM      9  C   UNL     1       3.518   5.545  17.968  0.00  0.00    +0.000 A 
ATOM     10  C   UNL     1       4.357   4.699  17.269  0.00  0.00    +0.000 A 
ATOM     11  C   UNL     1       4.297   3.338  17.569  0.00  0.00    +0.000 A 
ATOM     12  C   UNL     1       3.399   2.859  18.543  0.00  0.00    +0.000 A 
ATOM     13  C   UNL     1       2.543   3.730  19.244  0.00  0.00    +0.000 A 
ATOM     14  C   UNL     1       3.375   7.004  17.841  0.00  0.00    +0.000 C 
ATOM     15  O   UNL     1       4.037   7.640  17.043  0.00  0.00    +0.000 OA
ATOM     16  C   UNL     1       0.976   8.968  19.926  0.00  0.00    +0.000 A 
ENDROOT
BRANCH  13  17
ATOM     17  C   UNL     1       1.581   3.181  20.264  0.00  0.00    +0.000 C 
ATOM     18  F   UNL     1       1.844   3.589  21.538  0.00  0.00    +0.000 F 
ATOM     19  F   UNL     1       0.295   3.552  20.016  0.00  0.00    +0.000 F 
ATOM     20  F   UNL     1       1.581   1.821  20.305  0.00  0.00    +0.000 F 
ENDBRANCH  13  17
BRANCH   3  21
ATOM     21  N   UNL     1       2.433  11.899  17.447  0.00  0.00    +0.000 N 
ATOM     22  H   UNL     1       3.074  11.508  16.768  0.00  0.00    +0.000 HD
ATOM     23  H   UNL     1       1.618  12.322  17.002  0.00  0.00    +0.000 HD
ENDBRANCH   3  21
BRANCH   1  25
ATOM     24  C   UNL     1      -0.097  10.242  22.581  0.00  0.00    +0.000 C 
ATOM     25  C   UNL     1      -0.566  10.598  21.161  0.00  0.00    +0.000 C 
BRANCH  25  26
ATOM     26  S   UNL     1      -0.970  12.389  21.051  0.00  0.00    +0.000 S 
BRANCH  26  27
ATOM     27  C   UNL     1      -2.463  12.350  20.185  0.00  0.00    +0.000 A 
ATOM     28  N   UNL     1      -2.655  11.905  18.965  0.00  0.00    +0.000 NA
ATOM     29  N   UNL     1      -4.004  11.988  18.699  0.00  0.00    +0.000 NA
ATOM     30  C   UNL     1      -4.589  12.492  19.763  0.00  0.00    +0.000 A 
ATOM     31  N   UNL     1      -3.652  12.751  20.718  0.00  0.00    +0.000 N 
ATOM     32  C   UNL     1      -3.903  13.303  22.021  0.00  0.00    +0.000 C 
ENDBRANCH  26  27
ENDBRANCH  25  26
ENDBRANCH   1  25
TORSDOF 5
ENDMDL
MODEL 5
REMARK VINA RESULT:      -8.1      1.074      1.339
REMARK  Name = 
REMARK  7 active torsions:
REMARK  status: ('A' for Active; 'I' for Inactive)
REMARK    1  A    between atoms: C_1  and  C_2
REMARK    2  A    between atoms: C_2  and  S_3
REMARK    3  A    between atoms: C_2  and  C_10
REMARK    4  A    between atoms: S_3  and  C_4
REMARK    5  A    between atoms: N_8  and  C_9
REMARK    6  A    between atoms: C_12  and  N_13
REMARK    7  A    between atoms: C_23  and  C_24
REMARK                            x       y       z     vdW  Elec       q    Type
REMARK                         _______ _______ _______ _____ _____    ______ ____
ROOT
ATOM      1  C   UNL     1       0.517  10.210  20.108  0.00  0.00    +0.000 A 
ATOM      2  C   UNL     1       1.031  11.208  19.277  0.00  0.00    +0.000 A 
ATOM      3  C   UNL     1       1.975  10.869  18.320  0.00  0.00    +0.000 A 
ATOM      4  N   UNL     1       2.417   9.615  18.141  0.00  0.00    +0.000 NA
ATOM      5  C   UNL     1       1.936   8.633  18.926  0.00  0.00    +0.000 A 
ATOM      6  N   UNL     1       2.382   7.310  18.726  0.00  0.00    +0.000 N 
ATOM      7  C   UNL     1       1.858   6.180  19.471  0.00  0.00    +0.000 C 
ATOM      8  C   UNL     1       2.567   5.005  18.881  0.00  0.00    +0.000 A 
ATOM      9  C   UNL     1       3.450   5.455  17.900  0.00  0.00    +0.000 A 
ATOM     10  C   UNL     1       4.265   4.599  17.184  0.00  0.00    +0.000 A 
ATOM     11  C   UNL     1       4.184   3.237  17.474  0.00  0.00    +0.000 A 
ATOM     12  C   UNL     1       3.290   2.766  18.456  0.00  0.00    +0.000 A 
ATOM     13  C   UNL     1       2.459   3.647  19.175  0.00  0.00    +0.000 A 
ATOM     14  C   UNL     1       3.333   6.916  17.788  0.00  0.00    +0.000 C 
ATOM     15  O   UNL     1       3.996   7.547  16.986  0.00  0.00    +0.000 OA
ATOM     16  C   UNL     1       0.998   8.907  19.920  0.00  0.00    +0.000 A 
ENDROOT
BRANCH  13  17
ATOM     17  C   UNL     1       1.500   3.107  20.204  0.00  0.00    +0.000 C 
ATOM     18  F   UNL     1       0.243   2.899  19.721  0.00  0.00    +0.000 F 
ATOM     19  F   UNL     1       1.903   1.910  20.709  0.00  0.00    +0.000 F 
ATOM     20  F   UNL     1       1.354   3.939  21.270  0.00  0.00    +0.000 F 
ENDBRANCH  13  17
BRANCH   3  21
ATOM     21  N   UNL     1       2.475  11.831  17.445  0.00  0.00    +0.000 N 
ATOM     22  H   UNL     1       3.485  11.889  17.476  0.00  0.00    +0.000 HD
ATOM     23  H   UNL     1       2.136  11.575  16.518  0.00  0.00    +0.000 HD
ENDBRANCH   3  21
BRANCH   1  25
ATOM     24  C   UNL     1      -0.085  10.044  22.578  0.00  0.00    +0.000 C 
ATOM     25  C   UNL     1      -0.498  10.554  21.188  0.00  0.00    +0.000 C 
BRANCH  25  26
ATOM     26  S   UNL     1      -0.732  12.379  21.220  0.00  0.00    +0.000 S 
BRANCH  26  27
ATOM     27  C   UNL     1      -2.442  12.507  21.022  0.00  0.00    +0.000 A 
ATOM     28  N   UNL     1      -3.322  12.822  21.944  0.00  0.00    +0.000 NA
ATOM     29  N   UNL     1      -4.557  12.885  21.337  0.00  0.00    +0.000 NA
ATOM     30  C   UNL     1      -4.391  12.596  20.066  0.00  0.00    +0.000 A 
ATOM     31  N   UNL     1      -3.075  12.334  19.827  0.00  0.00    +0.000 N 
ATOM     32  C   UNL     1      -2.501  11.983  18.557  0.00  0.00    +0.000 C 
ENDBRANCH  26  27
ENDBRANCH  25  26
ENDBRANCH   1  25
TORSDOF 5
ENDMDL
MODEL 6
REMARK VINA RESULT:      -8.0      3.510      4.787
REMARK  Name = 
REMARK  7 active torsions:
REMARK  status: ('A' for Active; 'I' for Inactive)
REMARK    1  A    between atoms: C_1  and  C_2
REMARK    2  A    between atoms: C_2  and  S_3
REMARK    3  A    between atoms: C_2  and  C_10
REMARK    4  A    between atoms: S_3  and  C_4
REMARK    5  A    between atoms: N_8  and  C_9
REMARK    6  A    between atoms: C_12  and  N_13
REMARK    7  A    between atoms: C_23  and  C_24
REMARK                            x       y       z     vdW  Elec       q    Type
REMARK                         _______ _______ _______ _____ _____    ______ ____
ROOT
ATOM      1  C   UNL     1       0.567  10.698  19.680  0.00  0.00    +0.000 A 
ATOM      2  C   UNL     1      -0.126  10.525  20.880  0.00  0.00    +0.000 A 
ATOM      3  C   UNL     1      -0.038   9.311  21.543  0.00  0.00    +0.000 A 
ATOM      4  N   UNL     1       0.699   8.284  21.092  0.00  0.00    +0.000 NA
ATOM      5  C   UNL     1       1.380   8.424  19.940  0.00  0.00    +0.000 A 
ATOM      6  N   UNL     1       2.173   7.353  19.474  0.00  0.00    +0.000 N 
ATOM      7  C   UNL     1       3.002   7.446  18.286  0.00  0.00    +0.000 C 
ATOM      8  C   UNL     1       3.690   6.121  18.230  0.00  0.00    +0.000 A 
ATOM      9  C   UNL     1       3.247   5.335  19.293  0.00  0.00    +0.000 A 
ATOM     10  C   UNL     1       3.692   4.043  19.498  0.00  0.00    +0.000 A 
ATOM     11  C   UNL     1       4.619   3.528  18.592  0.00  0.00    +0.000 A 
ATOM     12  C   UNL     1       5.083   4.313  17.519  0.00  0.00    +0.000 A 
ATOM     13  C   UNL     1       4.628   5.631  17.322  0.00  0.00    +0.000 A 
ATOM     14  C   UNL     1       2.291   6.113  20.094  0.00  0.00    +0.000 C 
ATOM     15  O   UNL     1       1.769   5.647  21.090  0.00  0.00    +0.000 OA
ATOM     16  C   UNL     1       1.321   9.612  19.213  0.00  0.00    +0.000 A 
ENDROOT
BRANCH  13  17
ATOM     17  C   UNL     1       5.161   6.449  16.176  0.00  0.00    +0.000 C 
ATOM     18  F   UNL     1       6.221   7.235  16.513  0.00  0.00    +0.000 F 
ATOM     19  F   UNL     1       5.590   5.674  15.142  0.00  0.00    +0.000 F 
ATOM     20  F   UNL     1       4.227   7.291  15.655  0.00  0.00    +0.000 F 
ENDBRANCH  13  17
BRANCH   3  21
ATOM     21  N   UNL     1      -0.681   9.121  22.764  0.00  0.00    +0.000 N 
ATOM     22  H   UNL     1      -0.256   9.660  23.509  0.00  0.00    +0.000 HD
ATOM     23  H   UNL     1      -1.656   9.379  22.615  0.00  0.00    +0.000 HD
ENDBRANCH   3  21
BRANCH   1  25
ATOM     24  C   UNL     1      -0.437  13.038  19.610  0.00  0.00    +0.000 C 
ATOM     25  C   UNL     1       0.467  12.008  18.913  0.00  0.00    +0.000 C 
BRANCH  25  26
ATOM     26  S   UNL     1       2.159  12.691  18.685  0.00  0.00    +0.000 S 
BRANCH  26  27
ATOM     27  C   UNL     1       2.311  13.699  20.078  0.00  0.00    +0.000 A 
ATOM     28  N   UNL     1       2.521  13.309  21.314  0.00  0.00    +0.000 NA
ATOM     29  N   UNL     1       2.653  14.440  22.090  0.00  0.00    +0.000 NA
ATOM     30  C   UNL     1       2.509  15.482  21.303  0.00  0.00    +0.000 A 
ATOM     31  N   UNL     1       2.275  15.061  20.028  0.00  0.00    +0.000 N 
ATOM     32  C   UNL     1       2.069  15.906  18.884  0.00  0.00    +0.000 C 
ENDBRANCH  26  27
ENDBRANCH  25  26
ENDBRANCH   1  25
TORSDOF 5
ENDMDL
MODEL 7
REMARK VINA RESULT:      -7.9      3.494      5.191
REMARK  Name = 
REMARK  7 active torsions:
REMARK  status: ('A' for Active; 'I' for Inactive)
REMARK    1  A    between atoms: C_1  and  C_2
REMARK    2  A    between atoms: C_2  and  S_3
REMARK    3  A    between atoms: C_2  and  C_10
REMARK    4  A    between atoms: S_3  and  C_4
REMARK    5  A    between atoms: N_8  and  C_9
REMARK    6  A    between atoms: C_12  and  N_13
REMARK    7  A    between atoms: C_23  and  C_24
REMARK                            x       y       z     vdW  Elec       q    Type
REMARK                         _______ _______ _______ _____ _____    ______ ____
ROOT
ATOM      1  C   UNL     1       0.912  10.719  19.875  0.00  0.00    +0.000 A 
ATOM      2  C   UNL     1       0.143  10.502  21.021  0.00  0.00    +0.000 A 
ATOM      3  C   UNL     1       0.092   9.230  21.570  0.00  0.00    +0.000 A 
ATOM      4  N   UNL     1       0.761   8.186  21.057  0.00  0.00    +0.000 NA
ATOM      5  C   UNL     1       1.511   8.366  19.955  0.00  0.00    +0.000 A 
ATOM      6  N   UNL     1       2.232   7.275  19.425  0.00  0.00    +0.000 N 
ATOM      7  C   UNL     1       3.128   7.399  18.290  0.00  0.00    +0.000 C 
ATOM      8  C   UNL     1       3.702   6.028  18.140  0.00  0.00    +0.000 A 
ATOM      9  C   UNL     1       3.138   5.192  19.102  0.00  0.00    +0.000 A 
ATOM     10  C   UNL     1       3.458   3.852  19.204  0.00  0.00    +0.000 A 
ATOM     11  C   UNL     1       4.384   3.339  18.296  0.00  0.00    +0.000 A 
ATOM     12  C   UNL     1       4.970   4.173  17.323  0.00  0.00    +0.000 A 
ATOM     13  C   UNL     1       4.640   5.539  17.232  0.00  0.00    +0.000 A 
ATOM     14  C   UNL     1       2.210   5.978  19.930  0.00  0.00    +0.000 C 
ATOM     15  O   UNL     1       1.599   5.473  20.853  0.00  0.00    +0.000 OA
ATOM     16  C   UNL     1       1.593   9.616  19.342  0.00  0.00    +0.000 A 
ENDROOT
BRANCH  13  17
ATOM     17  C   UNL     1       5.302   6.406  16.193  0.00  0.00    +0.000 C 
ATOM     18  F   UNL     1       4.422   7.141  15.456  0.00  0.00    +0.000 F 
ATOM     19  F   UNL     1       6.165   7.304  16.741  0.00  0.00    +0.000 F 
ATOM     20  F   UNL     1       6.025   5.685  15.294  0.00  0.00    +0.000 F 
ENDBRANCH  13  17
BRANCH   3  21
ATOM     21  N   UNL     1      -0.628   8.989  22.738  0.00  0.00    +0.000 N 
ATOM     22  H   UNL     1      -1.525   9.459  22.738  0.00  0.00    +0.000 HD
ATOM     23  H   UNL     1      -0.729   7.976  22.806  0.00  0.00    +0.000 HD
ENDBRANCH   3  21
BRANCH   1  25
ATOM     24  C   UNL     1      -0.431  12.664  18.925  0.00  0.00    +0.000 C 
ATOM     25  C   UNL     1       0.965  12.097  19.232  0.00  0.00    +0.000 C 
BRANCH  25  26
ATOM     26  S   UNL     1       1.887  13.234  20.345  0.00  0.00    +0.000 S 
BRANCH  26  27
ATOM     27  C   UNL     1       2.592  14.327  19.209  0.00  0.00    +0.000 A 
ATOM     28  N   UNL     1       3.618  14.095  18.425  0.00  0.00    +0.000 NA
ATOM     29  N   UNL     1       3.793  15.207  17.629  0.00  0.00    +0.000 NA
ATOM     30  C   UNL     1       2.873  16.084  17.963  0.00  0.00    +0.000 A 
ATOM     31  N   UNL     1       2.104  15.577  18.967  0.00  0.00    +0.000 N 
ATOM     32  C   UNL     1       0.994  16.238  19.597  0.00  0.00    +0.000 C 
ENDBRANCH  26  27
ENDBRANCH  25  26
ENDBRANCH   1  25
TORSDOF 5
ENDMDL
MODEL 8
REMARK VINA RESULT:      -7.9      1.013      1.366
REMARK  Name = 
REMARK  7 active torsions:
REMARK  status: ('A' for Active; 'I' for Inactive)
REMARK    1  A    between atoms: C_1  and  C_2
REMARK    2  A    between atoms: C_2  and  S_3
REMARK    3  A    between atoms: C_2  and  C_10
REMARK    4  A    between atoms: S_3  and  C_4
REMARK    5  A    between atoms: N_8  and  C_9
REMARK    6  A    between atoms: C_12  and  N_13
REMARK    7  A    between atoms: C_23  and  C_24
REMARK                            x       y       z     vdW  Elec       q    Type
REMARK                         _______ _______ _______ _____ _____    ______ ____
ROOT
ATOM      1  C   UNL     1       0.354  10.386  20.012  0.00  0.00    +0.000 A 
ATOM      2  C   UNL     1       0.909  11.386  19.210  0.00  0.00    +0.000 A 
ATOM      3  C   UNL     1       1.901  11.051  18.302  0.00  0.00    +0.000 A 
ATOM      4  N   UNL     1       2.354   9.798  18.143  0.00  0.00    +0.000 NA
ATOM      5  C   UNL     1       1.835   8.814  18.901  0.00  0.00    +0.000 A 
ATOM      6  N   UNL     1       2.294   7.492  18.722  0.00  0.00    +0.000 N 
ATOM      7  C   UNL     1       1.734   6.360  19.438  0.00  0.00    +0.000 C 
ATOM      8  C   UNL     1       2.476   5.188  18.883  0.00  0.00    +0.000 A 
ATOM      9  C   UNL     1       3.406   5.641  17.949  0.00  0.00    +0.000 A 
ATOM     10  C   UNL     1       4.258   4.787  17.274  0.00  0.00    +0.000 A 
ATOM     11  C   UNL     1       4.165   3.425  17.557  0.00  0.00    +0.000 A 
ATOM     12  C   UNL     1       3.223   2.951  18.491  0.00  0.00    +0.000 A 
ATOM     13  C   UNL     1       2.355   3.829  19.169  0.00  0.00    +0.000 A 
ATOM     14  C   UNL     1       3.292   7.102  17.833  0.00  0.00    +0.000 C 
ATOM     15  O   UNL     1       3.993   7.736  17.067  0.00  0.00    +0.000 OA
ATOM     16  C   UNL     1       0.847   9.085  19.847  0.00  0.00    +0.000 A 
ENDROOT
BRANCH  13  17
ATOM     17  C   UNL     1       1.346   3.285  20.146  0.00  0.00    +0.000 C 
ATOM     18  F   UNL     1       0.214   2.810  19.554  0.00  0.00    +0.000 F 
ATOM     19  F   UNL     1       1.840   2.251  20.879  0.00  0.00    +0.000 F 
ATOM     20  F   UNL     1       0.929   4.220  21.042  0.00  0.00    +0.000 F 
ENDBRANCH  13  17
BRANCH   3  21
ATOM     21  N   UNL     1       2.443  12.016  17.455  0.00  0.00    +0.000 N 
ATOM     22  H   UNL     1       2.558  12.910  17.916  0.00  0.00    +0.000 HD
ATOM     23  H   UNL     1       3.332  11.638  17.127  0.00  0.00    +0.000 HD
ENDBRANCH   3  21
BRANCH   1  25
ATOM     24  C   UNL     1      -0.252  10.481  22.485  0.00  0.00    +0.000 C 
ATOM     25  C   UNL     1      -0.715  10.727  21.039  0.00  0.00    +0.000 C 
BRANCH  25  26
ATOM     26  S   UNL     1      -1.211  12.484  20.817  0.00  0.00    +0.000 S 
BRANCH  26  27
ATOM     27  C   UNL     1      -2.447  12.645  22.011  0.00  0.00    +0.000 A 
ATOM     28  N   UNL     1      -3.643  12.103  21.986  0.00  0.00    +0.000 NA
ATOM     29  N   UNL     1      -4.271  12.426  23.170  0.00  0.00    +0.000 NA
ATOM     30  C   UNL     1      -3.440  13.163  23.873  0.00  0.00    +0.000 A 
ATOM     31  N   UNL     1      -2.284  13.340  23.173  0.00  0.00    +0.000 N 
ATOM     32  C   UNL     1      -1.136  14.085  23.612  0.00  0.00    +0.000 C 
ENDBRANCH  26  27
ENDBRANCH  25  26
ENDBRANCH   1  25
TORSDOF 5
ENDMDL
MODEL 9
REMARK VINA RESULT:      -7.9      3.100      3.967
REMARK  Name = 
REMARK  7 active torsions:
REMARK  status: ('A' for Active; 'I' for Inactive)
REMARK    1  A    between atoms: C_1  and  C_2
REMARK    2  A    between atoms: C_2  and  S_3
REMARK    3  A    between atoms: C_2  and  C_10
REMARK    4  A    between atoms: S_3  and  C_4
REMARK    5  A    between atoms: N_8  and  C_9
REMARK    6  A    between atoms: C_12  and  N_13
REMARK    7  A    between atoms: C_23  and  C_24
REMARK                            x       y       z     vdW  Elec       q    Type
REMARK                         _______ _______ _______ _____ _____    ______ ____
ROOT
ATOM      1  C   UNL     1       0.677  10.628  20.011  0.00  0.00    +0.000 A 
ATOM      2  C   UNL     1      -0.028  10.388  21.193  0.00  0.00    +0.000 A 
ATOM      3  C   UNL     1       0.014   9.124  21.760  0.00  0.00    +0.000 A 
ATOM      4  N   UNL     1       0.714   8.109  21.231  0.00  0.00    +0.000 NA
ATOM      5  C   UNL     1       1.404   8.312  20.094  0.00  0.00    +0.000 A 
ATOM      6  N   UNL     1       2.159   7.253  19.547  0.00  0.00    +0.000 N 
ATOM      7  C   UNL     1       2.995   7.407  18.371  0.00  0.00    +0.000 C 
ATOM      8  C   UNL     1       3.634   6.065  18.212  0.00  0.00    +0.000 A 
ATOM      9  C   UNL     1       3.159   5.216  19.210  0.00  0.00    +0.000 A 
ATOM     10  C   UNL     1       3.555   3.897  19.315  0.00  0.00    +0.000 A 
ATOM     11  C   UNL     1       4.466   3.419  18.372  0.00  0.00    +0.000 A 
ATOM     12  C   UNL     1       4.963   4.268  17.364  0.00  0.00    +0.000 A 
ATOM     13  C   UNL     1       4.557   5.613  17.270  0.00  0.00    +0.000 A 
ATOM     14  C   UNL     1       2.228   5.964  20.069  0.00  0.00    +0.000 C 
ATOM     15  O   UNL     1       1.687   5.442  21.025  0.00  0.00    +0.000 OA
ATOM     16  C   UNL     1       1.391   9.555  19.462  0.00  0.00    +0.000 A 
ENDROOT
BRANCH  13  17
ATOM     17  C   UNL     1       5.124   6.498  16.191  0.00  0.00    +0.000 C 
ATOM     18  F   UNL     1       4.206   7.337  15.635  0.00  0.00    +0.000 F 
ATOM     19  F   UNL     1       6.124   7.299  16.650  0.00  0.00    +0.000 F 
ATOM     20  F   UNL     1       5.651   5.789  15.157  0.00  0.00    +0.000 F 
ENDBRANCH  13  17
BRANCH   3  21
ATOM     21  N   UNL     1      -0.641   8.864  22.962  0.00  0.00    +0.000 N 
ATOM     22  H   UNL     1      -0.625   9.660  23.587  0.00  0.00    +0.000 HD
ATOM     23  H   UNL     1      -1.592   8.591  22.714  0.00  0.00    +0.000 HD
ENDBRANCH   3  21
BRANCH   1  25
ATOM     24  C   UNL     1       1.909  12.326  18.565  0.00  0.00    +0.000 C 
ATOM     25  C   UNL     1       0.627  11.997  19.348  0.00  0.00    +0.000 C 
BRANCH  25  26
ATOM     26  S   UNL     1      -0.837  12.062  18.236  0.00  0.00    +0.000 S 
BRANCH  26  27
ATOM     27  C   UNL     1      -2.085  12.512  19.340  0.00  0.00    +0.000 A 
ATOM     28  N   UNL     1      -1.963  13.278  20.400  0.00  0.00    +0.000 NA
ATOM     29  N   UNL     1      -3.218  13.437  20.945  0.00  0.00    +0.000 NA
ATOM     30  C   UNL     1      -4.063  12.754  20.205  0.00  0.00    +0.000 A 
ATOM     31  N   UNL     1      -3.388  12.141  19.192  0.00  0.00    +0.000 N 
ATOM     32  C   UNL     1      -3.968  11.308  18.174  0.00  0.00    +0.000 C 
ENDBRANCH  26  27
ENDBRANCH  25  26
ENDBRANCH   1  25
TORSDOF 5
ENDMDL
