MODEL 1
REMARK VINA RESULT:      -9.0      0.000      0.000
REMARK  Name = 
REMARK  5 active torsions:
REMARK  status: ('A' for Active; 'I' for Inactive)
REMARK    1  A    between atoms: C_1  and  N_2
REMARK    2  A    between atoms: C_6  and  C_7
REMARK    3  A    between atoms: C_10  and  C_11
REMARK    4  A    between atoms: C_15  and  N_16
REMARK    5  A    between atoms: C_23  and  C_24
REMARK                            x       y       z     vdW  Elec       q    Type
REMARK                         _______ _______ _______ _____ _____    ______ ____
ROOT
ATOM      1  C   UNL     1       3.084   4.661  19.046  0.00  0.00    +0.000 A 
ATOM      2  C   UNL     1       2.235   3.814  19.784  0.00  0.00    +0.000 A 
ATOM      3  C   UNL     1       1.197   4.307  20.571  0.00  0.00    +0.000 A 
ATOM      4  C   UNL     1       0.996   5.680  20.647  0.00  0.00    +0.000 A 
ATOM      5  C   UNL     1       1.811   6.557  19.909  0.00  0.00    +0.000 A 
ATOM      6  C   UNL     1       2.807   6.034  19.099  0.00  0.00    +0.000 A 
ENDROOT
BRANCH   5   7
ATOM      7  N   UNL     1       1.670   7.928  20.041  0.00  0.00    +0.000 N 
ATOM      8  C   UNL     1       1.860   8.574  21.306  0.00  0.00    +0.000 C 
ATOM      9  C   UNL     1       1.092   9.821  21.093  0.00  0.00    +0.000 A 
ATOM     10  C   UNL     1       1.184  10.164  19.747  0.00  0.00    +0.000 A 
ATOM     11  C   UNL     1       0.714  11.366  19.258  0.00  0.00    +0.000 A 
ATOM     12  C   UNL     1       0.055  12.201  20.162  0.00  0.00    +0.000 A 
ATOM     13  C   UNL     1      -0.290  11.717  21.439  0.00  0.00    +0.000 A 
ATOM     14  C   UNL     1       0.150  10.457  21.875  0.00  0.00    +0.000 A 
ATOM     15  C   UNL     1       1.458   8.887  19.033  0.00  0.00    +0.000 C 
ATOM     16  O   UNL     1       1.302   8.735  17.836  0.00  0.00    +0.000 OA
BRANCH  14  17
ATOM     17  C   UNL     1      -0.601   9.703  22.947  0.00  0.00    +0.000 C 
ATOM     18  F   UNL     1      -1.680  10.374  23.445  0.00  0.00    +0.000 F 
ATOM     19  F   UNL     1      -1.066   8.498  22.540  0.00  0.00    +0.000 F 
ATOM     20  F   UNL     1       0.186   9.472  24.036  0.00  0.00    +0.000 F 
ENDBRANCH  14  17
ENDBRANCH   5   7
BRANCH   1  24
ATOM     21  C   UNL     1       5.246   5.281  17.604  0.00  0.00    +0.000 C 
ATOM     22  C   UNL     1       5.495   4.284  16.435  0.00  0.00    +0.000 C 
ATOM     23  C   UNL     1       4.087   3.719  16.704  0.00  0.00    +0.000 C 
ATOM     24  C   UNL     1       4.294   4.169  18.169  0.00  0.00    +0.000 C 
BRANCH  21  30
ATOM     25  C   UNL     1       7.518   7.462  17.274  0.00  0.00    +0.000 C 
ATOM     26  N   UNL     1       7.419   6.478  18.318  0.00  0.00    +0.000 N 
ATOM     27  C   UNL     1       8.291   6.326  19.357  0.00  0.00    +0.000 A 
ATOM     28  N   UNL     1       7.853   5.376  20.151  0.00  0.00    +0.000 NA
ATOM     29  N   UNL     1       6.678   4.896  19.625  0.00  0.00    +0.000 NA
ATOM     30  C   UNL     1       6.438   5.547  18.505  0.00  0.00    +0.000 A 
ENDBRANCH  21  30
ENDBRANCH   1  24
TORSDOF 4
ENDMDL
MODEL 2
REMARK VINA RESULT:      -8.8      2.471      3.681
REMARK  Name = 
REMARK  5 active torsions:
REMARK  status: ('A' for Active; 'I' for Inactive)
REMARK    1  A    between atoms: C_1  and  N_2
REMARK    2  A    between atoms: C_6  and  C_7
REMARK    3  A    between atoms: C_10  and  C_11
REMARK    4  A    between atoms: C_15  and  N_16
REMARK    5  A    between atoms: C_23  and  C_24
REMARK                            x       y       z     vdW  Elec       q    Type
REMARK                         _______ _______ _______ _____ _____    ______ ____
ROOT
ATOM      1  C   UNL     1       2.778   6.920  19.260  0.00  0.00    +0.000 A 
ATOM      2  C   UNL     1       3.069   7.377  17.961  0.00  0.00    +0.000 A 
ATOM      3  C   UNL     1       2.531   8.557  17.450  0.00  0.00    +0.000 A 
ATOM      4  C   UNL     1       1.667   9.304  18.240  0.00  0.00    +0.000 A 
ATOM      5  C   UNL     1       1.367   8.890  19.550  0.00  0.00    +0.000 A 
ATOM      6  C   UNL     1       1.954   7.737  20.046  0.00  0.00    +0.000 A 
ENDROOT
BRANCH   5   7
ATOM      7  N   UNL     1       0.444   9.586  20.314  0.00  0.00    +0.000 N 
ATOM      8  C   UNL     1      -0.697  10.208  19.713  0.00  0.00    +0.000 C 
ATOM      9  C   UNL     1      -1.023  11.227  20.736  0.00  0.00    +0.000 A 
ATOM     10  C   UNL     1      -0.678  10.715  21.983  0.00  0.00    +0.000 A 
ATOM     11  C   UNL     1      -1.010  11.355  23.161  0.00  0.00    +0.000 A 
ATOM     12  C   UNL     1      -1.638  12.596  23.049  0.00  0.00    +0.000 A 
ATOM     13  C   UNL     1      -1.713  13.233  21.795  0.00  0.00    +0.000 A 
ATOM     14  C   UNL     1      -1.300  12.573  20.626  0.00  0.00    +0.000 A 
ATOM     15  C   UNL     1       0.379   9.701  21.715  0.00  0.00    +0.000 C 
ATOM     16  O   UNL     1       1.131   9.268  22.567  0.00  0.00    +0.000 OA
BRANCH  14  17
ATOM     17  C   UNL     1      -0.868  13.355  19.408  0.00  0.00    +0.000 C 
ATOM     18  F   UNL     1       0.482  13.373  19.210  0.00  0.00    +0.000 F 
ATOM     19  F   UNL     1      -1.409  12.901  18.251  0.00  0.00    +0.000 F 
ATOM     20  F   UNL     1      -1.213  14.669  19.512  0.00  0.00    +0.000 F 
ENDBRANCH  14  17
ENDBRANCH   5   7
BRANCH   1  24
ATOM     21  C   UNL     1       3.909   4.531  18.871  0.00  0.00    +0.000 C 
ATOM     22  C   UNL     1       3.453   3.472  19.916  0.00  0.00    +0.000 C 
ATOM     23  C   UNL     1       2.359   4.467  20.349  0.00  0.00    +0.000 C 
ATOM     24  C   UNL     1       3.324   5.581  19.879  0.00  0.00    +0.000 C 
BRANCH  21  30
ATOM     25  C   UNL     1       5.617   4.094  16.240  0.00  0.00    +0.000 C 
ATOM     26  N   UNL     1       6.121   4.442  17.542  0.00  0.00    +0.000 N 
ATOM     27  C   UNL     1       7.430   4.655  17.860  0.00  0.00    +0.000 A 
ATOM     28  N   UNL     1       7.514   5.019  19.120  0.00  0.00    +0.000 NA
ATOM     29  N   UNL     1       6.240   5.044  19.635  0.00  0.00    +0.000 NA
ATOM     30  C   UNL     1       5.409   4.667  18.685  0.00  0.00    +0.000 A 
ENDBRANCH  21  30
ENDBRANCH   1  24
TORSDOF 4
ENDMDL
MODEL 3
REMARK VINA RESULT:      -8.6      0.859      1.313
REMARK  Name = 
REMARK  5 active torsions:
REMARK  status: ('A' for Active; 'I' for Inactive)
REMARK    1  A    between atoms: C_1  and  N_2
REMARK    2  A    between atoms: C_6  and  C_7
REMARK    3  A    between atoms: C_10  and  C_11
REMARK    4  A    between atoms: C_15  and  N_16
REMARK    5  A    between atoms: C_23  and  C_24
REMARK                            x       y       z     vdW  Elec       q    Type
REMARK                         _______ _______ _______ _____ _____    ______ ____
ROOT
ATOM      1  C   UNL     1       3.491   5.020  18.861  0.00  0.00    +0.000 A 
ATOM      2  C   UNL     1       2.931   4.122  19.789  0.00  0.00    +0.000 A 
ATOM      3  C   UNL     1       1.990   4.523  20.736  0.00  0.00    +0.000 A 
ATOM      4  C   UNL     1       1.599   5.856  20.780  0.00  0.00    +0.000 A 
ATOM      5  C   UNL     1       2.123   6.779  19.857  0.00  0.00    +0.000 A 
ATOM      6  C   UNL     1       3.021   6.340  18.898  0.00  0.00    +0.000 A 
ENDROOT
BRANCH   5   7
ATOM      7  N   UNL     1       1.799   8.123  19.946  0.00  0.00    +0.000 N 
ATOM      8  C   UNL     1       1.938   8.839  21.178  0.00  0.00    +0.000 C 
ATOM      9  C   UNL     1       1.001   9.961  20.950  0.00  0.00    +0.000 A 
ATOM     10  C   UNL     1       1.005  10.259  19.590  0.00  0.00    +0.000 A 
ATOM     11  C   UNL     1       0.360  11.367  19.076  0.00  0.00    +0.000 A 
ATOM     12  C   UNL     1      -0.378  12.139  19.973  0.00  0.00    +0.000 A 
ATOM     13  C   UNL     1      -0.615  11.665  21.278  0.00  0.00    +0.000 A 
ATOM     14  C   UNL     1       0.006  10.494  21.742  0.00  0.00    +0.000 A 
ATOM     15  C   UNL     1       1.429   9.003  18.912  0.00  0.00    +0.000 C 
ATOM     16  O   UNL     1       1.258   8.784  17.728  0.00  0.00    +0.000 OA
BRANCH  14  17
ATOM     17  C   UNL     1      -0.601   9.690  22.866  0.00  0.00    +0.000 C 
ATOM     18  F   UNL     1      -1.682  10.283  23.453  0.00  0.00    +0.000 F 
ATOM     19  F   UNL     1      -1.012   8.455  22.490  0.00  0.00    +0.000 F 
ATOM     20  F   UNL     1       0.284   9.514  23.887  0.00  0.00    +0.000 F 
ENDBRANCH  14  17
ENDBRANCH   5   7
BRANCH   1  24
ATOM     21  C   UNL     1       4.949   5.740  16.742  0.00  0.00    +0.000 C 
ATOM     22  C   UNL     1       5.272   4.545  15.799  0.00  0.00    +0.000 C 
ATOM     23  C   UNL     1       4.237   3.725  16.593  0.00  0.00    +0.000 C 
ATOM     24  C   UNL     1       4.582   4.637  17.794  0.00  0.00    +0.000 C 
BRANCH  21  30
ATOM     25  C   UNL     1       7.551   4.834  18.303  0.00  0.00    +0.000 C 
ATOM     26  N   UNL     1       7.234   6.167  17.865  0.00  0.00    +0.000 N 
ATOM     27  C   UNL     1       8.015   7.271  18.042  0.00  0.00    +0.000 A 
ATOM     28  N   UNL     1       7.445   8.300  17.457  0.00  0.00    +0.000 NA
ATOM     29  N   UNL     1       6.272   7.864  16.890  0.00  0.00    +0.000 NA
ATOM     30  C   UNL     1       6.138   6.583  17.165  0.00  0.00    +0.000 A 
ENDBRANCH  21  30
ENDBRANCH   1  24
TORSDOF 4
ENDMDL
MODEL 4
REMARK VINA RESULT:      -8.4      2.386      3.472
REMARK  Name = 
REMARK  5 active torsions:
REMARK  status: ('A' for Active; 'I' for Inactive)
REMARK    1  A    between atoms: C_1  and  N_2
REMARK    2  A    between atoms: C_6  and  C_7
REMARK    3  A    between atoms: C_10  and  C_11
REMARK    4  A    between atoms: C_15  and  N_16
REMARK    5  A    between atoms: C_23  and  C_24
REMARK                            x       y       z     vdW  Elec       q    Type
REMARK                         _______ _______ _______ _____ _____    ______ ____
ROOT
ATOM      1  C   UNL     1       2.834   7.022  18.947  0.00  0.00    +0.000 A 
ATOM      2  C   UNL     1       3.150   7.605  17.706  0.00  0.00    +0.000 A 
ATOM      3  C   UNL     1       2.614   8.826  17.301  0.00  0.00    +0.000 A 
ATOM      4  C   UNL     1       1.727   9.489  18.140  0.00  0.00    +0.000 A 
ATOM      5  C   UNL     1       1.402   8.948  19.397  0.00  0.00    +0.000 A 
ATOM      6  C   UNL     1       1.987   7.754  19.790  0.00  0.00    +0.000 A 
ENDROOT
BRANCH   5   7
ATOM      7  N   UNL     1       0.459   9.561  20.205  0.00  0.00    +0.000 N 
ATOM      8  C   UNL     1      -0.681  10.221  19.642  0.00  0.00    +0.000 C 
ATOM      9  C   UNL     1      -1.037  11.139  20.747  0.00  0.00    +0.000 A 
ATOM     10  C   UNL     1      -0.706  10.521  21.949  0.00  0.00    +0.000 A 
ATOM     11  C   UNL     1      -1.065  11.049  23.173  0.00  0.00    +0.000 A 
ATOM     12  C   UNL     1      -1.707  12.287  23.162  0.00  0.00    +0.000 A 
ATOM     13  C   UNL     1      -1.771  13.034  21.969  0.00  0.00    +0.000 A 
ATOM     14  C   UNL     1      -1.331  12.487  20.753  0.00  0.00    +0.000 A 
ATOM     15  C   UNL     1       0.369   9.549  21.609  0.00  0.00    +0.000 C 
ATOM     16  O   UNL     1       1.114   9.050  22.431  0.00  0.00    +0.000 OA
BRANCH  14  17
ATOM     17  C   UNL     1      -0.890  13.380  19.618  0.00  0.00    +0.000 C 
ATOM     18  F   UNL     1      -1.338  12.981  18.392  0.00  0.00    +0.000 F 
ATOM     19  F   UNL     1      -1.281  14.669  19.758  0.00  0.00    +0.000 F 
ATOM     20  F   UNL     1       0.467  13.393  19.494  0.00  0.00    +0.000 F 
ENDBRANCH  14  17
ENDBRANCH   5   7
BRANCH   1  24
ATOM     21  C   UNL     1       4.439   4.928  18.531  0.00  0.00    +0.000 C 
ATOM     22  C   UNL     1       3.862   3.603  19.110  0.00  0.00    +0.000 C 
ATOM     23  C   UNL     1       2.527   4.347  19.304  0.00  0.00    +0.000 C 
ATOM     24  C   UNL     1       3.376   5.632  19.445  0.00  0.00    +0.000 C 
BRANCH  21  30
ATOM     25  C   UNL     1       6.560   6.713  17.001  0.00  0.00    +0.000 C 
ATOM     26  N   UNL     1       6.768   6.003  18.235  0.00  0.00    +0.000 N 
ATOM     27  C   UNL     1       7.921   5.991  18.963  0.00  0.00    +0.000 A 
ATOM     28  N   UNL     1       7.728   5.296  20.062  0.00  0.00    +0.000 NA
ATOM     29  N   UNL     1       6.430   4.846  20.052  0.00  0.00    +0.000 NA
ATOM     30  C   UNL     1       5.866   5.253  18.933  0.00  0.00    +0.000 A 
ENDBRANCH  21  30
ENDBRANCH   1  24
TORSDOF 4
ENDMDL
MODEL 5
REMARK VINA RESULT:      -8.3      3.762      8.114
REMARK  Name = 
REMARK  5 active torsions:
REMARK  status: ('A' for Active; 'I' for Inactive)
REMARK    1  A    between atoms: C_1  and  N_2
REMARK    2  A    between atoms: C_6  and  C_7
REMARK    3  A    between atoms: C_10  and  C_11
REMARK    4  A    between atoms: C_15  and  N_16
REMARK    5  A    between atoms: C_23  and  C_24
REMARK                            x       y       z     vdW  Elec       q    Type
REMARK                         _______ _______ _______ _____ _____    ______ ____
ROOT
ATOM      1  C   UNL     1       1.773   7.697  19.993  0.00  0.00    +0.000 A 
ATOM      2  C   UNL     1       1.074   6.898  20.918  0.00  0.00    +0.000 A 
ATOM      3  C   UNL     1       1.368   5.548  21.105  0.00  0.00    +0.000 A 
ATOM      4  C   UNL     1       2.374   4.963  20.346  0.00  0.00    +0.000 A 
ATOM      5  C   UNL     1       3.107   5.733  19.425  0.00  0.00    +0.000 A 
ATOM      6  C   UNL     1       2.822   7.083  19.296  0.00  0.00    +0.000 A 
ENDROOT
BRANCH   5   7
ATOM      7  N   UNL     1       4.056   5.140  18.609  0.00  0.00    +0.000 N 
ATOM      8  C   UNL     1       5.446   5.161  18.952  0.00  0.00    +0.000 C 
ATOM      9  C   UNL     1       6.059   4.954  17.621  0.00  0.00    +0.000 A 
ATOM     10  C   UNL     1       5.205   4.152  16.870  0.00  0.00    +0.000 A 
ATOM     11  C   UNL     1       5.566   3.639  15.640  0.00  0.00    +0.000 A 
ATOM     12  C   UNL     1       6.805   4.032  15.132  0.00  0.00    +0.000 A 
ATOM     13  C   UNL     1       7.523   5.068  15.759  0.00  0.00    +0.000 A 
ATOM     14  C   UNL     1       7.085   5.613  16.977  0.00  0.00    +0.000 A 
ATOM     15  C   UNL     1       3.852   4.360  17.455  0.00  0.00    +0.000 C 
ATOM     16  O   UNL     1       2.817   4.071  16.885  0.00  0.00    +0.000 OA
BRANCH  14  17
ATOM     17  C   UNL     1       7.485   7.011  17.388  0.00  0.00    +0.000 C 
ATOM     18  F   UNL     1       8.136   7.073  18.586  0.00  0.00    +0.000 F 
ATOM     19  F   UNL     1       8.290   7.631  16.492  0.00  0.00    +0.000 F 
ATOM     20  F   UNL     1       6.394   7.811  17.554  0.00  0.00    +0.000 F 
ENDBRANCH  14  17
ENDBRANCH   5   7
BRANCH   1  24
ATOM     21  C   UNL     1      -0.029   9.666  19.873  0.00  0.00    +0.000 C 
ATOM     22  C   UNL     1       0.318  10.733  18.795  0.00  0.00    +0.000 C 
ATOM     23  C   UNL     1       1.385   9.756  18.265  0.00  0.00    +0.000 C 
ATOM     24  C   UNL     1       1.465   9.214  19.711  0.00  0.00    +0.000 C 
BRANCH  21  30
ATOM     25  C   UNL     1      -1.847  12.132  20.672  0.00  0.00    +0.000 C 
ATOM     26  N   UNL     1      -1.098  11.293  21.569  0.00  0.00    +0.000 N 
ATOM     27  C   UNL     1      -1.055  11.414  22.927  0.00  0.00    +0.000 A 
ATOM     28  N   UNL     1      -0.328  10.439  23.424  0.00  0.00    +0.000 NA
ATOM     29  N   UNL     1       0.114   9.668  22.375  0.00  0.00    +0.000 NA
ATOM     30  C   UNL     1      -0.332  10.206  21.258  0.00  0.00    +0.000 A 
ENDBRANCH  21  30
ENDBRANCH   1  24
TORSDOF 4
ENDMDL
MODEL 6
REMARK VINA RESULT:      -8.2      3.572      5.276
REMARK  Name = 
REMARK  5 active torsions:
REMARK  status: ('A' for Active; 'I' for Inactive)
REMARK    1  A    between atoms: C_1  and  N_2
REMARK    2  A    between atoms: C_6  and  C_7
REMARK    3  A    between atoms: C_10  and  C_11
REMARK    4  A    between atoms: C_15  and  N_16
REMARK    5  A    between atoms: C_23  and  C_24
REMARK                            x       y       z     vdW  Elec       q    Type
REMARK                         _______ _______ _______ _____ _____    ______ ____
ROOT
ATOM      1  C   UNL     1       1.920   7.999  19.124  0.00  0.00    +0.000 A 
ATOM      2  C   UNL     1       1.660   7.709  20.477  0.00  0.00    +0.000 A 
ATOM      3  C   UNL     1       1.146   8.661  21.355  0.00  0.00    +0.000 A 
ATOM      4  C   UNL     1       0.892   9.945  20.890  0.00  0.00    +0.000 A 
ATOM      5  C   UNL     1       1.121  10.268  19.540  0.00  0.00    +0.000 A 
ATOM      6  C   UNL     1       1.589   9.286  18.680  0.00  0.00    +0.000 A 
ENDROOT
BRANCH   5   7
ATOM      7  N   UNL     1       0.947  11.565  19.087  0.00  0.00    +0.000 N 
ATOM      8  C   UNL     1       2.008  12.269  18.431  0.00  0.00    +0.000 C 
ATOM      9  C   UNL     1       1.583  13.669  18.651  0.00  0.00    +0.000 A 
ATOM     10  C   UNL     1       0.192  13.704  18.666  0.00  0.00    +0.000 A 
ATOM     11  C   UNL     1      -0.517  14.888  18.686  0.00  0.00    +0.000 A 
ATOM     12  C   UNL     1       0.225  16.066  18.779  0.00  0.00    +0.000 A 
ATOM     13  C   UNL     1       1.604  16.005  19.060  0.00  0.00    +0.000 A 
ATOM     14  C   UNL     1       2.277  14.773  19.100  0.00  0.00    +0.000 A 
ATOM     15  C   UNL     1      -0.232  12.333  19.065  0.00  0.00    +0.000 C 
ATOM     16  O   UNL     1      -1.344  12.063  19.478  0.00  0.00    +0.000 OA
BRANCH  14  17
ATOM     17  C   UNL     1       3.555  14.615  19.890  0.00  0.00    +0.000 C 
ATOM     18  F   UNL     1       3.962  15.754  20.521  0.00  0.00    +0.000 F 
ATOM     19  F   UNL     1       3.486  13.660  20.849  0.00  0.00    +0.000 F 
ATOM     20  F   UNL     1       4.601  14.283  19.082  0.00  0.00    +0.000 F 
ENDBRANCH  14  17
ENDBRANCH   5   7
BRANCH   1  24
ATOM     21  C   UNL     1       3.169   5.677  18.693  0.00  0.00    +0.000 C 
ATOM     22  C   UNL     1       4.094   5.715  17.442  0.00  0.00    +0.000 C 
ATOM     23  C   UNL     1       3.904   7.244  17.430  0.00  0.00    +0.000 C 
ATOM     24  C   UNL     1       2.533   6.980  18.094  0.00  0.00    +0.000 C 
BRANCH  21  30
ATOM     25  C   UNL     1       2.142   4.087  21.232  0.00  0.00    +0.000 C 
ATOM     26  N   UNL     1       1.790   3.833  19.861  0.00  0.00    +0.000 N 
ATOM     27  C   UNL     1       0.937   2.862  19.423  0.00  0.00    +0.000 A 
ATOM     28  N   UNL     1       0.799   2.965  18.120  0.00  0.00    +0.000 NA
ATOM     29  N   UNL     1       1.574   4.019  17.698  0.00  0.00    +0.000 NA
ATOM     30  C   UNL     1       2.190   4.518  18.750  0.00  0.00    +0.000 A 
ENDBRANCH  21  30
ENDBRANCH   1  24
TORSDOF 4
ENDMDL
MODEL 7
REMARK VINA RESULT:      -8.1      3.367      4.869
REMARK  Name = 
REMARK  5 active torsions:
REMARK  status: ('A' for Active; 'I' for Inactive)
REMARK    1  A    between atoms: C_1  and  N_2
REMARK    2  A    between atoms: C_6  and  C_7
REMARK    3  A    between atoms: C_10  and  C_11
REMARK    4  A    between atoms: C_15  and  N_16
REMARK    5  A    between atoms: C_23  and  C_24
REMARK                            x       y       z     vdW  Elec       q    Type
REMARK                         _______ _______ _______ _____ _____    ______ ____
ROOT
ATOM      1  C   UNL     1       2.175   7.658  18.984  0.00  0.00    +0.000 A 
ATOM      2  C   UNL     1       1.880   7.310  20.315  0.00  0.00    +0.000 A 
ATOM      3  C   UNL     1       1.269   8.198  21.197  0.00  0.00    +0.000 A 
ATOM      4  C   UNL     1       0.949   9.477  20.758  0.00  0.00    +0.000 A 
ATOM      5  C   UNL     1       1.211   9.856  19.428  0.00  0.00    +0.000 A 
ATOM      6  C   UNL     1       1.778   8.934  18.563  0.00  0.00    +0.000 A 
ENDROOT
BRANCH   5   7
ATOM      7  N   UNL     1       0.970  11.152  19.005  0.00  0.00    +0.000 N 
ATOM      8  C   UNL     1       2.013  11.951  18.435  0.00  0.00    +0.000 C 
ATOM      9  C   UNL     1       1.477  13.310  18.671  0.00  0.00    +0.000 A 
ATOM     10  C   UNL     1       0.088  13.246  18.606  0.00  0.00    +0.000 A 
ATOM     11  C   UNL     1      -0.704  14.377  18.620  0.00  0.00    +0.000 A 
ATOM     12  C   UNL     1      -0.055  15.599  18.791  0.00  0.00    +0.000 A 
ATOM     13  C   UNL     1       1.307  15.626  19.151  0.00  0.00    +0.000 A 
ATOM     14  C   UNL     1       2.063  14.444  19.193  0.00  0.00    +0.000 A 
ATOM     15  C   UNL     1      -0.258  11.836  18.938  0.00  0.00    +0.000 C 
ATOM     16  O   UNL     1      -1.369  11.474  19.276  0.00  0.00    +0.000 OA
BRANCH  14  17
ATOM     17  C   UNL     1       3.302  14.348  20.051  0.00  0.00    +0.000 C 
ATOM     18  F   UNL     1       3.254  13.356  20.987  0.00  0.00    +0.000 F 
ATOM     19  F   UNL     1       4.439  14.140  19.344  0.00  0.00    +0.000 F 
ATOM     20  F   UNL     1       3.495  15.487  20.775  0.00  0.00    +0.000 F 
ENDBRANCH  14  17
ENDBRANCH   5   7
BRANCH   1  24
ATOM     21  C   UNL     1       3.621   5.454  18.544  0.00  0.00    +0.000 C 
ATOM     22  C   UNL     1       4.573   5.593  17.321  0.00  0.00    +0.000 C 
ATOM     23  C   UNL     1       4.259   7.102  17.332  0.00  0.00    +0.000 C 
ATOM     24  C   UNL     1       2.896   6.713  17.952  0.00  0.00    +0.000 C 
BRANCH  21  30
ATOM     25  C   UNL     1       4.258   2.585  19.723  0.00  0.00    +0.000 C 
ATOM     26  N   UNL     1       3.055   2.985  19.043  0.00  0.00    +0.000 N 
ATOM     27  C   UNL     1       1.974   2.189  18.801  0.00  0.00    +0.000 A 
ATOM     28  N   UNL     1       1.035   2.904  18.222  0.00  0.00    +0.000 NA
ATOM     29  N   UNL     1       1.509   4.185  18.081  0.00  0.00    +0.000 NA
ATOM     30  C   UNL     1       2.739   4.219  18.553  0.00  0.00    +0.000 A 
ENDBRANCH  21  30
ENDBRANCH   1  24
TORSDOF 4
ENDMDL
MODEL 8
REMARK VINA RESULT:      -8.0      3.858      7.834
REMARK  Name = 
REMARK  5 active torsions:
REMARK  status: ('A' for Active; 'I' for Inactive)
REMARK    1  A    between atoms: C_1  and  N_2
REMARK    2  A    between atoms: C_6  and  C_7
REMARK    3  A    between atoms: C_10  and  C_11
REMARK    4  A    between atoms: C_15  and  N_16
REMARK    5  A    between atoms: C_23  and  C_24
REMARK                            x       y       z     vdW  Elec       q    Type
REMARK                         _______ _______ _______ _____ _____    ______ ____
ROOT
ATOM      1  C   UNL     1       1.051   9.069  19.397  0.00  0.00    +0.000 A 
ATOM      2  C   UNL     1       0.681   8.886  20.743  0.00  0.00    +0.000 A 
ATOM      3  C   UNL     1       1.151   7.816  21.503  0.00  0.00    +0.000 A 
ATOM      4  C   UNL     1       2.001   6.889  20.914  0.00  0.00    +0.000 A 
ATOM      5  C   UNL     1       2.409   7.049  19.577  0.00  0.00    +0.000 A 
ATOM      6  C   UNL     1       1.961   8.148  18.862  0.00  0.00    +0.000 A 
ENDROOT
BRANCH   5   7
ATOM      7  N   UNL     1       3.191   6.087  18.960  0.00  0.00    +0.000 N 
ATOM      8  C   UNL     1       4.546   5.862  19.366  0.00  0.00    +0.000 C 
ATOM      9  C   UNL     1       5.095   5.230  18.145  0.00  0.00    +0.000 A 
ATOM     10  C   UNL     1       4.077   4.501  17.538  0.00  0.00    +0.000 A 
ATOM     11  C   UNL     1       4.309   3.660  16.468  0.00  0.00    +0.000 A 
ATOM     12  C   UNL     1       5.606   3.634  15.956  0.00  0.00    +0.000 A 
ATOM     13  C   UNL     1       6.549   4.589  16.385  0.00  0.00    +0.000 A 
ATOM     14  C   UNL     1       6.250   5.475  17.432  0.00  0.00    +0.000 A 
ATOM     15  C   UNL     1       2.810   5.140  17.991  0.00  0.00    +0.000 C 
ATOM     16  O   UNL     1       1.738   4.979  17.440  0.00  0.00    +0.000 OA
BRANCH  14  17
ATOM     17  C   UNL     1       6.968   6.798  17.555  0.00  0.00    +0.000 C 
ATOM     18  F   UNL     1       7.898   7.017  16.580  0.00  0.00    +0.000 F 
ATOM     19  F   UNL     1       6.141   7.870  17.529  0.00  0.00    +0.000 F 
ATOM     20  F   UNL     1       7.673   6.875  18.718  0.00  0.00    +0.000 F 
ENDBRANCH  14  17
ENDBRANCH   5   7
BRANCH   1  24
ATOM     21  C   UNL     1       0.284  11.619  19.173  0.00  0.00    +0.000 C 
ATOM     22  C   UNL     1      -0.804  11.826  18.079  0.00  0.00    +0.000 C 
ATOM     23  C   UNL     1      -0.953  10.293  18.031  0.00  0.00    +0.000 C 
ATOM     24  C   UNL     1       0.527  10.234  18.478  0.00  0.00    +0.000 C 
BRANCH  21  30
ATOM     25  C   UNL     1       1.193  13.875  21.201  0.00  0.00    +0.000 C 
ATOM     26  N   UNL     1       1.836  13.524  19.962  0.00  0.00    +0.000 N 
ATOM     27  C   UNL     1       2.963  14.104  19.457  0.00  0.00    +0.000 A 
ATOM     28  N   UNL     1       3.303  13.489  18.346  0.00  0.00    +0.000 NA
ATOM     29  N   UNL     1       2.384  12.492  18.121  0.00  0.00    +0.000 NA
ATOM     30  C   UNL     1       1.488  12.539  19.084  0.00  0.00    +0.000 A 
ENDBRANCH  21  30
ENDBRANCH   1  24
TORSDOF 4
ENDMDL
MODEL 9
REMARK VINA RESULT:      -7.9      3.157      4.533
REMARK  Name = 
REMARK  5 active torsions:
REMARK  status: ('A' for Active; 'I' for Inactive)
REMARK    1  A    between atoms: C_1  and  N_2
REMARK    2  A    between atoms: C_6  and  C_7
REMARK    3  A    between atoms: C_10  and  C_11
REMARK    4  A    between atoms: C_15  and  N_16
REMARK    5  A    between atoms: C_23  and  C_24
REMARK                            x       y       z     vdW  Elec       q    Type
REMARK                         _______ _______ _______ _____ _____    ______ ____
ROOT
ATOM      1  C   UNL     1       3.387   5.192  17.653  0.00  0.00    +0.000 A 
ATOM      2  C   UNL     1       4.449   5.738  16.909  0.00  0.00    +0.000 A 
ATOM      3  C   UNL     1       4.680   7.111  16.842  0.00  0.00    +0.000 A 
ATOM      4  C   UNL     1       3.828   7.975  17.519  0.00  0.00    +0.000 A 
ATOM      5  C   UNL     1       2.767   7.466  18.289  0.00  0.00    +0.000 A 
ATOM      6  C   UNL     1       2.591   6.093  18.373  0.00  0.00    +0.000 A 
ENDROOT
BRANCH   5   7
ATOM      7  N   UNL     1       1.866   8.322  18.900  0.00  0.00    +0.000 N 
ATOM      8  C   UNL     1       1.240   9.383  18.170  0.00  0.00    +0.000 C 
ATOM      9  C   UNL     1       0.868  10.293  19.276  0.00  0.00    +0.000 A 
ATOM     10  C   UNL     1       0.584   9.520  20.398  0.00  0.00    +0.000 A 
ATOM     11  C   UNL     1       0.046  10.059  21.549  0.00  0.00    +0.000 A 
ATOM     12  C   UNL     1      -0.126  11.444  21.576  0.00  0.00    +0.000 A 
ATOM     13  C   UNL     1       0.436  12.240  20.559  0.00  0.00    +0.000 A 
ATOM     14  C   UNL     1       1.038  11.653  19.434  0.00  0.00    +0.000 A 
ATOM     15  C   UNL     1       1.338   8.250  20.203  0.00  0.00    +0.000 C 
ATOM     16  O   UNL     1       1.581   7.464  21.098  0.00  0.00    +0.000 OA
BRANCH  14  17
ATOM     17  C   UNL     1       2.078  12.400  18.635  0.00  0.00    +0.000 C 
ATOM     18  F   UNL     1       2.918  13.164  19.393  0.00  0.00    +0.000 F 
ATOM     19  F   UNL     1       2.875  11.595  17.891  0.00  0.00    +0.000 F 
ATOM     20  F   UNL     1       1.502  13.285  17.773  0.00  0.00    +0.000 F 
ENDBRANCH  14  17
ENDBRANCH   5   7
BRANCH   1  24
ATOM     21  C   UNL     1       3.747   2.852  18.892  0.00  0.00    +0.000 C 
ATOM     22  C   UNL     1       3.646   1.638  17.925  0.00  0.00    +0.000 C 
ATOM     23  C   UNL     1       3.695   2.645  16.760  0.00  0.00    +0.000 C 
ATOM     24  C   UNL     1       3.053   3.656  17.738  0.00  0.00    +0.000 C 
BRANCH  21  30
ATOM     25  C   UNL     1       0.590   2.743  19.122  0.00  0.00    +0.000 C 
ATOM     26  N   UNL     1       1.530   2.752  20.211  0.00  0.00    +0.000 N 
ATOM     27  C   UNL     1       1.214   2.703  21.538  0.00  0.00    +0.000 A 
ATOM     28  N   UNL     1       2.321   2.661  22.243  0.00  0.00    +0.000 NA
ATOM     29  N   UNL     1       3.379   2.683  21.366  0.00  0.00    +0.000 NA
ATOM     30  C   UNL     1       2.893   2.768  20.144  0.00  0.00    +0.000 A 
ENDBRANCH  21  30
ENDBRANCH   1  24
TORSDOF 4
ENDMDL
