MODEL 1
REMARK VINA RESULT:      -9.4      0.000      0.000
REMARK  Name = 
REMARK  9 active torsions:
REMARK  status: ('A' for Active; 'I' for Inactive)
REMARK    1  A    between atoms: C_1  and  C_2
REMARK    2  A    between atoms: C_2  and  C_3
REMARK    3  A    between atoms: C_2  and  C_10
REMARK    4  A    between atoms: C_3  and  C_4
REMARK    5  A    between atoms: N_8  and  C_9
REMARK    6  A    between atoms: C_14  and  N_15
REMARK    7  A    between atoms: C_20  and  C_21
REMARK    8  A    between atoms: C_21  and  N_22
REMARK    9  A    between atoms: C_28  and  C_29
REMARK                            x       y       z     vdW  Elec       q    Type
REMARK                         _______ _______ _______ _____ _____    ______ ____
ROOT
ATOM      1  N   UNL     1       1.557   7.966  20.020  0.00  0.00    +0.000 N 
ATOM      2  C   UNL     1       1.547   6.631  20.546  0.00  0.00    +0.000 C 
ATOM      3  C   UNL     1       2.384   5.834  19.641  0.00  0.00    +0.000 A 
ATOM      4  C   UNL     1       2.815   6.605  18.570  0.00  0.00    +0.000 A 
ATOM      5  C   UNL     1       3.534   5.979  17.546  0.00  0.00    +0.000 A 
ATOM      6  C   UNL     1       3.794   4.569  17.630  0.00  0.00    +0.000 A 
ATOM      7  C   UNL     1       3.383   3.866  18.783  0.00  0.00    +0.000 A 
ATOM      8  C   UNL     1       2.657   4.481  19.799  0.00  0.00    +0.000 A 
ATOM      9  C   UNL     1       2.318   8.026  18.825  0.00  0.00    +0.000 C 
ATOM     10  O   UNL     1       2.552   8.971  18.104  0.00  0.00    +0.000 OA
ENDROOT
BRANCH   1  15
ATOM     11  C   UNL     1      -0.621  10.989  20.481  0.00  0.00    +0.000 A 
ATOM     12  C   UNL     1      -0.758  11.029  21.865  0.00  0.00    +0.000 A 
ATOM     13  C   UNL     1      -0.107  10.069  22.664  0.00  0.00    +0.000 A 
ATOM     14  C   UNL     1       0.670   9.041  22.104  0.00  0.00    +0.000 A 
ATOM     15  C   UNL     1       0.780   8.933  20.726  0.00  0.00    +0.000 A 
ATOM     16  C   UNL     1       0.093   9.911  19.955  0.00  0.00    +0.000 A 
BRANCH  11  18
ATOM     17  C   UNL     1      -0.819  13.570  20.077  0.00  0.00    +0.000 C 
ATOM     18  C   UNL     1      -1.096  12.131  19.575  0.00  0.00    +0.000 C 
BRANCH  18  19
ATOM     19  C   UNL     1      -2.606  11.973  19.263  0.00  0.00    +0.000 C 
BRANCH  19  20
ATOM     20  C   UNL     1      -2.868  11.463  17.877  0.00  0.00    +0.000 A 
ATOM     21  N   UNL     1      -1.982  10.953  17.043  0.00  0.00    +0.000 NA
ATOM     22  N   UNL     1      -2.608  10.700  15.846  0.00  0.00    +0.000 NA
ATOM     23  C   UNL     1      -3.871  11.029  15.985  0.00  0.00    +0.000 A 
ATOM     24  N   UNL     1      -4.085  11.489  17.246  0.00  0.00    +0.000 N 
ATOM     25  C   UNL     1      -5.346  11.894  17.800  0.00  0.00    +0.000 C 
ENDBRANCH  19  20
ENDBRANCH  18  19
ENDBRANCH  11  18
ENDBRANCH   1  15
BRANCH   8  26
ATOM     26  C   UNL     1       2.183   3.690  20.990  0.00  0.00    +0.000 C 
ATOM     27  F   UNL     1       0.835   3.500  21.037  0.00  0.00    +0.000 F 
ATOM     28  F   UNL     1       2.728   2.445  21.031  0.00  0.00    +0.000 F 
ATOM     29  F   UNL     1       2.503   4.289  22.170  0.00  0.00    +0.000 F 
ENDBRANCH   8  26
BRANCH   6  30
ATOM     30  C   UNL     1       4.575   3.804  16.554  0.00  0.00    +0.000 C 
BRANCH  30  31
ATOM     31  N   UNL     1       5.372   4.635  15.617  0.00  0.00    +0.000 NA
ATOM     32  C   UNL     1       6.774   4.890  16.034  0.00  0.00    +0.000 C 
ATOM     33  C   UNL     1       7.216   4.601  14.576  0.00  0.00    +0.000 C 
ATOM     34  F   UNL     1       7.328   5.673  13.749  0.00  0.00    +0.000 F 
ATOM     35  C   UNL     1       5.892   3.812  14.494  0.00  0.00    +0.000 C 
ENDBRANCH  30  31
ENDBRANCH   6  30
TORSDOF 7
ENDMDL
MODEL 2
REMARK VINA RESULT:      -9.3      3.651      9.136
REMARK  Name = 
REMARK  9 active torsions:
REMARK  status: ('A' for Active; 'I' for Inactive)
REMARK    1  A    between atoms: C_1  and  C_2
REMARK    2  A    between atoms: C_2  and  C_3
REMARK    3  A    between atoms: C_2  and  C_10
REMARK    4  A    between atoms: C_3  and  C_4
REMARK    5  A    between atoms: N_8  and  C_9
REMARK    6  A    between atoms: C_14  and  N_15
REMARK    7  A    between atoms: C_20  and  C_21
REMARK    8  A    between atoms: C_21  and  N_22
REMARK    9  A    between atoms: C_28  and  C_29
REMARK                            x       y       z     vdW  Elec       q    Type
REMARK                         _______ _______ _______ _____ _____    ______ ____
ROOT
ATOM      1  N   UNL     1       1.914   7.864  19.428  0.00  0.00    +0.000 N 
ATOM      2  C   UNL     1       1.288   8.214  20.670  0.00  0.00    +0.000 C 
ATOM      3  C   UNL     1       0.699   9.543  20.466  0.00  0.00    +0.000 A 
ATOM      4  C   UNL     1       1.015  10.027  19.204  0.00  0.00    +0.000 A 
ATOM      5  C   UNL     1       0.630  11.332  18.876  0.00  0.00    +0.000 A 
ATOM      6  C   UNL     1      -0.068  12.125  19.849  0.00  0.00    +0.000 A 
ATOM      7  C   UNL     1      -0.414  11.539  21.086  0.00  0.00    +0.000 A 
ATOM      8  C   UNL     1      -0.022  10.246  21.422  0.00  0.00    +0.000 A 
ATOM      9  C   UNL     1       1.778   8.916  18.487  0.00  0.00    +0.000 C 
ATOM     10  O   UNL     1       2.172   8.986  17.343  0.00  0.00    +0.000 OA
ENDROOT
BRANCH   1  15
ATOM     11  C   UNL     1       4.216   5.210  18.101  0.00  0.00    +0.000 A 
ATOM     12  C   UNL     1       4.005   4.177  19.008  0.00  0.00    +0.000 A 
ATOM     13  C   UNL     1       3.076   4.338  20.055  0.00  0.00    +0.000 A 
ATOM     14  C   UNL     1       2.360   5.533  20.235  0.00  0.00    +0.000 A 
ATOM     15  C   UNL     1       2.588   6.606  19.387  0.00  0.00    +0.000 A 
ATOM     16  C   UNL     1       3.546   6.409  18.353  0.00  0.00    +0.000 A 
BRANCH  11  18
ATOM     17  C   UNL     1       4.618   3.820  15.918  0.00  0.00    +0.000 C 
ATOM     18  C   UNL     1       5.021   5.020  16.810  0.00  0.00    +0.000 C 
BRANCH  18  19
ATOM     19  C   UNL     1       6.535   4.943  17.131  0.00  0.00    +0.000 C 
BRANCH  19  20
ATOM     20  C   UNL     1       7.127   6.274  17.486  0.00  0.00    +0.000 A 
ATOM     21  N   UNL     1       7.091   7.374  16.760  0.00  0.00    +0.000 NA
ATOM     22  N   UNL     1       7.833   8.340  17.395  0.00  0.00    +0.000 NA
ATOM     23  C   UNL     1       8.278   7.820  18.515  0.00  0.00    +0.000 A 
ATOM     24  N   UNL     1       7.843   6.537  18.625  0.00  0.00    +0.000 N 
ATOM     25  C   UNL     1       8.075   5.654  19.734  0.00  0.00    +0.000 C 
ENDBRANCH  19  20
ENDBRANCH  18  19
ENDBRANCH  11  18
ENDBRANCH   1  15
BRANCH   8  26
ATOM     26  C   UNL     1      -0.358   9.669  22.772  0.00  0.00    +0.000 C 
ATOM     27  F   UNL     1      -1.204  10.436  23.515  0.00  0.00    +0.000 F 
ATOM     28  F   UNL     1      -0.958   8.452  22.678  0.00  0.00    +0.000 F 
ATOM     29  F   UNL     1       0.745   9.495  23.550  0.00  0.00    +0.000 F 
ENDBRANCH   8  26
BRANCH   6  30
ATOM     30  C   UNL     1      -0.528  13.561  19.573  0.00  0.00    +0.000 C 
BRANCH  30  31
ATOM     31  N   UNL     1       0.401  14.397  18.773  0.00  0.00    +0.000 NA
ATOM     32  C   UNL     1       0.007  15.822  18.632  0.00  0.00    +0.000 C 
ATOM     33  C   UNL     1       1.480  16.215  18.907  0.00  0.00    +0.000 C 
ATOM     34  F   UNL     1       2.280  16.388  17.822  0.00  0.00    +0.000 F 
ATOM     35  C   UNL     1       1.558  14.836  19.598  0.00  0.00    +0.000 C 
ENDBRANCH  30  31
ENDBRANCH   6  30
TORSDOF 7
ENDMDL
MODEL 3
REMARK VINA RESULT:      -9.1      0.636      1.009
REMARK  Name = 
REMARK  9 active torsions:
REMARK  status: ('A' for Active; 'I' for Inactive)
REMARK    1  A    between atoms: C_1  and  C_2
REMARK    2  A    between atoms: C_2  and  C_3
REMARK    3  A    between atoms: C_2  and  C_10
REMARK    4  A    between atoms: C_3  and  C_4
REMARK    5  A    between atoms: N_8  and  C_9
REMARK    6  A    between atoms: C_14  and  N_15
REMARK    7  A    between atoms: C_20  and  C_21
REMARK    8  A    between atoms: C_21  and  N_22
REMARK    9  A    between atoms: C_28  and  C_29
REMARK                            x       y       z     vdW  Elec       q    Type
REMARK                         _______ _______ _______ _____ _____    ______ ____
ROOT
ATOM      1  N   UNL     1       1.542   8.005  20.033  0.00  0.00    +0.000 N 
ATOM      2  C   UNL     1       1.526   6.664  20.543  0.00  0.00    +0.000 C 
ATOM      3  C   UNL     1       2.362   5.875  19.631  0.00  0.00    +0.000 A 
ATOM      4  C   UNL     1       2.799   6.657  18.571  0.00  0.00    +0.000 A 
ATOM      5  C   UNL     1       3.519   6.040  17.541  0.00  0.00    +0.000 A 
ATOM      6  C   UNL     1       3.774   4.628  17.609  0.00  0.00    +0.000 A 
ATOM      7  C   UNL     1       3.357   3.913  18.752  0.00  0.00    +0.000 A 
ATOM      8  C   UNL     1       2.630   4.519  19.774  0.00  0.00    +0.000 A 
ATOM      9  C   UNL     1       2.306   8.076  18.841  0.00  0.00    +0.000 C 
ATOM     10  O   UNL     1       2.545   9.029  18.132  0.00  0.00    +0.000 OA
ENDROOT
BRANCH   1  15
ATOM     11  C   UNL     1      -0.687  10.988  20.516  0.00  0.00    +0.000 A 
ATOM     12  C   UNL     1      -0.781  11.047  21.903  0.00  0.00    +0.000 A 
ATOM     13  C   UNL     1      -0.084  10.114  22.695  0.00  0.00    +0.000 A 
ATOM     14  C   UNL     1       0.698   9.094  22.128  0.00  0.00    +0.000 A 
ATOM     15  C   UNL     1       0.766   8.967  20.749  0.00  0.00    +0.000 A 
ATOM     16  C   UNL     1       0.034   9.917  19.984  0.00  0.00    +0.000 A 
BRANCH  11  18
ATOM     17  C   UNL     1      -0.459  13.455  19.666  0.00  0.00    +0.000 C 
ATOM     18  C   UNL     1      -1.215  12.105  19.608  0.00  0.00    +0.000 C 
BRANCH  18  19
ATOM     19  C   UNL     1      -2.723  12.343  19.875  0.00  0.00    +0.000 C 
BRANCH  19  20
ATOM     20  C   UNL     1      -3.598  11.879  18.750  0.00  0.00    +0.000 A 
ATOM     21  N   UNL     1      -3.208  11.510  17.545  0.00  0.00    +0.000 NA
ATOM     22  N   UNL     1      -4.323  11.252  16.786  0.00  0.00    +0.000 NA
ATOM     23  C   UNL     1      -5.372  11.435  17.553  0.00  0.00    +0.000 A 
ATOM     24  N   UNL     1      -4.967  11.806  18.796  0.00  0.00    +0.000 N 
ATOM     25  C   UNL     1      -5.815  12.044  19.930  0.00  0.00    +0.000 C 
ENDBRANCH  19  20
ENDBRANCH  18  19
ENDBRANCH  11  18
ENDBRANCH   1  15
BRANCH   8  26
ATOM     26  C   UNL     1       2.151   3.716  20.955  0.00  0.00    +0.000 C 
ATOM     27  F   UNL     1       2.629   2.441  20.998  0.00  0.00    +0.000 F 
ATOM     28  F   UNL     1       2.509   4.279  22.140  0.00  0.00    +0.000 F 
ATOM     29  F   UNL     1       0.796   3.594  20.981  0.00  0.00    +0.000 F 
ENDBRANCH   8  26
BRANCH   6  30
ATOM     30  C   UNL     1       4.555   3.874  16.526  0.00  0.00    +0.000 C 
BRANCH  30  31
ATOM     31  N   UNL     1       5.462   4.697  15.689  0.00  0.00    +0.000 NA
ATOM     32  C   UNL     1       6.909   4.547  15.987  0.00  0.00    +0.000 C 
ATOM     33  C   UNL     1       7.176   4.494  14.462  0.00  0.00    +0.000 C 
ATOM     34  F   UNL     1       7.483   5.670  13.854  0.00  0.00    +0.000 F 
ATOM     35  C   UNL     1       5.702   4.045  14.374  0.00  0.00    +0.000 C 
ENDBRANCH  30  31
ENDBRANCH   6  30
TORSDOF 7
ENDMDL
MODEL 4
REMARK VINA RESULT:      -9.1      3.639      9.085
REMARK  Name = 
REMARK  9 active torsions:
REMARK  status: ('A' for Active; 'I' for Inactive)
REMARK    1  A    between atoms: C_1  and  C_2
REMARK    2  A    between atoms: C_2  and  C_3
REMARK    3  A    between atoms: C_2  and  C_10
REMARK    4  A    between atoms: C_3  and  C_4
REMARK    5  A    between atoms: N_8  and  C_9
REMARK    6  A    between atoms: C_14  and  N_15
REMARK    7  A    between atoms: C_20  and  C_21
REMARK    8  A    between atoms: C_21  and  N_22
REMARK    9  A    between atoms: C_28  and  C_29
REMARK                            x       y       z     vdW  Elec       q    Type
REMARK                         _______ _______ _______ _____ _____    ______ ____
ROOT
ATOM      1  N   UNL     1       1.961   7.612  19.607  0.00  0.00    +0.000 N 
ATOM      2  C   UNL     1       1.317   8.074  20.803  0.00  0.00    +0.000 C 
ATOM      3  C   UNL     1       0.730   9.378  20.467  0.00  0.00    +0.000 A 
ATOM      4  C   UNL     1       1.063   9.743  19.170  0.00  0.00    +0.000 A 
ATOM      5  C   UNL     1       0.682  11.011  18.717  0.00  0.00    +0.000 A 
ATOM      6  C   UNL     1      -0.030  11.889  19.603  0.00  0.00    +0.000 A 
ATOM      7  C   UNL     1      -0.392  11.421  20.884  0.00  0.00    +0.000 A 
ATOM      8  C   UNL     1      -0.005  10.165  21.345  0.00  0.00    +0.000 A 
ATOM      9  C   UNL     1       1.837   8.571  18.571  0.00  0.00    +0.000 C 
ATOM     10  O   UNL     1       2.247   8.536  17.431  0.00  0.00    +0.000 OA
ENDROOT
BRANCH   1  15
ATOM     11  C   UNL     1       4.793   5.172  19.255  0.00  0.00    +0.000 A 
ATOM     12  C   UNL     1       4.199   3.988  19.677  0.00  0.00    +0.000 A 
ATOM     13  C   UNL     1       2.842   3.979  20.058  0.00  0.00    +0.000 A 
ATOM     14  C   UNL     1       2.061   5.146  20.050  0.00  0.00    +0.000 A 
ATOM     15  C   UNL     1       2.635   6.357  19.693  0.00  0.00    +0.000 A 
ATOM     16  C   UNL     1       4.011   6.326  19.332  0.00  0.00    +0.000 A 
BRANCH  11  18
ATOM     17  C   UNL     1       7.372   5.538  19.534  0.00  0.00    +0.000 C 
ATOM     18  C   UNL     1       6.180   5.209  18.602  0.00  0.00    +0.000 C 
BRANCH  18  19
ATOM     19  C   UNL     1       6.178   6.184  17.397  0.00  0.00    +0.000 C 
BRANCH  19  20
ATOM     20  C   UNL     1       6.547   5.520  16.105  0.00  0.00    +0.000 A 
ATOM     21  N   UNL     1       7.606   5.773  15.361  0.00  0.00    +0.000 NA
ATOM     22  N   UNL     1       7.522   5.021  14.215  0.00  0.00    +0.000 NA
ATOM     23  C   UNL     1       6.431   4.298  14.297  0.00  0.00    +0.000 A 
ATOM     24  N   UNL     1       5.800   4.560  15.473  0.00  0.00    +0.000 N 
ATOM     25  C   UNL     1       4.603   3.928  15.953  0.00  0.00    +0.000 C 
ENDBRANCH  19  20
ENDBRANCH  18  19
ENDBRANCH  11  18
ENDBRANCH   1  15
BRANCH   8  26
ATOM     26  C   UNL     1      -0.360   9.716  22.738  0.00  0.00    +0.000 C 
ATOM     27  F   UNL     1       0.711   9.542  23.561  0.00  0.00    +0.000 F 
ATOM     28  F   UNL     1      -1.168  10.605  23.375  0.00  0.00    +0.000 F 
ATOM     29  F   UNL     1      -1.017   8.524  22.746  0.00  0.00    +0.000 F 
ENDBRANCH   8  26
BRANCH   6  30
ATOM     30  C   UNL     1      -0.487  13.293  19.187  0.00  0.00    +0.000 C 
BRANCH  30  31
ATOM     31  N   UNL     1       0.384  14.413  19.621  0.00  0.00    +0.000 NA
ATOM     32  C   UNL     1       1.608  14.615  18.805  0.00  0.00    +0.000 C 
ATOM     33  C   UNL     1       1.328  16.139  18.836  0.00  0.00    +0.000 C 
ATOM     34  F   UNL     1       1.936  16.852  19.820  0.00  0.00    +0.000 F 
ATOM     35  C   UNL     1      -0.130  15.711  19.106  0.00  0.00    +0.000 C 
ENDBRANCH  30  31
ENDBRANCH   6  30
TORSDOF 7
ENDMDL
MODEL 5
REMARK VINA RESULT:      -8.9      1.946      2.739
REMARK  Name = 
REMARK  9 active torsions:
REMARK  status: ('A' for Active; 'I' for Inactive)
REMARK    1  A    between atoms: C_1  and  C_2
REMARK    2  A    between atoms: C_2  and  C_3
REMARK    3  A    between atoms: C_2  and  C_10
REMARK    4  A    between atoms: C_3  and  C_4
REMARK    5  A    between atoms: N_8  and  C_9
REMARK    6  A    between atoms: C_14  and  N_15
REMARK    7  A    between atoms: C_20  and  C_21
REMARK    8  A    between atoms: C_21  and  N_22
REMARK    9  A    between atoms: C_28  and  C_29
REMARK                            x       y       z     vdW  Elec       q    Type
REMARK                         _______ _______ _______ _____ _____    ______ ____
ROOT
ATOM      1  N   UNL     1       1.517   7.964  20.156  0.00  0.00    +0.000 N 
ATOM      2  C   UNL     1       1.530   6.615  20.646  0.00  0.00    +0.000 C 
ATOM      3  C   UNL     1       2.340   5.847  19.693  0.00  0.00    +0.000 A 
ATOM      4  C   UNL     1       2.733   6.648  18.630  0.00  0.00    +0.000 A 
ATOM      5  C   UNL     1       3.420   6.052  17.565  0.00  0.00    +0.000 A 
ATOM      6  C   UNL     1       3.689   4.642  17.604  0.00  0.00    +0.000 A 
ATOM      7  C   UNL     1       3.319   3.907  18.751  0.00  0.00    +0.000 A 
ATOM      8  C   UNL     1       2.624   4.492  19.807  0.00  0.00    +0.000 A 
ATOM      9  C   UNL     1       2.238   8.059  18.939  0.00  0.00    +0.000 C 
ATOM     10  O   UNL     1       2.444   9.024  18.235  0.00  0.00    +0.000 OA
ENDROOT
BRANCH   1  15
ATOM     11  C   UNL     1      -0.604  10.998  20.777  0.00  0.00    +0.000 A 
ATOM     12  C   UNL     1      -0.737  10.971  22.161  0.00  0.00    +0.000 A 
ATOM     13  C   UNL     1      -0.100   9.961  22.908  0.00  0.00    +0.000 A 
ATOM     14  C   UNL     1       0.657   8.948  22.295  0.00  0.00    +0.000 A 
ATOM     15  C   UNL     1       0.760   8.908  20.913  0.00  0.00    +0.000 A 
ATOM     16  C   UNL     1       0.089   9.936  20.194  0.00  0.00    +0.000 A 
BRANCH  11  18
ATOM     17  C   UNL     1      -2.567  12.248  19.572  0.00  0.00    +0.000 C 
ATOM     18  C   UNL     1      -1.061  12.193  19.931  0.00  0.00    +0.000 C 
BRANCH  18  19
ATOM     19  C   UNL     1      -0.216  12.285  18.635  0.00  0.00    +0.000 C 
BRANCH  19  20
ATOM     20  C   UNL     1       1.001  13.147  18.789  0.00  0.00    +0.000 A 
ATOM     21  N   UNL     1       2.250  12.737  18.901  0.00  0.00    +0.000 NA
ATOM     22  N   UNL     1       3.049  13.833  19.121  0.00  0.00    +0.000 NA
ATOM     23  C   UNL     1       2.276  14.893  19.105  0.00  0.00    +0.000 A 
ATOM     24  N   UNL     1       0.990  14.515  18.877  0.00  0.00    +0.000 N 
ATOM     25  C   UNL     1      -0.140  15.389  18.734  0.00  0.00    +0.000 C 
ENDBRANCH  19  20
ENDBRANCH  18  19
ENDBRANCH  11  18
ENDBRANCH   1  15
BRANCH   8  26
ATOM     26  C   UNL     1       2.194   3.668  20.991  0.00  0.00    +0.000 C 
ATOM     27  F   UNL     1       2.755   2.427  21.046  0.00  0.00    +0.000 F 
ATOM     28  F   UNL     1       2.509   4.262  22.174  0.00  0.00    +0.000 F 
ATOM     29  F   UNL     1       0.850   3.456  21.014  0.00  0.00    +0.000 F 
ENDBRANCH   8  26
BRANCH   6  30
ATOM     30  C   UNL     1       4.437   3.910  16.483  0.00  0.00    +0.000 C 
BRANCH  30  31
ATOM     31  N   UNL     1       5.388   4.732  15.694  0.00  0.00    +0.000 NA
ATOM     32  C   UNL     1       6.818   4.573  16.064  0.00  0.00    +0.000 C 
ATOM     33  C   UNL     1       7.161   4.524  14.553  0.00  0.00    +0.000 C 
ATOM     34  F   UNL     1       7.502   5.701  13.966  0.00  0.00    +0.000 F 
ATOM     35  C   UNL     1       5.690   4.084  14.390  0.00  0.00    +0.000 C 
ENDBRANCH  30  31
ENDBRANCH   6  30
TORSDOF 7
ENDMDL
MODEL 6
REMARK VINA RESULT:      -8.8      0.832      1.124
REMARK  Name = 
REMARK  9 active torsions:
REMARK  status: ('A' for Active; 'I' for Inactive)
REMARK    1  A    between atoms: C_1  and  C_2
REMARK    2  A    between atoms: C_2  and  C_3
REMARK    3  A    between atoms: C_2  and  C_10
REMARK    4  A    between atoms: C_3  and  C_4
REMARK    5  A    between atoms: N_8  and  C_9
REMARK    6  A    between atoms: C_14  and  N_15
REMARK    7  A    between atoms: C_20  and  C_21
REMARK    8  A    between atoms: C_21  and  N_22
REMARK    9  A    between atoms: C_28  and  C_29
REMARK                            x       y       z     vdW  Elec       q    Type
REMARK                         _______ _______ _______ _____ _____    ______ ____
ROOT
ATOM      1  N   UNL     1       1.557   7.982  20.151  0.00  0.00    +0.000 N 
ATOM      2  C   UNL     1       1.545   6.636  20.646  0.00  0.00    +0.000 C 
ATOM      3  C   UNL     1       2.354   5.852  19.704  0.00  0.00    +0.000 A 
ATOM      4  C   UNL     1       2.769   6.643  18.642  0.00  0.00    +0.000 A 
ATOM      5  C   UNL     1       3.459   6.034  17.587  0.00  0.00    +0.000 A 
ATOM      6  C   UNL     1       3.706   4.620  17.633  0.00  0.00    +0.000 A 
ATOM      7  C   UNL     1       3.314   3.895  18.778  0.00  0.00    +0.000 A 
ATOM      8  C   UNL     1       2.617   4.493  19.825  0.00  0.00    +0.000 A 
ATOM      9  C   UNL     1       2.292   8.062  18.941  0.00  0.00    +0.000 C 
ATOM     10  O   UNL     1       2.520   9.022  18.237  0.00  0.00    +0.000 OA
ENDROOT
BRANCH   1  15
ATOM     11  C   UNL     1       0.072  11.328  20.984  0.00  0.00    +0.000 A 
ATOM     12  C   UNL     1      -0.547  11.067  22.201  0.00  0.00    +0.000 A 
ATOM     13  C   UNL     1      -0.456   9.783  22.774  0.00  0.00    +0.000 A 
ATOM     14  C   UNL     1       0.228   8.733  22.140  0.00  0.00    +0.000 A 
ATOM     15  C   UNL     1       0.806   8.940  20.896  0.00  0.00    +0.000 A 
ATOM     16  C   UNL     1       0.677  10.245  20.344  0.00  0.00    +0.000 A 
BRANCH  11  18
ATOM     17  C   UNL     1       1.053  13.740  21.275  0.00  0.00    +0.000 C 
ATOM     18  C   UNL     1       0.220  12.749  20.425  0.00  0.00    +0.000 C 
BRANCH  18  19
ATOM     19  C   UNL     1      -1.176  13.358  20.138  0.00  0.00    +0.000 C 
BRANCH  19  20
ATOM     20  C   UNL     1      -1.991  12.534  19.187  0.00  0.00    +0.000 A 
ATOM     21  N   UNL     1      -1.584  12.012  18.045  0.00  0.00    +0.000 NA
ATOM     22  N   UNL     1      -2.659  11.416  17.433  0.00  0.00    +0.000 NA
ATOM     23  C   UNL     1      -3.693  11.556  18.228  0.00  0.00    +0.000 A 
ATOM     24  N   UNL     1      -3.318  12.229  19.348  0.00  0.00    +0.000 N 
ATOM     25  C   UNL     1      -4.151  12.530  20.478  0.00  0.00    +0.000 C 
ENDBRANCH  19  20
ENDBRANCH  18  19
ENDBRANCH  11  18
ENDBRANCH   1  15
BRANCH   8  26
ATOM     26  C   UNL     1       2.162   3.679  21.008  0.00  0.00    +0.000 C 
ATOM     27  F   UNL     1       0.812   3.514  21.089  0.00  0.00    +0.000 F 
ATOM     28  F   UNL     1       2.683   2.423  20.999  0.00  0.00    +0.000 F 
ATOM     29  F   UNL     1       2.528   4.239  22.193  0.00  0.00    +0.000 F 
ENDBRANCH   8  26
BRANCH   6  30
ATOM     30  C   UNL     1       4.455   3.874  16.522  0.00  0.00    +0.000 C 
BRANCH  30  31
ATOM     31  N   UNL     1       5.377   4.693  15.698  0.00  0.00    +0.000 NA
ATOM     32  C   UNL     1       6.823   4.444  15.929  0.00  0.00    +0.000 C 
ATOM     33  C   UNL     1       7.031   4.468  14.393  0.00  0.00    +0.000 C 
ATOM     34  F   UNL     1       7.383   5.659  13.843  0.00  0.00    +0.000 F 
ATOM     35  C   UNL     1       5.530   4.109  14.339  0.00  0.00    +0.000 C 
ENDBRANCH  30  31
ENDBRANCH   6  30
TORSDOF 7
ENDMDL
MODEL 7
REMARK VINA RESULT:      -8.8      3.702      9.287
REMARK  Name = 
REMARK  9 active torsions:
REMARK  status: ('A' for Active; 'I' for Inactive)
REMARK    1  A    between atoms: C_1  and  C_2
REMARK    2  A    between atoms: C_2  and  C_3
REMARK    3  A    between atoms: C_2  and  C_10
REMARK    4  A    between atoms: C_3  and  C_4
REMARK    5  A    between atoms: N_8  and  C_9
REMARK    6  A    between atoms: C_14  and  N_15
REMARK    7  A    between atoms: C_20  and  C_21
REMARK    8  A    between atoms: C_21  and  N_22
REMARK    9  A    between atoms: C_28  and  C_29
REMARK                            x       y       z     vdW  Elec       q    Type
REMARK                         _______ _______ _______ _____ _____    ______ ____
ROOT
ATOM      1  N   UNL     1       1.931   7.989  19.297  0.00  0.00    +0.000 N 
ATOM      2  C   UNL     1       1.320   8.292  20.559  0.00  0.00    +0.000 C 
ATOM      3  C   UNL     1       0.736   9.631  20.414  0.00  0.00    +0.000 A 
ATOM      4  C   UNL     1       1.041  10.164  19.169  0.00  0.00    +0.000 A 
ATOM      5  C   UNL     1       0.660  11.483  18.898  0.00  0.00    +0.000 A 
ATOM      6  C   UNL     1      -0.024  12.239  19.909  0.00  0.00    +0.000 A 
ATOM      7  C   UNL     1      -0.360  11.606  21.125  0.00  0.00    +0.000 A 
ATOM      8  C   UNL     1       0.027  10.298  21.405  0.00  0.00    +0.000 A 
ATOM      9  C   UNL     1       1.791   9.079  18.401  0.00  0.00    +0.000 C 
ATOM     10  O   UNL     1       2.174   9.193  17.256  0.00  0.00    +0.000 OA
ENDROOT
BRANCH   1  15
ATOM     11  C   UNL     1       4.091   5.325  17.769  0.00  0.00    +0.000 A 
ATOM     12  C   UNL     1       3.971   4.298  18.699  0.00  0.00    +0.000 A 
ATOM     13  C   UNL     1       3.151   4.467  19.832  0.00  0.00    +0.000 A 
ATOM     14  C   UNL     1       2.455   5.664  20.073  0.00  0.00    +0.000 A 
ATOM     15  C   UNL     1       2.598   6.731  19.199  0.00  0.00    +0.000 A 
ATOM     16  C   UNL     1       3.449   6.525  18.077  0.00  0.00    +0.000 A 
BRANCH  11  18
ATOM     17  C   UNL     1       5.128   3.669  16.024  0.00  0.00    +0.000 C 
ATOM     18  C   UNL     1       4.764   5.125  16.405  0.00  0.00    +0.000 C 
BRANCH  18  19
ATOM     19  C   UNL     1       6.023   6.021  16.295  0.00  0.00    +0.000 C 
BRANCH  19  20
ATOM     20  C   UNL     1       6.944   5.886  17.470  0.00  0.00    +0.000 A 
ATOM     21  N   UNL     1       7.227   4.779  18.129  0.00  0.00    +0.000 NA
ATOM     22  N   UNL     1       8.031   5.100  19.195  0.00  0.00    +0.000 NA
ATOM     23  C   UNL     1       8.252   6.393  19.146  0.00  0.00    +0.000 A 
ATOM     24  N   UNL     1       7.610   6.923  18.070  0.00  0.00    +0.000 N 
ATOM     25  C   UNL     1       7.654   8.294  17.646  0.00  0.00    +0.000 C 
ENDBRANCH  19  20
ENDBRANCH  18  19
ENDBRANCH  11  18
ENDBRANCH   1  15
BRANCH   8  26
ATOM     26  C   UNL     1      -0.298   9.670  22.735  0.00  0.00    +0.000 C 
ATOM     27  F   UNL     1      -1.092  10.433  23.537  0.00  0.00    +0.000 F 
ATOM     28  F   UNL     1      -0.951   8.485  22.598  0.00  0.00    +0.000 F 
ATOM     29  F   UNL     1       0.816   9.411  23.472  0.00  0.00    +0.000 F 
ENDBRANCH   8  26
BRANCH   6  30
ATOM     30  C   UNL     1      -0.479  13.688  19.695  0.00  0.00    +0.000 C 
BRANCH  30  31
ATOM     31  N   UNL     1       0.567  14.636  19.240  0.00  0.00    +0.000 NA
ATOM     32  C   UNL     1       0.062  15.925  18.703  0.00  0.00    +0.000 C 
ATOM     33  C   UNL     1       1.169  16.649  19.510  0.00  0.00    +0.000 C 
ATOM     34  F   UNL     1       2.335  16.900  18.858  0.00  0.00    +0.000 F 
ATOM     35  C   UNL     1       1.141  15.381  20.391  0.00  0.00    +0.000 C 
ENDBRANCH  30  31
ENDBRANCH   6  30
TORSDOF 7
ENDMDL
MODEL 8
REMARK VINA RESULT:      -8.8      3.597      9.408
REMARK  Name = 
REMARK  9 active torsions:
REMARK  status: ('A' for Active; 'I' for Inactive)
REMARK    1  A    between atoms: C_1  and  C_2
REMARK    2  A    between atoms: C_2  and  C_3
REMARK    3  A    between atoms: C_2  and  C_10
REMARK    4  A    between atoms: C_3  and  C_4
REMARK    5  A    between atoms: N_8  and  C_9
REMARK    6  A    between atoms: C_14  and  N_15
REMARK    7  A    between atoms: C_20  and  C_21
REMARK    8  A    between atoms: C_21  and  N_22
REMARK    9  A    between atoms: C_28  and  C_29
REMARK                            x       y       z     vdW  Elec       q    Type
REMARK                         _______ _______ _______ _____ _____    ______ ____
ROOT
ATOM      1  N   UNL     1       2.014   7.617  19.577  0.00  0.00    +0.000 N 
ATOM      2  C   UNL     1       1.375   8.061  20.782  0.00  0.00    +0.000 C 
ATOM      3  C   UNL     1       0.789   9.371  20.470  0.00  0.00    +0.000 A 
ATOM      4  C   UNL     1       1.118   9.757  19.178  0.00  0.00    +0.000 A 
ATOM      5  C   UNL     1       0.737  11.033  18.747  0.00  0.00    +0.000 A 
ATOM      6  C   UNL     1       0.030  11.897  19.650  0.00  0.00    +0.000 A 
ATOM      7  C   UNL     1      -0.329  11.408  20.924  0.00  0.00    +0.000 A 
ATOM      8  C   UNL     1       0.058  10.144  21.363  0.00  0.00    +0.000 A 
ATOM      9  C   UNL     1       1.888   8.594  18.557  0.00  0.00    +0.000 C 
ATOM     10  O   UNL     1       2.294   8.577  17.415  0.00  0.00    +0.000 OA
ENDROOT
BRANCH   1  15
ATOM     11  C   UNL     1       4.850   5.186  19.201  0.00  0.00    +0.000 A 
ATOM     12  C   UNL     1       4.250   3.992  19.584  0.00  0.00    +0.000 A 
ATOM     13  C   UNL     1       2.889   3.974  19.947  0.00  0.00    +0.000 A 
ATOM     14  C   UNL     1       2.107   5.141  19.958  0.00  0.00    +0.000 A 
ATOM     15  C   UNL     1       2.687   6.360  19.640  0.00  0.00    +0.000 A 
ATOM     16  C   UNL     1       4.068   6.338  19.296  0.00  0.00    +0.000 A 
BRANCH  11  18
ATOM     17  C   UNL     1       7.421   5.575  19.517  0.00  0.00    +0.000 C 
ATOM     18  C   UNL     1       6.246   5.238  18.567  0.00  0.00    +0.000 C 
BRANCH  18  19
ATOM     19  C   UNL     1       6.251   6.219  17.367  0.00  0.00    +0.000 C 
BRANCH  19  20
ATOM     20  C   UNL     1       6.575   5.549  16.065  0.00  0.00    +0.000 A 
ATOM     21  N   UNL     1       7.641   5.753  15.315  0.00  0.00    +0.000 NA
ATOM     22  N   UNL     1       7.509   5.019  14.162  0.00  0.00    +0.000 NA
ATOM     23  C   UNL     1       6.381   4.353  14.246  0.00  0.00    +0.000 A 
ATOM     24  N   UNL     1       5.774   4.636  15.429  0.00  0.00    +0.000 N 
ATOM     25  C   UNL     1       4.549   4.063  15.913  0.00  0.00    +0.000 C 
ENDBRANCH  19  20
ENDBRANCH  18  19
ENDBRANCH  11  18
ENDBRANCH   1  15
BRANCH   8  26
ATOM     26  C   UNL     1      -0.292   9.673  22.750  0.00  0.00    +0.000 C 
ATOM     27  F   UNL     1      -0.983   8.500  22.786  0.00  0.00    +0.000 F 
ATOM     28  F   UNL     1       0.811   9.469  23.518  0.00  0.00    +0.000 F 
ATOM     29  F   UNL     1      -1.068  10.568  23.420  0.00  0.00    +0.000 F 
ENDBRANCH   8  26
BRANCH   6  30
ATOM     30  C   UNL     1      -0.427  13.308  19.259  0.00  0.00    +0.000 C 
BRANCH  30  31
ATOM     31  N   UNL     1      -0.685  14.241  20.384  0.00  0.00    +0.000 NA
ATOM     32  C   UNL     1      -0.604  15.684  20.040  0.00  0.00    +0.000 C 
ATOM     33  C   UNL     1      -1.894  15.911  20.869  0.00  0.00    +0.000 C 
ATOM     34  F   UNL     1      -1.729  16.271  22.169  0.00  0.00    +0.000 F 
ATOM     35  C   UNL     1      -2.146  14.412  20.604  0.00  0.00    +0.000 C 
ENDBRANCH  30  31
ENDBRANCH   6  30
TORSDOF 7
ENDMDL
MODEL 9
REMARK VINA RESULT:      -8.8      1.844      2.947
REMARK  Name = 
REMARK  9 active torsions:
REMARK  status: ('A' for Active; 'I' for Inactive)
REMARK    1  A    between atoms: C_1  and  C_2
REMARK    2  A    between atoms: C_2  and  C_3
REMARK    3  A    between atoms: C_2  and  C_10
REMARK    4  A    between atoms: C_3  and  C_4
REMARK    5  A    between atoms: N_8  and  C_9
REMARK    6  A    between atoms: C_14  and  N_15
REMARK    7  A    between atoms: C_20  and  C_21
REMARK    8  A    between atoms: C_21  and  N_22
REMARK    9  A    between atoms: C_28  and  C_29
REMARK                            x       y       z     vdW  Elec       q    Type
REMARK                         _______ _______ _______ _____ _____    ______ ____
ROOT
ATOM      1  N   UNL     1       1.565   8.120  19.911  0.00  0.00    +0.000 N 
ATOM      2  C   UNL     1       1.543   6.791  20.453  0.00  0.00    +0.000 C 
ATOM      3  C   UNL     1       2.394   5.982  19.571  0.00  0.00    +0.000 A 
ATOM      4  C   UNL     1       2.845   6.739  18.499  0.00  0.00    +0.000 A 
ATOM      5  C   UNL     1       3.580   6.099  17.495  0.00  0.00    +0.000 A 
ATOM      6  C   UNL     1       3.836   4.690  17.600  0.00  0.00    +0.000 A 
ATOM      7  C   UNL     1       3.403   4.002  18.754  0.00  0.00    +0.000 A 
ATOM      8  C   UNL     1       2.662   4.631  19.751  0.00  0.00    +0.000 A 
ATOM      9  C   UNL     1       2.346   8.164  18.729  0.00  0.00    +0.000 C 
ATOM     10  O   UNL     1       2.595   9.100  18.000  0.00  0.00    +0.000 OA
ENDROOT
BRANCH   1  15
ATOM     11  C   UNL     1      -0.779  11.029  20.286  0.00  0.00    +0.000 A 
ATOM     12  C   UNL     1      -0.812  11.187  21.667  0.00  0.00    +0.000 A 
ATOM     13  C   UNL     1      -0.036  10.348  22.490  0.00  0.00    +0.000 A 
ATOM     14  C   UNL     1       0.766   9.323  21.960  0.00  0.00    +0.000 A 
ATOM     15  C   UNL     1       0.778   9.097  20.592  0.00  0.00    +0.000 A 
ATOM     16  C   UNL     1      -0.033   9.955  19.798  0.00  0.00    +0.000 A 
BRANCH  11  18
ATOM     17  C   UNL     1      -2.445  11.505  18.322  0.00  0.00    +0.000 C 
ATOM     18  C   UNL     1      -1.400  12.051  19.326  0.00  0.00    +0.000 C 
BRANCH  18  19
ATOM     19  C   UNL     1      -0.287  12.808  18.558  0.00  0.00    +0.000 C 
BRANCH  19  20
ATOM     20  C   UNL     1       0.136  14.075  19.237  0.00  0.00    +0.000 A 
ATOM     21  N   UNL     1      -0.460  15.250  19.161  0.00  0.00    +0.000 NA
ATOM     22  N   UNL     1       0.297  16.167  19.848  0.00  0.00    +0.000 NA
ATOM     23  C   UNL     1       1.323  15.527  20.359  0.00  0.00    +0.000 A 
ATOM     24  N   UNL     1       1.252  14.212  20.022  0.00  0.00    +0.000 N 
ATOM     25  C   UNL     1       2.159  13.179  20.437  0.00  0.00    +0.000 C 
ENDBRANCH  19  20
ENDBRANCH  18  19
ENDBRANCH  11  18
ENDBRANCH   1  15
BRANCH   8  26
ATOM     26  C   UNL     1       2.166   3.855  20.943  0.00  0.00    +0.000 C 
ATOM     27  F   UNL     1       2.621   2.573  21.007  0.00  0.00    +0.000 F 
ATOM     28  F   UNL     1       2.533   4.430  22.120  0.00  0.00    +0.000 F 
ATOM     29  F   UNL     1       0.809   3.758  20.970  0.00  0.00    +0.000 F 
ENDBRANCH   8  26
BRANCH   6  30
ATOM     30  C   UNL     1       4.633   3.911  16.547  0.00  0.00    +0.000 C 
BRANCH  30  31
ATOM     31  N   UNL     1       5.490   4.725  15.650  0.00  0.00    +0.000 NA
ATOM     32  C   UNL     1       6.952   4.558  15.848  0.00  0.00    +0.000 C 
ATOM     33  C   UNL     1       7.114   4.504  14.308  0.00  0.00    +0.000 C 
ATOM     34  F   UNL     1       7.391   5.678  13.681  0.00  0.00    +0.000 F 
ATOM     35  C   UNL     1       5.632   4.072  14.321  0.00  0.00    +0.000 C 
ENDBRANCH  30  31
ENDBRANCH   6  30
TORSDOF 7
ENDMDL
