MODEL 1
REMARK VINA RESULT:      -8.2      0.000      0.000
REMARK  Name = 
REMARK  8 active torsions:
REMARK  status: ('A' for Active; 'I' for Inactive)
REMARK    1  A    between atoms: C_1  and  C_2
REMARK    2  A    between atoms: C_2  and  C_3
REMARK    3  A    between atoms: C_2  and  C_10
REMARK    4  A    between atoms: C_3  and  C_4
REMARK    5  A    between atoms: N_8  and  C_9
REMARK    6  A    between atoms: C_14  and  N_15
REMARK    7  A    between atoms: C_16  and  C_18
REMARK    8  A    between atoms: C_22  and  C_23
REMARK                            x       y       z     vdW  Elec       q    Type
REMARK                         _______ _______ _______ _____ _____    ______ ____
ROOT
ATOM      1  C   UNL     1       0.110  10.278  19.608  0.00  0.00    +0.000 A 
ATOM      2  C   UNL     1      -0.261  10.121  20.952  0.00  0.00    +0.000 A 
ATOM      3  C   UNL     1       0.309   9.127  21.740  0.00  0.00    +0.000 A 
ATOM      4  C   UNL     1       1.241   8.248  21.196  0.00  0.00    +0.000 A 
ATOM      5  C   UNL     1       1.624   8.358  19.859  0.00  0.00    +0.000 A 
ATOM      6  C   UNL     1       1.085   9.398  19.085  0.00  0.00    +0.000 A 
ENDROOT
BRANCH   5   7
ATOM      7  N   UNL     1       2.522   7.456  19.248  0.00  0.00    +0.000 N 
ATOM      8  C   UNL     1       2.517   6.077  19.389  0.00  0.00    +0.000 C 
ATOM      9  O   UNL     1       1.735   5.408  20.057  0.00  0.00    +0.000 OA
ATOM     10  H   UNL     1       3.183   7.827  18.570  0.00  0.00    +0.000 HD
BRANCH   8  11
ATOM     11  C   UNL     1       3.561   5.359  18.593  0.00  0.00    +0.000 A 
ATOM     12  C   UNL     1       3.157   4.443  17.647  0.00  0.00    +0.000 A 
ATOM     13  C   UNL     1       4.164   3.842  16.943  0.00  0.00    +0.000 A 
ATOM     14  N   UNL     1       5.465   4.112  17.144  0.00  0.00    +0.000 NA
ATOM     15  C   UNL     1       5.782   5.032  18.094  0.00  0.00    +0.000 A 
ATOM     16  N   UNL     1       4.855   5.677  18.845  0.00  0.00    +0.000 NA
BRANCH  15  17
ATOM     17  C   UNL     1       7.263   5.371  18.317  0.00  0.00    +0.000 C 
ATOM     18  F   UNL     1       7.609   5.529  19.630  0.00  0.00    +0.000 F 
ATOM     19  F   UNL     1       8.101   4.404  17.834  0.00  0.00    +0.000 F 
ATOM     20  F   UNL     1       7.643   6.528  17.697  0.00  0.00    +0.000 F 
ENDBRANCH  15  17
ENDBRANCH   8  11
ENDBRANCH   5   7
BRANCH   1  22
ATOM     21  C   UNL     1       0.289  12.668  18.667  0.00  0.00    +0.000 C 
ATOM     22  C   UNL     1      -0.513  11.350  18.705  0.00  0.00    +0.000 C 
BRANCH  22  23
ATOM     23  C   UNL     1      -1.981  11.614  19.119  0.00  0.00    +0.000 C 
BRANCH  23  24
ATOM     24  C   UNL     1      -2.942  11.472  17.984  0.00  0.00    +0.000 A 
ATOM     25  N   UNL     1      -2.641  11.135  16.745  0.00  0.00    +0.000 NA
ATOM     26  N   UNL     1      -3.795  11.167  15.999  0.00  0.00    +0.000 NA
ATOM     27  C   UNL     1      -4.777  11.509  16.799  0.00  0.00    +0.000 A 
ATOM     28  N   UNL     1      -4.293  11.695  18.056  0.00  0.00    +0.000 N 
ATOM     29  C   UNL     1      -5.063  12.056  19.215  0.00  0.00    +0.000 C 
ENDBRANCH  23  24
ENDBRANCH  22  23
ENDBRANCH   1  22
TORSDOF 6
ENDMDL
MODEL 2
REMARK VINA RESULT:      -8.0      4.309      9.261
REMARK  Name = 
REMARK  8 active torsions:
REMARK  status: ('A' for Active; 'I' for Inactive)
REMARK    1  A    between atoms: C_1  and  C_2
REMARK    2  A    between atoms: C_2  and  C_3
REMARK    3  A    between atoms: C_2  and  C_10
REMARK    4  A    between atoms: C_3  and  C_4
REMARK    5  A    between atoms: N_8  and  C_9
REMARK    6  A    between atoms: C_14  and  N_15
REMARK    7  A    between atoms: C_16  and  C_18
REMARK    8  A    between atoms: C_22  and  C_23
REMARK                            x       y       z     vdW  Elec       q    Type
REMARK                         _______ _______ _______ _____ _____    ______ ____
ROOT
ATOM      1  C   UNL     1       4.458   4.570  17.058  0.00  0.00    +0.000 A 
ATOM      2  C   UNL     1       3.642   3.429  17.012  0.00  0.00    +0.000 A 
ATOM      3  C   UNL     1       2.339   3.460  17.498  0.00  0.00    +0.000 A 
ATOM      4  C   UNL     1       1.830   4.625  18.066  0.00  0.00    +0.000 A 
ATOM      5  C   UNL     1       2.614   5.776  18.147  0.00  0.00    +0.000 A 
ATOM      6  C   UNL     1       3.909   5.752  17.605  0.00  0.00    +0.000 A 
ENDROOT
BRANCH   5   7
ATOM      7  N   UNL     1       2.162   6.963  18.764  0.00  0.00    +0.000 N 
ATOM      8  C   UNL     1       2.143   8.225  18.191  0.00  0.00    +0.000 C 
ATOM      9  O   UNL     1       2.505   8.524  17.057  0.00  0.00    +0.000 OA
ATOM     10  H   UNL     1       1.725   6.888  19.679  0.00  0.00    +0.000 HD
BRANCH   8  11
ATOM     11  C   UNL     1       1.573   9.302  19.059  0.00  0.00    +0.000 A 
ATOM     12  C   UNL     1       1.530  10.590  18.571  0.00  0.00    +0.000 A 
ATOM     13  C   UNL     1       0.976  11.518  19.410  0.00  0.00    +0.000 A 
ATOM     14  N   UNL     1       0.498  11.215  20.630  0.00  0.00    +0.000 NA
ATOM     15  C   UNL     1       0.574   9.920  21.036  0.00  0.00    +0.000 A 
ATOM     16  N   UNL     1       1.109   8.931  20.277  0.00  0.00    +0.000 NA
BRANCH  15  17
ATOM     17  C   UNL     1       0.009   9.553  22.416  0.00  0.00    +0.000 C 
ATOM     18  F   UNL     1      -0.753  10.533  22.987  0.00  0.00    +0.000 F 
ATOM     19  F   UNL     1      -0.793   8.446  22.377  0.00  0.00    +0.000 F 
ATOM     20  F   UNL     1       0.983   9.269  23.330  0.00  0.00    +0.000 F 
ENDBRANCH  15  17
ENDBRANCH   8  11
ENDBRANCH   5   7
BRANCH   1  22
ATOM     21  C   UNL     1       6.934   4.995  17.616  0.00  0.00    +0.000 C 
ATOM     22  C   UNL     1       5.905   4.565  16.550  0.00  0.00    +0.000 C 
BRANCH  22  23
ATOM     23  C   UNL     1       6.032   5.441  15.280  0.00  0.00    +0.000 C 
BRANCH  23  24
ATOM     24  C   UNL     1       6.110   4.639  14.023  0.00  0.00    +0.000 A 
ATOM     25  N   UNL     1       5.235   3.740  13.616  0.00  0.00    +0.000 NA
ATOM     26  N   UNL     1       5.696   3.193  12.441  0.00  0.00    +0.000 NA
ATOM     27  C   UNL     1       6.834   3.777  12.150  0.00  0.00    +0.000 A 
ATOM     28  N   UNL     1       7.126   4.702  13.104  0.00  0.00    +0.000 N 
ATOM     29  C   UNL     1       8.278   5.560  13.126  0.00  0.00    +0.000 C 
ENDBRANCH  23  24
ENDBRANCH  22  23
ENDBRANCH   1  22
TORSDOF 6
ENDMDL
MODEL 3
REMARK VINA RESULT:      -8.0      4.192      8.892
REMARK  Name = 
REMARK  8 active torsions:
REMARK  status: ('A' for Active; 'I' for Inactive)
REMARK    1  A    between atoms: C_1  and  C_2
REMARK    2  A    between atoms: C_2  and  C_3
REMARK    3  A    between atoms: C_2  and  C_10
REMARK    4  A    between atoms: C_3  and  C_4
REMARK    5  A    between atoms: N_8  and  C_9
REMARK    6  A    between atoms: C_14  and  N_15
REMARK    7  A    between atoms: C_16  and  C_18
REMARK    8  A    between atoms: C_22  and  C_23
REMARK                            x       y       z     vdW  Elec       q    Type
REMARK                         _______ _______ _______ _____ _____    ______ ____
ROOT
ATOM      1  C   UNL     1       5.563   4.865  18.947  0.00  0.00    +0.000 A 
ATOM      2  C   UNL     1       4.992   3.584  18.993  0.00  0.00    +0.000 A 
ATOM      3  C   UNL     1       3.641   3.413  19.275  0.00  0.00    +0.000 A 
ATOM      4  C   UNL     1       2.835   4.515  19.545  0.00  0.00    +0.000 A 
ATOM      5  C   UNL     1       3.366   5.804  19.527  0.00  0.00    +0.000 A 
ATOM      6  C   UNL     1       4.719   5.974  19.188  0.00  0.00    +0.000 A 
ENDROOT
BRANCH   5   7
ATOM      7  N   UNL     1       2.603   6.947  19.849  0.00  0.00    +0.000 N 
ATOM      8  C   UNL     1       2.169   7.916  18.957  0.00  0.00    +0.000 C 
ATOM      9  O   UNL     1       2.365   7.943  17.746  0.00  0.00    +0.000 OA
ATOM     10  H   UNL     1       2.256   7.037  20.800  0.00  0.00    +0.000 HD
BRANCH   8  11
ATOM     11  C   UNL     1       1.338   9.004  19.564  0.00  0.00    +0.000 A 
ATOM     12  C   UNL     1       0.970  10.072  18.775  0.00  0.00    +0.000 A 
ATOM     13  C   UNL     1       0.194  11.015  19.390  0.00  0.00    +0.000 A 
ATOM     14  N   UNL     1      -0.196  10.926  20.674  0.00  0.00    +0.000 NA
ATOM     15  C   UNL     1       0.207   9.838  21.384  0.00  0.00    +0.000 A 
ATOM     16  N   UNL     1       0.980   8.853  20.862  0.00  0.00    +0.000 NA
BRANCH  15  17
ATOM     17  C   UNL     1      -0.251   9.709  22.844  0.00  0.00    +0.000 C 
ATOM     18  F   UNL     1       0.762   9.463  23.728  0.00  0.00    +0.000 F 
ATOM     19  F   UNL     1      -0.867  10.840  23.303  0.00  0.00    +0.000 F 
ATOM     20  F   UNL     1      -1.152   8.699  23.030  0.00  0.00    +0.000 F 
ENDBRANCH  15  17
ENDBRANCH   8  11
ENDBRANCH   5   7
BRANCH   1  22
ATOM     21  C   UNL     1       7.827   5.690  19.851  0.00  0.00    +0.000 C 
ATOM     22  C   UNL     1       7.053   5.090  18.660  0.00  0.00    +0.000 C 
BRANCH  22  23
ATOM     23  C   UNL     1       7.229   5.965  17.394  0.00  0.00    +0.000 C 
BRANCH  23  24
ATOM     24  C   UNL     1       6.752   5.293  16.149  0.00  0.00    +0.000 A 
ATOM     25  N   UNL     1       7.286   4.228  15.584  0.00  0.00    +0.000 NA
ATOM     26  N   UNL     1       6.586   3.956  14.432  0.00  0.00    +0.000 NA
ATOM     27  C   UNL     1       5.633   4.851  14.325  0.00  0.00    +0.000 A 
ATOM     28  N   UNL     1       5.688   5.700  15.387  0.00  0.00    +0.000 N 
ATOM     29  C   UNL     1       4.797   6.800  15.637  0.00  0.00    +0.000 C 
ENDBRANCH  23  24
ENDBRANCH  22  23
ENDBRANCH   1  22
TORSDOF 6
ENDMDL
MODEL 4
REMARK VINA RESULT:      -7.9      4.597      9.467
REMARK  Name = 
REMARK  8 active torsions:
REMARK  status: ('A' for Active; 'I' for Inactive)
REMARK    1  A    between atoms: C_1  and  C_2
REMARK    2  A    between atoms: C_2  and  C_3
REMARK    3  A    between atoms: C_2  and  C_10
REMARK    4  A    between atoms: C_3  and  C_4
REMARK    5  A    between atoms: N_8  and  C_9
REMARK    6  A    between atoms: C_14  and  N_15
REMARK    7  A    between atoms: C_16  and  C_18
REMARK    8  A    between atoms: C_22  and  C_23
REMARK                            x       y       z     vdW  Elec       q    Type
REMARK                         _______ _______ _______ _____ _____    ______ ____
ROOT
ATOM      1  C   UNL     1       4.428   5.142  17.524  0.00  0.00    +0.000 A 
ATOM      2  C   UNL     1       4.167   3.794  17.812  0.00  0.00    +0.000 A 
ATOM      3  C   UNL     1       3.247   3.436  18.792  0.00  0.00    +0.000 A 
ATOM      4  C   UNL     1       2.586   4.417  19.525  0.00  0.00    +0.000 A 
ATOM      5  C   UNL     1       2.829   5.769  19.283  0.00  0.00    +0.000 A 
ATOM      6  C   UNL     1       3.719   6.123  18.256  0.00  0.00    +0.000 A 
ENDROOT
BRANCH   5   7
ATOM      7  N   UNL     1       2.227   6.798  20.039  0.00  0.00    +0.000 N 
ATOM      8  C   UNL     1       1.768   8.010  19.546  0.00  0.00    +0.000 C 
ATOM      9  O   UNL     1       1.799   8.390  18.379  0.00  0.00    +0.000 OA
ATOM     10  H   UNL     1       2.023   6.616  21.017  0.00  0.00    +0.000 HD
BRANCH   8  11
ATOM     11  C   UNL     1       1.133   8.904  20.564  0.00  0.00    +0.000 A 
ATOM     12  C   UNL     1       1.373   8.660  21.899  0.00  0.00    +0.000 A 
ATOM     13  C   UNL     1       0.778   9.530  22.772  0.00  0.00    +0.000 A 
ATOM     14  N   UNL     1       0.010  10.560  22.375  0.00  0.00    +0.000 NA
ATOM     15  C   UNL     1      -0.174  10.735  21.040  0.00  0.00    +0.000 A 
ATOM     16  N   UNL     1       0.370   9.923  20.099  0.00  0.00    +0.000 NA
BRANCH  15  17
ATOM     17  C   UNL     1      -1.028  11.922  20.570  0.00  0.00    +0.000 C 
ATOM     18  F   UNL     1      -1.897  12.394  21.513  0.00  0.00    +0.000 F 
ATOM     19  F   UNL     1      -0.270  13.000  20.203  0.00  0.00    +0.000 F 
ATOM     20  F   UNL     1      -1.797  11.626  19.481  0.00  0.00    +0.000 F 
ENDBRANCH  15  17
ENDBRANCH   8  11
ENDBRANCH   5   7
BRANCH   1  22
ATOM     21  C   UNL     1       4.984   6.763  15.604  0.00  0.00    +0.000 C 
ATOM     22  C   UNL     1       5.451   5.572  16.465  0.00  0.00    +0.000 C 
BRANCH  22  23
ATOM     23  C   UNL     1       5.838   4.368  15.572  0.00  0.00    +0.000 C 
BRANCH  23  24
ATOM     24  C   UNL     1       6.768   4.738  14.464  0.00  0.00    +0.000 A 
ATOM     25  N   UNL     1       7.822   5.524  14.561  0.00  0.00    +0.000 NA
ATOM     26  N   UNL     1       8.379   5.652  13.310  0.00  0.00    +0.000 NA
ATOM     27  C   UNL     1       7.662   4.931  12.480  0.00  0.00    +0.000 A 
ATOM     28  N   UNL     1       6.651   4.327  13.161  0.00  0.00    +0.000 N 
ATOM     29  C   UNL     1       5.667   3.441  12.603  0.00  0.00    +0.000 C 
ENDBRANCH  23  24
ENDBRANCH  22  23
ENDBRANCH   1  22
TORSDOF 6
ENDMDL
MODEL 5
REMARK VINA RESULT:      -7.9      2.084      2.998
REMARK  Name = 
REMARK  8 active torsions:
REMARK  status: ('A' for Active; 'I' for Inactive)
REMARK    1  A    between atoms: C_1  and  C_2
REMARK    2  A    between atoms: C_2  and  C_3
REMARK    3  A    between atoms: C_2  and  C_10
REMARK    4  A    between atoms: C_3  and  C_4
REMARK    5  A    between atoms: N_8  and  C_9
REMARK    6  A    between atoms: C_14  and  N_15
REMARK    7  A    between atoms: C_16  and  C_18
REMARK    8  A    between atoms: C_22  and  C_23
REMARK                            x       y       z     vdW  Elec       q    Type
REMARK                         _______ _______ _______ _____ _____    ______ ____
ROOT
ATOM      1  C   UNL     1      -1.593  10.615  17.862  0.00  0.00    +0.000 A 
ATOM      2  C   UNL     1      -1.209  11.842  18.426  0.00  0.00    +0.000 A 
ATOM      3  C   UNL     1       0.097  12.055  18.855  0.00  0.00    +0.000 A 
ATOM      4  C   UNL     1       1.042  11.038  18.756  0.00  0.00    +0.000 A 
ATOM      5  C   UNL     1       0.698   9.799  18.219  0.00  0.00    +0.000 A 
ATOM      6  C   UNL     1      -0.608   9.608  17.738  0.00  0.00    +0.000 A 
ENDROOT
BRANCH   5   7
ATOM      7  N   UNL     1       1.606   8.719  18.150  0.00  0.00    +0.000 N 
ATOM      8  C   UNL     1       2.008   7.923  19.211  0.00  0.00    +0.000 C 
ATOM      9  O   UNL     1       1.642   8.012  20.379  0.00  0.00    +0.000 OA
ATOM     10  H   UNL     1       1.936   8.431  17.234  0.00  0.00    +0.000 HD
BRANCH   8  11
ATOM     11  C   UNL     1       2.953   6.820  18.848  0.00  0.00    +0.000 A 
ATOM     12  C   UNL     1       3.055   5.733  19.689  0.00  0.00    +0.000 A 
ATOM     13  C   UNL     1       3.920   4.755  19.282  0.00  0.00    +0.000 A 
ATOM     14  N   UNL     1       4.631   4.828  18.143  0.00  0.00    +0.000 NA
ATOM     15  C   UNL     1       4.471   5.932  17.366  0.00  0.00    +0.000 A 
ATOM     16  N   UNL     1       3.640   6.955  17.687  0.00  0.00    +0.000 NA
BRANCH  15  17
ATOM     17  C   UNL     1       5.256   6.019  16.050  0.00  0.00    +0.000 C 
ATOM     18  F   UNL     1       6.598   6.220  16.211  0.00  0.00    +0.000 F 
ATOM     19  F   UNL     1       5.148   4.881  15.298  0.00  0.00    +0.000 F 
ATOM     20  F   UNL     1       4.829   7.034  15.241  0.00  0.00    +0.000 F 
ENDBRANCH  15  17
ENDBRANCH   8  11
ENDBRANCH   5   7
BRANCH   1  22
ATOM     21  C   UNL     1      -3.116   9.777  15.964  0.00  0.00    +0.000 C 
ATOM     22  C   UNL     1      -3.029  10.339  17.398  0.00  0.00    +0.000 C 
BRANCH  22  23
ATOM     23  C   UNL     1      -3.894  11.615  17.541  0.00  0.00    +0.000 C 
BRANCH  23  24
ATOM     24  C   UNL     1      -5.047  11.437  18.473  0.00  0.00    +0.000 A 
ATOM     25  N   UNL     1      -6.109  10.684  18.264  0.00  0.00    +0.000 NA
ATOM     26  N   UNL     1      -6.959  10.831  19.335  0.00  0.00    +0.000 NA
ATOM     27  C   UNL     1      -6.393  11.661  20.180  0.00  0.00    +0.000 A 
ATOM     28  N   UNL     1      -5.186  12.054  19.689  0.00  0.00    +0.000 N 
ATOM     29  C   UNL     1      -4.259  12.942  20.335  0.00  0.00    +0.000 C 
ENDBRANCH  23  24
ENDBRANCH  22  23
ENDBRANCH   1  22
TORSDOF 6
ENDMDL
MODEL 6
REMARK VINA RESULT:      -7.9      1.364      1.588
REMARK  Name = 
REMARK  8 active torsions:
REMARK  status: ('A' for Active; 'I' for Inactive)
REMARK    1  A    between atoms: C_1  and  C_2
REMARK    2  A    between atoms: C_2  and  C_3
REMARK    3  A    between atoms: C_2  and  C_10
REMARK    4  A    between atoms: C_3  and  C_4
REMARK    5  A    between atoms: N_8  and  C_9
REMARK    6  A    between atoms: C_14  and  N_15
REMARK    7  A    between atoms: C_16  and  C_18
REMARK    8  A    between atoms: C_22  and  C_23
REMARK                            x       y       z     vdW  Elec       q    Type
REMARK                         _______ _______ _______ _____ _____    ______ ____
ROOT
ATOM      1  C   UNL     1      -0.086  10.431  19.796  0.00  0.00    +0.000 A 
ATOM      2  C   UNL     1      -0.439  10.411  21.154  0.00  0.00    +0.000 A 
ATOM      3  C   UNL     1       0.145   9.503  22.032  0.00  0.00    +0.000 A 
ATOM      4  C   UNL     1       1.073   8.575  21.567  0.00  0.00    +0.000 A 
ATOM      5  C   UNL     1       1.438   8.550  20.221  0.00  0.00    +0.000 A 
ATOM      6  C   UNL     1       0.885   9.505  19.352  0.00  0.00    +0.000 A 
ENDROOT
BRANCH   5   7
ATOM      7  N   UNL     1       2.332   7.593  19.693  0.00  0.00    +0.000 N 
ATOM      8  C   UNL     1       2.285   6.225  19.911  0.00  0.00    +0.000 C 
ATOM      9  O   UNL     1       1.463   5.615  20.588  0.00  0.00    +0.000 OA
ATOM     10  H   UNL     1       3.024   7.908  19.019  0.00  0.00    +0.000 HD
BRANCH   8  11
ATOM     11  C   UNL     1       3.335   5.436  19.193  0.00  0.00    +0.000 A 
ATOM     12  C   UNL     1       3.591   4.147  19.606  0.00  0.00    +0.000 A 
ATOM     13  C   UNL     1       4.547   3.480  18.890  0.00  0.00    +0.000 A 
ATOM     14  N   UNL     1       5.203   4.026  17.851  0.00  0.00    +0.000 NA
ATOM     15  C   UNL     1       4.890   5.302  17.504  0.00  0.00    +0.000 A 
ATOM     16  N   UNL     1       3.959   6.045  18.155  0.00  0.00    +0.000 NA
BRANCH  15  17
ATOM     17  C   UNL     1       5.612   5.930  16.303  0.00  0.00    +0.000 C 
ATOM     18  F   UNL     1       6.764   6.590  16.626  0.00  0.00    +0.000 F 
ATOM     19  F   UNL     1       5.973   5.004  15.365  0.00  0.00    +0.000 F 
ATOM     20  F   UNL     1       4.842   6.844  15.639  0.00  0.00    +0.000 F 
ENDBRANCH  15  17
ENDBRANCH   8  11
ENDBRANCH   5   7
BRANCH   1  22
ATOM     21  C   UNL     1      -0.423  12.886  19.100  0.00  0.00    +0.000 C 
ATOM     22  C   UNL     1      -0.724  11.405  18.797  0.00  0.00    +0.000 C 
BRANCH  22  23
ATOM     23  C   UNL     1      -2.251  11.162  18.712  0.00  0.00    +0.000 C 
BRANCH  23  24
ATOM     24  C   UNL     1      -2.705  10.775  17.343  0.00  0.00    +0.000 A 
ATOM     25  N   UNL     1      -2.031  10.047  16.474  0.00  0.00    +0.000 NA
ATOM     26  N   UNL     1      -2.772   9.962  15.319  0.00  0.00    +0.000 NA
ATOM     27  C   UNL     1      -3.886  10.627  15.510  0.00  0.00    +0.000 A 
ATOM     28  N   UNL     1      -3.896  11.141  16.770  0.00  0.00    +0.000 N 
ATOM     29  C   UNL     1      -4.955  11.913  17.360  0.00  0.00    +0.000 C 
ENDBRANCH  23  24
ENDBRANCH  22  23
ENDBRANCH   1  22
TORSDOF 6
ENDMDL
MODEL 7
REMARK VINA RESULT:      -7.9      7.259      8.687
REMARK  Name = 
REMARK  8 active torsions:
REMARK  status: ('A' for Active; 'I' for Inactive)
REMARK    1  A    between atoms: C_1  and  C_2
REMARK    2  A    between atoms: C_2  and  C_3
REMARK    3  A    between atoms: C_2  and  C_10
REMARK    4  A    between atoms: C_3  and  C_4
REMARK    5  A    between atoms: N_8  and  C_9
REMARK    6  A    between atoms: C_14  and  N_15
REMARK    7  A    between atoms: C_16  and  C_18
REMARK    8  A    between atoms: C_22  and  C_23
REMARK                            x       y       z     vdW  Elec       q    Type
REMARK                         _______ _______ _______ _____ _____    ______ ____
ROOT
ATOM      1  C   UNL     1      10.025  12.570  18.595  0.00  0.00    +0.000 A 
ATOM      2  C   UNL     1      10.241  12.918  19.937  0.00  0.00    +0.000 A 
ATOM      3  C   UNL     1      10.053  11.991  20.956  0.00  0.00    +0.000 A 
ATOM      4  C   UNL     1       9.617  10.702  20.661  0.00  0.00    +0.000 A 
ATOM      5  C   UNL     1       9.373  10.321  19.342  0.00  0.00    +0.000 A 
ATOM      6  C   UNL     1       9.618  11.245  18.314  0.00  0.00    +0.000 A 
ENDROOT
BRANCH   5   7
ATOM      7  N   UNL     1       8.877   9.044  18.998  0.00  0.00    +0.000 N 
ATOM      8  C   UNL     1       7.977   8.766  17.980  0.00  0.00    +0.000 C 
ATOM      9  O   UNL     1       7.469   9.571  17.206  0.00  0.00    +0.000 OA
ATOM     10  H   UNL     1       9.270   8.236  19.471  0.00  0.00    +0.000 HD
BRANCH   8  11
ATOM     11  C   UNL     1       7.651   7.315  17.808  0.00  0.00    +0.000 A 
ATOM     12  C   UNL     1       8.060   6.426  18.778  0.00  0.00    +0.000 A 
ATOM     13  C   UNL     1       7.708   5.122  18.565  0.00  0.00    +0.000 A 
ATOM     14  N   UNL     1       7.009   4.714  17.491  0.00  0.00    +0.000 NA
ATOM     15  C   UNL     1       6.639   5.654  16.582  0.00  0.00    +0.000 A 
ATOM     16  N   UNL     1       6.945   6.970  16.704  0.00  0.00    +0.000 NA
BRANCH  15  17
ATOM     17  C   UNL     1       5.818   5.208  15.363  0.00  0.00    +0.000 C 
ATOM     18  F   UNL     1       5.112   6.214  14.765  0.00  0.00    +0.000 F 
ATOM     19  F   UNL     1       6.597   4.673  14.374  0.00  0.00    +0.000 F 
ATOM     20  F   UNL     1       4.897   4.245  15.666  0.00  0.00    +0.000 F 
ENDBRANCH  15  17
ENDBRANCH   8  11
ENDBRANCH   5   7
BRANCH   1  22
ATOM     21  C   UNL     1      11.645  13.641  16.905  0.00  0.00    +0.000 C 
ATOM     22  C   UNL     1      10.203  13.572  17.448  0.00  0.00    +0.000 C 
BRANCH  22  23
ATOM     23  C   UNL     1       9.713  14.976  17.882  0.00  0.00    +0.000 C 
BRANCH  23  24
ATOM     24  C   UNL     1       8.252  15.016  18.186  0.00  0.00    +0.000 A 
ATOM     25  N   UNL     1       7.284  14.543  17.426  0.00  0.00    +0.000 NA
ATOM     26  N   UNL     1       6.083  14.821  18.037  0.00  0.00    +0.000 NA
ATOM     27  C   UNL     1       6.344  15.445  19.161  0.00  0.00    +0.000 A 
ATOM     28  N   UNL     1       7.690  15.576  19.305  0.00  0.00    +0.000 N 
ATOM     29  C   UNL     1       8.367  16.186  20.417  0.00  0.00    +0.000 C 
ENDBRANCH  23  24
ENDBRANCH  22  23
ENDBRANCH   1  22
TORSDOF 6
ENDMDL
MODEL 8
REMARK VINA RESULT:      -7.9      7.796      9.951
REMARK  Name = 
REMARK  8 active torsions:
REMARK  status: ('A' for Active; 'I' for Inactive)
REMARK    1  A    between atoms: C_1  and  C_2
REMARK    2  A    between atoms: C_2  and  C_3
REMARK    3  A    between atoms: C_2  and  C_10
REMARK    4  A    between atoms: C_3  and  C_4
REMARK    5  A    between atoms: N_8  and  C_9
REMARK    6  A    between atoms: C_14  and  N_15
REMARK    7  A    between atoms: C_16  and  C_18
REMARK    8  A    between atoms: C_22  and  C_23
REMARK                            x       y       z     vdW  Elec       q    Type
REMARK                         _______ _______ _______ _____ _____    ______ ____
ROOT
ATOM      1  C   UNL     1      10.312  12.653  18.880  0.00  0.00    +0.000 A 
ATOM      2  C   UNL     1      10.259  13.056  20.223  0.00  0.00    +0.000 A 
ATOM      3  C   UNL     1       9.814  12.188  21.215  0.00  0.00    +0.000 A 
ATOM      4  C   UNL     1       9.384  10.907  20.883  0.00  0.00    +0.000 A 
ATOM      5  C   UNL     1       9.403  10.472  19.559  0.00  0.00    +0.000 A 
ATOM      6  C   UNL     1       9.905  11.335  18.570  0.00  0.00    +0.000 A 
ENDROOT
BRANCH   5   7
ATOM      7  N   UNL     1       8.925   9.202  19.166  0.00  0.00    +0.000 N 
ATOM      8  C   UNL     1       8.073   8.944  18.103  0.00  0.00    +0.000 C 
ATOM      9  O   UNL     1       7.599   9.764  17.323  0.00  0.00    +0.000 OA
ATOM     10  H   UNL     1       9.298   8.385  19.640  0.00  0.00    +0.000 HD
BRANCH   8  11
ATOM     11  C   UNL     1       7.757   7.497  17.887  0.00  0.00    +0.000 A 
ATOM     12  C   UNL     1       8.149   6.585  18.843  0.00  0.00    +0.000 A 
ATOM     13  C   UNL     1       7.808   5.285  18.589  0.00  0.00    +0.000 A 
ATOM     14  N   UNL     1       7.134   4.902  17.490  0.00  0.00    +0.000 NA
ATOM     15  C   UNL     1       6.780   5.864  16.597  0.00  0.00    +0.000 A 
ATOM     16  N   UNL     1       7.077   7.178  16.759  0.00  0.00    +0.000 NA
BRANCH  15  17
ATOM     17  C   UNL     1       5.988   5.446  15.349  0.00  0.00    +0.000 C 
ATOM     18  F   UNL     1       5.299   4.274  15.491  0.00  0.00    +0.000 F 
ATOM     19  F   UNL     1       5.054   6.376  14.985  0.00  0.00    +0.000 F 
ATOM     20  F   UNL     1       6.781   5.272  14.250  0.00  0.00    +0.000 F 
ENDBRANCH  15  17
ENDBRANCH   8  11
ENDBRANCH   5   7
BRANCH   1  22
ATOM     21  C   UNL     1      11.557  12.872  16.638  0.00  0.00    +0.000 C 
ATOM     22  C   UNL     1      10.778  13.590  17.759  0.00  0.00    +0.000 C 
BRANCH  22  23
ATOM     23  C   UNL     1      11.612  14.755  18.346  0.00  0.00    +0.000 C 
BRANCH  23  24
ATOM     24  C   UNL     1      10.986  16.092  18.122  0.00  0.00    +0.000 A 
ATOM     25  N   UNL     1      10.743  16.653  16.953  0.00  0.00    +0.000 NA
ATOM     26  N   UNL     1      10.208  17.900  17.177  0.00  0.00    +0.000 NA
ATOM     27  C   UNL     1      10.124  18.069  18.476  0.00  0.00    +0.000 A 
ATOM     28  N   UNL     1      10.585  16.956  19.108  0.00  0.00    +0.000 N 
ATOM     29  C   UNL     1      10.635  16.750  20.530  0.00  0.00    +0.000 C 
ENDBRANCH  23  24
ENDBRANCH  22  23
ENDBRANCH   1  22
TORSDOF 6
ENDMDL
MODEL 9
REMARK VINA RESULT:      -7.9      1.352      1.690
REMARK  Name = 
REMARK  8 active torsions:
REMARK  status: ('A' for Active; 'I' for Inactive)
REMARK    1  A    between atoms: C_1  and  C_2
REMARK    2  A    between atoms: C_2  and  C_3
REMARK    3  A    between atoms: C_2  and  C_10
REMARK    4  A    between atoms: C_3  and  C_4
REMARK    5  A    between atoms: N_8  and  C_9
REMARK    6  A    between atoms: C_14  and  N_15
REMARK    7  A    between atoms: C_16  and  C_18
REMARK    8  A    between atoms: C_22  and  C_23
REMARK                            x       y       z     vdW  Elec       q    Type
REMARK                         _______ _______ _______ _____ _____    ______ ____
ROOT
ATOM      1  C   UNL     1       0.235  10.557  19.666  0.00  0.00    +0.000 A 
ATOM      2  C   UNL     1      -0.013  10.484  21.046  0.00  0.00    +0.000 A 
ATOM      3  C   UNL     1       0.524   9.457  21.816  0.00  0.00    +0.000 A 
ATOM      4  C   UNL     1       1.297   8.465  21.221  0.00  0.00    +0.000 A 
ATOM      5  C   UNL     1       1.553   8.490  19.850  0.00  0.00    +0.000 A 
ATOM      6  C   UNL     1       1.053   9.559  19.088  0.00  0.00    +0.000 A 
ENDROOT
BRANCH   5   7
ATOM      7  N   UNL     1       2.284   7.476  19.192  0.00  0.00    +0.000 N 
ATOM      8  C   UNL     1       2.366   6.148  19.580  0.00  0.00    +0.000 C 
ATOM      9  O   UNL     1       1.818   5.628  20.547  0.00  0.00    +0.000 OA
ATOM     10  H   UNL     1       2.722   7.704  18.304  0.00  0.00    +0.000 HD
BRANCH   8  11
ATOM     11  C   UNL     1       3.181   5.278  18.675  0.00  0.00    +0.000 A 
ATOM     12  C   UNL     1       3.161   3.914  18.875  0.00  0.00    +0.000 A 
ATOM     13  C   UNL     1       3.910   3.181  17.998  0.00  0.00    +0.000 A 
ATOM     14  N   UNL     1       4.624   3.732  17.000  0.00  0.00    +0.000 NA
ATOM     15  C   UNL     1       4.588   5.084  16.867  0.00  0.00    +0.000 A 
ATOM     16  N   UNL     1       3.877   5.895  17.690  0.00  0.00    +0.000 NA
BRANCH  15  17
ATOM     17  C   UNL     1       5.377   5.726  15.717  0.00  0.00    +0.000 C 
ATOM     18  F   UNL     1       5.351   5.010  14.553  0.00  0.00    +0.000 F 
ATOM     19  F   UNL     1       4.910   6.969  15.390  0.00  0.00    +0.000 F 
ATOM     20  F   UNL     1       6.700   5.897  16.011  0.00  0.00    +0.000 F 
ENDBRANCH  15  17
ENDBRANCH   8  11
ENDBRANCH   5   7
BRANCH   1  22
ATOM     21  C   UNL     1       0.399  13.003  18.881  0.00  0.00    +0.000 C 
ATOM     22  C   UNL     1      -0.358  11.663  18.784  0.00  0.00    +0.000 C 
BRANCH  22  23
ATOM     23  C   UNL     1      -1.861  11.857  19.104  0.00  0.00    +0.000 C 
BRANCH  23  24
ATOM     24  C   UNL     1      -2.749  11.548  17.945  0.00  0.00    +0.000 A 
ATOM     25  N   UNL     1      -2.361  11.162  16.745  0.00  0.00    +0.000 NA
ATOM     26  N   UNL     1      -3.477  11.030  15.954  0.00  0.00    +0.000 NA
ATOM     27  C   UNL     1      -4.523  11.324  16.689  0.00  0.00    +0.000 A 
ATOM     28  N   UNL     1      -4.118  11.640  17.949  0.00  0.00    +0.000 N 
ATOM     29  C   UNL     1      -4.972  11.997  19.048  0.00  0.00    +0.000 C 
ENDBRANCH  23  24
ENDBRANCH  22  23
ENDBRANCH   1  22
TORSDOF 6
ENDMDL
