MODEL 1
REMARK VINA RESULT:      -8.8      0.000      0.000
REMARK  Name = 
REMARK  7 active torsions:
REMARK  status: ('A' for Active; 'I' for Inactive)
REMARK    1  A    between atoms: C_1  and  C_2
REMARK    2  A    between atoms: C_2  and  S_3
REMARK    3  A    between atoms: C_2  and  C_10
REMARK    4  A    between atoms: S_3  and  C_4
REMARK    5  A    between atoms: N_8  and  C_9
REMARK    6  A    between atoms: C_14  and  N_15
REMARK    7  A    between atoms: C_22  and  C_23
REMARK                            x       y       z     vdW  Elec       q    Type
REMARK                         _______ _______ _______ _____ _____    ______ ____
ROOT
ATOM      1  C   UNL     1       4.571   5.051  17.976  0.00  0.00    +0.000 A 
ATOM      2  C   UNL     1       4.422   3.736  18.437  0.00  0.00    +0.000 A 
ATOM      3  C   UNL     1       3.539   3.437  19.470  0.00  0.00    +0.000 A 
ATOM      4  C   UNL     1       2.807   4.451  20.087  0.00  0.00    +0.000 A 
ATOM      5  C   UNL     1       2.965   5.778  19.689  0.00  0.00    +0.000 A 
ATOM      6  C   UNL     1       3.831   6.066  18.623  0.00  0.00    +0.000 A 
ENDROOT
BRANCH   5   7
ATOM      7  N   UNL     1       2.284   6.861  20.299  0.00  0.00    +0.000 N 
ATOM      8  C   UNL     1       1.841   8.006  19.679  0.00  0.00    +0.000 C 
ATOM      9  O   UNL     1       1.912   8.204  18.468  0.00  0.00    +0.000 OA
ATOM     10  N   UNL     1       1.269   8.960  20.508  0.00  0.00    +0.000 N 
ATOM     11  C   UNL     1       1.129   8.948  21.967  0.00  0.00    +0.000 C 
ATOM     12  C   UNL     1      -0.294   9.362  22.365  0.00  0.00    +0.000 C 
ATOM     13  O   UNL     1      -0.670  10.620  21.789  0.00  0.00    +0.000 OA
ATOM     14  C   UNL     1      -0.584  10.585  20.346  0.00  0.00    +0.000 C 
ATOM     15  C   UNL     1       0.851  10.237  19.911  0.00  0.00    +0.000 C 
ATOM     16  H   UNL     1       1.977   6.693  21.237  0.00  0.00    +0.000 HD
BRANCH  14  17
ATOM     17  C   UNL     1      -1.024  11.932  19.736  0.00  0.00    +0.000 C 
ATOM     18  C   UNL     1      -2.047  11.795  18.617  0.00  0.00    +0.000 C 
ATOM     19  C   UNL     1      -3.367  12.001  19.313  0.00  0.00    +0.000 C 
ATOM     20  C   UNL     1      -3.010  12.966  20.420  0.00  0.00    +0.000 C 
ATOM     21  O   UNL     1      -1.627  12.770  20.741  0.00  0.00    +0.000 OA
ENDBRANCH  14  17
ENDBRANCH   5   7
BRANCH   1  23
ATOM     22  C   UNL     1       5.071   6.655  15.998  0.00  0.00    +0.000 C 
ATOM     23  C   UNL     1       5.453   5.394  16.783  0.00  0.00    +0.000 C 
BRANCH  23  24
ATOM     24  S   UNL     1       5.785   3.986  15.666  0.00  0.00    +0.000 S 
BRANCH  24  25
ATOM     25  C   UNL     1       6.815   4.644  14.450  0.00  0.00    +0.000 A 
ATOM     26  N   UNL     1       7.800   5.497  14.602  0.00  0.00    +0.000 NA
ATOM     27  N   UNL     1       8.350   5.731  13.359  0.00  0.00    +0.000 NA
ATOM     28  C   UNL     1       7.686   5.003  12.488  0.00  0.00    +0.000 A 
ATOM     29  N   UNL     1       6.726   4.284  13.134  0.00  0.00    +0.000 N 
ATOM     30  C   UNL     1       5.824   3.343  12.525  0.00  0.00    +0.000 C 
ENDBRANCH  24  25
ENDBRANCH  23  24
ENDBRANCH   1  23
TORSDOF 5
ENDMDL
MODEL 2
REMARK VINA RESULT:      -8.6      1.223      1.611
REMARK  Name = 
REMARK  7 active torsions:
REMARK  status: ('A' for Active; 'I' for Inactive)
REMARK    1  A    between atoms: C_1  and  C_2
REMARK    2  A    between atoms: C_2  and  S_3
REMARK    3  A    between atoms: C_2  and  C_10
REMARK    4  A    between atoms: S_3  and  C_4
REMARK    5  A    between atoms: N_8  and  C_9
REMARK    6  A    between atoms: C_14  and  N_15
REMARK    7  A    between atoms: C_22  and  C_23
REMARK                            x       y       z     vdW  Elec       q    Type
REMARK                         _______ _______ _______ _____ _____    ______ ____
ROOT
ATOM      1  C   UNL     1       4.044   5.183  17.598  0.00  0.00    +0.000 A 
ATOM      2  C   UNL     1       3.385   3.946  17.615  0.00  0.00    +0.000 A 
ATOM      3  C   UNL     1       2.271   3.742  18.423  0.00  0.00    +0.000 A 
ATOM      4  C   UNL     1       1.808   4.760  19.256  0.00  0.00    +0.000 A 
ATOM      5  C   UNL     1       2.467   5.988  19.304  0.00  0.00    +0.000 A 
ATOM      6  C   UNL     1       3.568   6.197  18.458  0.00  0.00    +0.000 A 
ENDROOT
BRANCH   5   7
ATOM      7  N   UNL     1       2.076   7.050  20.155  0.00  0.00    +0.000 N 
ATOM      8  C   UNL     1       1.590   8.277  19.767  0.00  0.00    +0.000 C 
ATOM      9  O   UNL     1       1.354   8.586  18.602  0.00  0.00    +0.000 OA
ATOM     10  N   UNL     1       1.349   9.183  20.790  0.00  0.00    +0.000 N 
ATOM     11  C   UNL     1       1.603   9.040  22.227  0.00  0.00    +0.000 C 
ATOM     12  C   UNL     1       0.382   9.509  23.029  0.00  0.00    +0.000 C 
ATOM     13  O   UNL     1      -0.017  10.840  22.674  0.00  0.00    +0.000 OA
ATOM     14  C   UNL     1      -0.322  10.939  21.264  0.00  0.00    +0.000 C 
ATOM     15  C   UNL     1       0.906  10.538  20.428  0.00  0.00    +0.000 C 
ATOM     16  H   UNL     1       2.015   6.813  21.126  0.00  0.00    +0.000 HD
BRANCH  14  17
ATOM     17  C   UNL     1      -0.784  12.366  20.899  0.00  0.00    +0.000 C 
ATOM     18  C   UNL     1      -0.560  13.385  22.007  0.00  0.00    +0.000 C 
ATOM     19  C   UNL     1       0.756  14.023  21.644  0.00  0.00    +0.000 C 
ATOM     20  C   UNL     1       0.747  13.962  20.133  0.00  0.00    +0.000 C 
ATOM     21  O   UNL     1      -0.069  12.850  19.746  0.00  0.00    +0.000 OA
ENDBRANCH  14  17
ENDBRANCH   5   7
BRANCH   1  23
ATOM     22  C   UNL     1       5.038   6.679  15.725  0.00  0.00    +0.000 C 
ATOM     23  C   UNL     1       5.202   5.468  16.651  0.00  0.00    +0.000 C 
BRANCH  23  24
ATOM     24  S   UNL     1       5.802   4.004  15.737  0.00  0.00    +0.000 S 
BRANCH  24  25
ATOM     25  C   UNL     1       6.808   4.660  14.500  0.00  0.00    +0.000 A 
ATOM     26  N   UNL     1       7.801   5.507  14.632  0.00  0.00    +0.000 NA
ATOM     27  N   UNL     1       8.324   5.742  13.377  0.00  0.00    +0.000 NA
ATOM     28  C   UNL     1       7.636   5.020  12.520  0.00  0.00    +0.000 A 
ATOM     29  N   UNL     1       6.688   4.304  13.186  0.00  0.00    +0.000 N 
ATOM     30  C   UNL     1       5.768   3.370  12.595  0.00  0.00    +0.000 C 
ENDBRANCH  24  25
ENDBRANCH  23  24
ENDBRANCH   1  23
TORSDOF 5
ENDMDL
MODEL 3
REMARK VINA RESULT:      -8.6      1.032      1.160
REMARK  Name = 
REMARK  7 active torsions:
REMARK  status: ('A' for Active; 'I' for Inactive)
REMARK    1  A    between atoms: C_1  and  C_2
REMARK    2  A    between atoms: C_2  and  S_3
REMARK    3  A    between atoms: C_2  and  C_10
REMARK    4  A    between atoms: S_3  and  C_4
REMARK    5  A    between atoms: N_8  and  C_9
REMARK    6  A    between atoms: C_14  and  N_15
REMARK    7  A    between atoms: C_22  and  C_23
REMARK                            x       y       z     vdW  Elec       q    Type
REMARK                         _______ _______ _______ _____ _____    ______ ____
ROOT
ATOM      1  C   UNL     1       4.045   5.374  17.544  0.00  0.00    +0.000 A 
ATOM      2  C   UNL     1       3.354   4.156  17.471  0.00  0.00    +0.000 A 
ATOM      3  C   UNL     1       2.211   3.936  18.232  0.00  0.00    +0.000 A 
ATOM      4  C   UNL     1       1.747   4.918  19.107  0.00  0.00    +0.000 A 
ATOM      5  C   UNL     1       2.435   6.123  19.245  0.00  0.00    +0.000 A 
ATOM      6  C   UNL     1       3.567   6.350  18.446  0.00  0.00    +0.000 A 
ENDROOT
BRANCH   5   7
ATOM      7  N   UNL     1       2.044   7.146  20.143  0.00  0.00    +0.000 N 
ATOM      8  C   UNL     1       1.549   8.385  19.811  0.00  0.00    +0.000 C 
ATOM      9  O   UNL     1       1.303   8.743  18.661  0.00  0.00    +0.000 OA
ATOM     10  N   UNL     1       1.310   9.245  20.874  0.00  0.00    +0.000 N 
ATOM     11  C   UNL     1       1.575   9.043  22.301  0.00  0.00    +0.000 C 
ATOM     12  C   UNL     1       0.356   9.470  23.130  0.00  0.00    +0.000 C 
ATOM     13  O   UNL     1      -0.052  10.813  22.835  0.00  0.00    +0.000 OA
ATOM     14  C   UNL     1      -0.367  10.970  21.432  0.00  0.00    +0.000 C 
ATOM     15  C   UNL     1       0.858  10.612  20.572  0.00  0.00    +0.000 C 
ATOM     16  H   UNL     1       1.991   6.867  21.103  0.00  0.00    +0.000 HD
BRANCH  14  17
ATOM     17  C   UNL     1      -0.839  12.408  21.132  0.00  0.00    +0.000 C 
ATOM     18  C   UNL     1      -2.243  12.486  20.550  0.00  0.00    +0.000 C 
ATOM     19  C   UNL     1      -3.113  12.752  21.750  0.00  0.00    +0.000 C 
ATOM     20  C   UNL     1      -2.203  13.562  22.645  0.00  0.00    +0.000 C 
ATOM     21  O   UNL     1      -0.851  13.198  22.337  0.00  0.00    +0.000 OA
ENDBRANCH  14  17
ENDBRANCH   5   7
BRANCH   1  23
ATOM     22  C   UNL     1       5.002   6.696  15.527  0.00  0.00    +0.000 C 
ATOM     23  C   UNL     1       5.239   5.680  16.651  0.00  0.00    +0.000 C 
BRANCH  23  24
ATOM     24  S   UNL     1       6.118   4.199  16.038  0.00  0.00    +0.000 S 
BRANCH  24  25
ATOM     25  C   UNL     1       6.994   4.764  14.664  0.00  0.00    +0.000 A 
ATOM     26  N   UNL     1       8.036   5.561  14.644  0.00  0.00    +0.000 NA
ATOM     27  N   UNL     1       8.410   5.731  13.327  0.00  0.00    +0.000 NA
ATOM     28  C   UNL     1       7.586   5.023  12.586  0.00  0.00    +0.000 A 
ATOM     29  N   UNL     1       6.693   4.379  13.388  0.00  0.00    +0.000 N 
ATOM     30  C   UNL     1       5.661   3.479  12.948  0.00  0.00    +0.000 C 
ENDBRANCH  24  25
ENDBRANCH  23  24
ENDBRANCH   1  23
TORSDOF 5
ENDMDL
MODEL 4
REMARK VINA RESULT:      -8.1      2.657      3.407
REMARK  Name = 
REMARK  7 active torsions:
REMARK  status: ('A' for Active; 'I' for Inactive)
REMARK    1  A    between atoms: C_1  and  C_2
REMARK    2  A    between atoms: C_2  and  S_3
REMARK    3  A    between atoms: C_2  and  C_10
REMARK    4  A    between atoms: S_3  and  C_4
REMARK    5  A    between atoms: N_8  and  C_9
REMARK    6  A    between atoms: C_14  and  N_15
REMARK    7  A    between atoms: C_22  and  C_23
REMARK                            x       y       z     vdW  Elec       q    Type
REMARK                         _______ _______ _______ _____ _____    ______ ____
ROOT
ATOM      1  C   UNL     1       3.097   4.691  18.549  0.00  0.00    +0.000 A 
ATOM      2  C   UNL     1       2.761   3.445  19.097  0.00  0.00    +0.000 A 
ATOM      3  C   UNL     1       1.976   3.356  20.241  0.00  0.00    +0.000 A 
ATOM      4  C   UNL     1       1.533   4.512  20.884  0.00  0.00    +0.000 A 
ATOM      5  C   UNL     1       1.888   5.770  20.398  0.00  0.00    +0.000 A 
ATOM      6  C   UNL     1       2.651   5.850  19.222  0.00  0.00    +0.000 A 
ENDROOT
BRANCH   5   7
ATOM      7  N   UNL     1       1.508   6.983  21.024  0.00  0.00    +0.000 N 
ATOM      8  C   UNL     1       1.394   8.215  20.424  0.00  0.00    +0.000 C 
ATOM      9  O   UNL     1       1.535   8.410  19.219  0.00  0.00    +0.000 OA
ATOM     10  N   UNL     1       1.080   9.271  21.268  0.00  0.00    +0.000 N 
ATOM     11  C   UNL     1       0.917   9.271  22.724  0.00  0.00    +0.000 C 
ATOM     12  C   UNL     1      -0.352  10.039  23.115  0.00  0.00    +0.000 C 
ATOM     13  O   UNL     1      -0.372  11.362  22.563  0.00  0.00    +0.000 OA
ATOM     14  C   UNL     1      -0.273  11.332  21.121  0.00  0.00    +0.000 C 
ATOM     15  C   UNL     1       1.025  10.625  20.695  0.00  0.00    +0.000 C 
ATOM     16  H   UNL     1       1.151   6.885  21.954  0.00  0.00    +0.000 HD
BRANCH  14  17
ATOM     17  C   UNL     1      -0.331  12.759  20.535  0.00  0.00    +0.000 C 
ATOM     18  C   UNL     1      -0.258  13.857  21.586  0.00  0.00    +0.000 C 
ATOM     19  C   UNL     1       1.201  14.231  21.610  0.00  0.00    +0.000 C 
ATOM     20  C   UNL     1       1.628  13.989  20.180  0.00  0.00    +0.000 C 
ATOM     21  O   UNL     1       0.770  12.981  19.633  0.00  0.00    +0.000 OA
ENDBRANCH  14  17
ENDBRANCH   5   7
BRANCH   1  23
ATOM     22  C   UNL     1       4.610   3.562  16.769  0.00  0.00    +0.000 C 
ATOM     23  C   UNL     1       3.870   4.818  17.243  0.00  0.00    +0.000 C 
BRANCH  23  24
ATOM     24  S   UNL     1       4.936   6.300  17.143  0.00  0.00    +0.000 S 
BRANCH  24  25
ATOM     25  C   UNL     1       6.195   5.993  18.280  0.00  0.00    +0.000 A 
ATOM     26  N   UNL     1       6.236   5.065  19.208  0.00  0.00    +0.000 NA
ATOM     27  N   UNL     1       7.439   5.188  19.872  0.00  0.00    +0.000 NA
ATOM     28  C   UNL     1       8.097   6.183  19.320  0.00  0.00    +0.000 A 
ATOM     29  N   UNL     1       7.362   6.703  18.298  0.00  0.00    +0.000 N 
ATOM     30  C   UNL     1       7.766   7.778  17.431  0.00  0.00    +0.000 C 
ENDBRANCH  24  25
ENDBRANCH  23  24
ENDBRANCH   1  23
TORSDOF 5
ENDMDL
MODEL 5
REMARK VINA RESULT:      -8.1      1.921      2.781
REMARK  Name = 
REMARK  7 active torsions:
REMARK  status: ('A' for Active; 'I' for Inactive)
REMARK    1  A    between atoms: C_1  and  C_2
REMARK    2  A    between atoms: C_2  and  S_3
REMARK    3  A    between atoms: C_2  and  C_10
REMARK    4  A    between atoms: S_3  and  C_4
REMARK    5  A    between atoms: N_8  and  C_9
REMARK    6  A    between atoms: C_14  and  N_15
REMARK    7  A    between atoms: C_22  and  C_23
REMARK                            x       y       z     vdW  Elec       q    Type
REMARK                         _______ _______ _______ _____ _____    ______ ____
ROOT
ATOM      1  C   UNL     1       3.820   4.796  17.674  0.00  0.00    +0.000 A 
ATOM      2  C   UNL     1       3.135   3.576  17.761  0.00  0.00    +0.000 A 
ATOM      3  C   UNL     1       2.051   3.426  18.620  0.00  0.00    +0.000 A 
ATOM      4  C   UNL     1       1.645   4.483  19.434  0.00  0.00    +0.000 A 
ATOM      5  C   UNL     1       2.332   5.696  19.412  0.00  0.00    +0.000 A 
ATOM      6  C   UNL     1       3.402   5.850  18.516  0.00  0.00    +0.000 A 
ENDROOT
BRANCH   5   7
ATOM      7  N   UNL     1       1.999   6.795  20.241  0.00  0.00    +0.000 N 
ATOM      8  C   UNL     1       1.542   8.025  19.828  0.00  0.00    +0.000 C 
ATOM      9  O   UNL     1       1.282   8.306  18.661  0.00  0.00    +0.000 OA
ATOM     10  N   UNL     1       1.359   8.969  20.829  0.00  0.00    +0.000 N 
ATOM     11  C   UNL     1       1.650   8.861  22.261  0.00  0.00    +0.000 C 
ATOM     12  C   UNL     1       0.468   9.394  23.082  0.00  0.00    +0.000 C 
ATOM     13  O   UNL     1       0.100  10.725  22.697  0.00  0.00    +0.000 OA
ATOM     14  C   UNL     1      -0.241  10.791  21.293  0.00  0.00    +0.000 C 
ATOM     15  C   UNL     1       0.949  10.325  20.437  0.00  0.00    +0.000 C 
ATOM     16  H   UNL     1       1.959   6.590  21.220  0.00  0.00    +0.000 HD
BRANCH  14  17
ATOM     17  C   UNL     1      -0.668  12.221  20.898  0.00  0.00    +0.000 C 
ATOM     18  C   UNL     1      -0.630  12.481  19.399  0.00  0.00    +0.000 C 
ATOM     19  C   UNL     1      -2.050  12.239  18.958  0.00  0.00    +0.000 C 
ATOM     20  C   UNL     1      -2.849  12.662  20.169  0.00  0.00    +0.000 C 
ATOM     21  O   UNL     1      -2.020  12.481  21.324  0.00  0.00    +0.000 OA
ENDBRANCH  14  17
ENDBRANCH   5   7
BRANCH   1  23
ATOM     22  C   UNL     1       4.756   4.392  15.287  0.00  0.00    +0.000 C 
ATOM     23  C   UNL     1       4.945   5.021  16.672  0.00  0.00    +0.000 C 
BRANCH  23  24
ATOM     24  S   UNL     1       6.616   4.689  17.334  0.00  0.00    +0.000 S 
BRANCH  24  25
ATOM     25  C   UNL     1       7.293   6.255  17.581  0.00  0.00    +0.000 A 
ATOM     26  N   UNL     1       7.224   7.298  16.787  0.00  0.00    +0.000 NA
ATOM     27  N   UNL     1       7.900   8.335  17.396  0.00  0.00    +0.000 NA
ATOM     28  C   UNL     1       8.353   7.892  18.549  0.00  0.00    +0.000 A 
ATOM     29  N   UNL     1       7.973   6.595  18.717  0.00  0.00    +0.000 N 
ATOM     30  C   UNL     1       8.244   5.780  19.871  0.00  0.00    +0.000 C 
ENDBRANCH  24  25
ENDBRANCH  23  24
ENDBRANCH   1  23
TORSDOF 5
ENDMDL
MODEL 6
REMARK VINA RESULT:      -8.1      1.372      1.944
REMARK  Name = 
REMARK  7 active torsions:
REMARK  status: ('A' for Active; 'I' for Inactive)
REMARK    1  A    between atoms: C_1  and  C_2
REMARK    2  A    between atoms: C_2  and  S_3
REMARK    3  A    between atoms: C_2  and  C_10
REMARK    4  A    between atoms: S_3  and  C_4
REMARK    5  A    between atoms: N_8  and  C_9
REMARK    6  A    between atoms: C_14  and  N_15
REMARK    7  A    between atoms: C_22  and  C_23
REMARK                            x       y       z     vdW  Elec       q    Type
REMARK                         _______ _______ _______ _____ _____    ______ ____
ROOT
ATOM      1  C   UNL     1       5.422   4.925  18.842  0.00  0.00    +0.000 A 
ATOM      2  C   UNL     1       4.801   3.770  18.345  0.00  0.00    +0.000 A 
ATOM      3  C   UNL     1       3.418   3.629  18.386  0.00  0.00    +0.000 A 
ATOM      4  C   UNL     1       2.625   4.626  18.953  0.00  0.00    +0.000 A 
ATOM      5  C   UNL     1       3.209   5.767  19.503  0.00  0.00    +0.000 A 
ATOM      6  C   UNL     1       4.603   5.917  19.425  0.00  0.00    +0.000 A 
ENDROOT
BRANCH   5   7
ATOM      7  N   UNL     1       2.467   6.797  20.130  0.00  0.00    +0.000 N 
ATOM      8  C   UNL     1       1.960   7.926  19.529  0.00  0.00    +0.000 C 
ATOM      9  O   UNL     1       2.021   8.149  18.322  0.00  0.00    +0.000 OA
ATOM     10  N   UNL     1       1.333   8.831  20.374  0.00  0.00    +0.000 N 
ATOM     11  C   UNL     1       1.193   8.786  21.832  0.00  0.00    +0.000 C 
ATOM     12  C   UNL     1      -0.252   9.111  22.235  0.00  0.00    +0.000 C 
ATOM     13  O   UNL     1      -0.699  10.356  21.680  0.00  0.00    +0.000 OA
ATOM     14  C   UNL     1      -0.609  10.351  20.237  0.00  0.00    +0.000 C 
ATOM     15  C   UNL     1       0.844  10.093  19.799  0.00  0.00    +0.000 C 
ATOM     16  H   UNL     1       2.169   6.596  21.064  0.00  0.00    +0.000 HD
BRANCH  14  17
ATOM     17  C   UNL     1      -1.125  11.681  19.649  0.00  0.00    +0.000 C 
ATOM     18  C   UNL     1      -0.996  11.775  18.136  0.00  0.00    +0.000 C 
ATOM     19  C   UNL     1      -2.354  11.354  17.636  0.00  0.00    +0.000 C 
ATOM     20  C   UNL     1      -3.275  11.834  18.734  0.00  0.00    +0.000 C 
ATOM     21  O   UNL     1      -2.522  11.861  19.954  0.00  0.00    +0.000 OA
ENDBRANCH  14  17
ENDBRANCH   5   7
BRANCH   1  23
ATOM     22  C   UNL     1       7.660   5.521  20.013  0.00  0.00    +0.000 C 
ATOM     23  C   UNL     1       6.923   5.151  18.720  0.00  0.00    +0.000 C 
BRANCH  23  24
ATOM     24  S   UNL     1       7.408   6.246  17.339  0.00  0.00    +0.000 S 
BRANCH  24  25
ATOM     25  C   UNL     1       6.821   5.438  15.933  0.00  0.00    +0.000 A 
ATOM     26  N   UNL     1       7.371   4.434  15.292  0.00  0.00    +0.000 NA
ATOM     27  N   UNL     1       6.546   4.108  14.235  0.00  0.00    +0.000 NA
ATOM     28  C   UNL     1       5.513   4.921  14.273  0.00  0.00    +0.000 A 
ATOM     29  N   UNL     1       5.633   5.759  15.340  0.00  0.00    +0.000 N 
ATOM     30  C   UNL     1       4.681   6.762  15.735  0.00  0.00    +0.000 C 
ENDBRANCH  24  25
ENDBRANCH  23  24
ENDBRANCH   1  23
TORSDOF 5
ENDMDL
MODEL 7
REMARK VINA RESULT:      -8.0      1.208      1.648
REMARK  Name = 
REMARK  7 active torsions:
REMARK  status: ('A' for Active; 'I' for Inactive)
REMARK    1  A    between atoms: C_1  and  C_2
REMARK    2  A    between atoms: C_2  and  S_3
REMARK    3  A    between atoms: C_2  and  C_10
REMARK    4  A    between atoms: S_3  and  C_4
REMARK    5  A    between atoms: N_8  and  C_9
REMARK    6  A    between atoms: C_14  and  N_15
REMARK    7  A    between atoms: C_22  and  C_23
REMARK                            x       y       z     vdW  Elec       q    Type
REMARK                         _______ _______ _______ _____ _____    ______ ____
ROOT
ATOM      1  C   UNL     1       4.933   4.487  17.388  0.00  0.00    +0.000 A 
ATOM      2  C   UNL     1       4.171   3.378  16.995  0.00  0.00    +0.000 A 
ATOM      3  C   UNL     1       2.813   3.305  17.286  0.00  0.00    +0.000 A 
ATOM      4  C   UNL     1       2.190   4.325  18.004  0.00  0.00    +0.000 A 
ATOM      5  C   UNL     1       2.925   5.421  18.456  0.00  0.00    +0.000 A 
ATOM      6  C   UNL     1       4.287   5.503  18.126  0.00  0.00    +0.000 A 
ENDROOT
BRANCH   5   7
ATOM      7  N   UNL     1       2.365   6.471  19.224  0.00  0.00    +0.000 N 
ATOM      8  C   UNL     1       1.948   7.697  18.759  0.00  0.00    +0.000 C 
ATOM      9  O   UNL     1       1.936   8.014  17.572  0.00  0.00    +0.000 OA
ATOM     10  N   UNL     1       1.506   8.591  19.723  0.00  0.00    +0.000 N 
ATOM     11  C   UNL     1       1.481   8.437  21.180  0.00  0.00    +0.000 C 
ATOM     12  C   UNL     1       0.124   8.887  21.737  0.00  0.00    +0.000 C 
ATOM     13  O   UNL     1      -0.216  10.217  21.321  0.00  0.00    +0.000 OA
ATOM     14  C   UNL     1      -0.245  10.325  19.879  0.00  0.00    +0.000 C 
ATOM     15  C   UNL     1       1.125   9.944  19.292  0.00  0.00    +0.000 C 
ATOM     16  H   UNL     1       2.122   6.225  20.164  0.00  0.00    +0.000 HD
BRANCH  14  17
ATOM     17  C   UNL     1      -0.645  11.751  19.443  0.00  0.00    +0.000 C 
ATOM     18  C   UNL     1      -1.574  11.787  18.238  0.00  0.00    +0.000 C 
ATOM     19  C   UNL     1      -2.947  11.893  18.848  0.00  0.00    +0.000 C 
ATOM     20  C   UNL     1      -2.688  12.680  20.112  0.00  0.00    +0.000 C 
ATOM     21  O   UNL     1      -1.333  12.432  20.511  0.00  0.00    +0.000 OA
ENDBRANCH  14  17
ENDBRANCH   5   7
BRANCH   1  23
ATOM     22  C   UNL     1       7.379   4.908  18.144  0.00  0.00    +0.000 C 
ATOM     23  C   UNL     1       6.396   4.642  16.997  0.00  0.00    +0.000 C 
BRANCH  23  24
ATOM     24  S   UNL     1       6.683   5.779  15.595  0.00  0.00    +0.000 S 
BRANCH  24  25
ATOM     25  C   UNL     1       6.531   4.777  14.200  0.00  0.00    +0.000 A 
ATOM     26  N   UNL     1       5.627   3.855  13.964  0.00  0.00    +0.000 NA
ATOM     27  N   UNL     1       5.889   3.320  12.719  0.00  0.00    +0.000 NA
ATOM     28  C   UNL     1       6.941   3.941  12.233  0.00  0.00    +0.000 A 
ATOM     29  N   UNL     1       7.363   4.883  13.122  0.00  0.00    +0.000 N 
ATOM     30  C   UNL     1       8.461   5.792  12.928  0.00  0.00    +0.000 C 
ENDBRANCH  24  25
ENDBRANCH  23  24
ENDBRANCH   1  23
TORSDOF 5
ENDMDL
MODEL 8
REMARK VINA RESULT:      -8.0      2.441      3.039
REMARK  Name = 
REMARK  7 active torsions:
REMARK  status: ('A' for Active; 'I' for Inactive)
REMARK    1  A    between atoms: C_1  and  C_2
REMARK    2  A    between atoms: C_2  and  S_3
REMARK    3  A    between atoms: C_2  and  C_10
REMARK    4  A    between atoms: S_3  and  C_4
REMARK    5  A    between atoms: N_8  and  C_9
REMARK    6  A    between atoms: C_14  and  N_15
REMARK    7  A    between atoms: C_22  and  C_23
REMARK                            x       y       z     vdW  Elec       q    Type
REMARK                         _______ _______ _______ _____ _____    ______ ____
ROOT
ATOM      1  C   UNL     1       3.093   4.640  18.291  0.00  0.00    +0.000 A 
ATOM      2  C   UNL     1       2.547   3.394  18.632  0.00  0.00    +0.000 A 
ATOM      3  C   UNL     1       1.634   3.276  19.675  0.00  0.00    +0.000 A 
ATOM      4  C   UNL     1       1.268   4.395  20.421  0.00  0.00    +0.000 A 
ATOM      5  C   UNL     1       1.828   5.642  20.145  0.00  0.00    +0.000 A 
ATOM      6  C   UNL     1       2.720   5.759  19.068  0.00  0.00    +0.000 A 
ENDROOT
BRANCH   5   7
ATOM      7  N   UNL     1       1.532   6.811  20.889  0.00  0.00    +0.000 N 
ATOM      8  C   UNL     1       1.297   8.069  20.383  0.00  0.00    +0.000 C 
ATOM      9  O   UNL     1       1.235   8.327  19.184  0.00  0.00    +0.000 OA
ATOM     10  N   UNL     1       1.107   9.072  21.323  0.00  0.00    +0.000 N 
ATOM     11  C   UNL     1       1.186   8.994  22.784  0.00  0.00    +0.000 C 
ATOM     12  C   UNL     1      -0.016   9.706  23.418  0.00  0.00    +0.000 C 
ATOM     13  O   UNL     1      -0.152  11.054  22.949  0.00  0.00    +0.000 OA
ATOM     14  C   UNL     1      -0.292  11.099  21.510  0.00  0.00    +0.000 C 
ATOM     15  C   UNL     1       0.932  10.450  20.840  0.00  0.00    +0.000 C 
ATOM     16  H   UNL     1       1.335   6.657  21.859  0.00  0.00    +0.000 HD
BRANCH  14  17
ATOM     17  C   UNL     1      -0.473  12.551  21.020  0.00  0.00    +0.000 C 
ATOM     18  C   UNL     1      -0.737  12.667  19.526  0.00  0.00    +0.000 C 
ATOM     19  C   UNL     1      -2.239  12.748  19.435  0.00  0.00    +0.000 C 
ATOM     20  C   UNL     1      -2.610  13.457  20.718  0.00  0.00    +0.000 C 
ATOM     21  O   UNL     1      -1.590  13.173  21.684  0.00  0.00    +0.000 OA
ENDBRANCH  14  17
ENDBRANCH   5   7
BRANCH   1  23
ATOM     22  C   UNL     1       4.878   3.606  16.717  0.00  0.00    +0.000 C 
ATOM     23  C   UNL     1       4.016   4.817  17.093  0.00  0.00    +0.000 C 
BRANCH  23  24
ATOM     24  S   UNL     1       5.003   6.355  17.127  0.00  0.00    +0.000 S 
BRANCH  24  25
ATOM     25  C   UNL     1       6.259   6.027  18.262  0.00  0.00    +0.000 A 
ATOM     26  N   UNL     1       6.299   5.081  19.170  0.00  0.00    +0.000 NA
ATOM     27  N   UNL     1       7.500   5.191  19.840  0.00  0.00    +0.000 NA
ATOM     28  C   UNL     1       8.158   6.199  19.311  0.00  0.00    +0.000 A 
ATOM     29  N   UNL     1       7.425   6.738  18.297  0.00  0.00    +0.000 N 
ATOM     30  C   UNL     1       7.830   7.830  17.453  0.00  0.00    +0.000 C 
ENDBRANCH  24  25
ENDBRANCH  23  24
ENDBRANCH   1  23
TORSDOF 5
ENDMDL
MODEL 9
REMARK VINA RESULT:      -8.0      4.055      9.551
REMARK  Name = 
REMARK  7 active torsions:
REMARK  status: ('A' for Active; 'I' for Inactive)
REMARK    1  A    between atoms: C_1  and  C_2
REMARK    2  A    between atoms: C_2  and  S_3
REMARK    3  A    between atoms: C_2  and  C_10
REMARK    4  A    between atoms: S_3  and  C_4
REMARK    5  A    between atoms: N_8  and  C_9
REMARK    6  A    between atoms: C_14  and  N_15
REMARK    7  A    between atoms: C_22  and  C_23
REMARK                            x       y       z     vdW  Elec       q    Type
REMARK                         _______ _______ _______ _____ _____    ______ ____
ROOT
ATOM      1  C   UNL     1      -0.695  11.166  20.782  0.00  0.00    +0.000 A 
ATOM      2  C   UNL     1      -1.075  11.412  22.109  0.00  0.00    +0.000 A 
ATOM      3  C   UNL     1      -0.782  10.498  23.116  0.00  0.00    +0.000 A 
ATOM      4  C   UNL     1      -0.130   9.302  22.815  0.00  0.00    +0.000 A 
ATOM      5  C   UNL     1       0.219   9.000  21.499  0.00  0.00    +0.000 A 
ATOM      6  C   UNL     1      -0.049   9.944  20.495  0.00  0.00    +0.000 A 
ENDROOT
BRANCH   5   7
ATOM      7  N   UNL     1       0.845   7.788  21.118  0.00  0.00    +0.000 N 
ATOM      8  C   UNL     1       1.746   7.617  20.093  0.00  0.00    +0.000 C 
ATOM      9  O   UNL     1       2.194   8.535  19.410  0.00  0.00    +0.000 OA
ATOM     10  N   UNL     1       2.161   6.312  19.865  0.00  0.00    +0.000 N 
ATOM     11  C   UNL     1       1.723   5.077  20.521  0.00  0.00    +0.000 C 
ATOM     12  C   UNL     1       2.937   4.218  20.896  0.00  0.00    +0.000 C 
ATOM     13  O   UNL     1       3.788   3.966  19.769  0.00  0.00    +0.000 OA
ATOM     14  C   UNL     1       4.257   5.200  19.179  0.00  0.00    +0.000 C 
ATOM     15  C   UNL     1       3.062   6.059  18.730  0.00  0.00    +0.000 C 
ATOM     16  H   UNL     1       0.720   7.028  21.757  0.00  0.00    +0.000 HD
BRANCH  14  17
ATOM     17  C   UNL     1       5.199   4.918  17.989  0.00  0.00    +0.000 C 
ATOM     18  C   UNL     1       5.614   6.166  17.224  0.00  0.00    +0.000 C 
ATOM     19  C   UNL     1       6.946   6.528  17.828  0.00  0.00    +0.000 C 
ATOM     20  C   UNL     1       7.516   5.179  18.206  0.00  0.00    +0.000 C 
ATOM     21  O   UNL     1       6.415   4.293  18.445  0.00  0.00    +0.000 OA
ENDBRANCH  14  17
ENDBRANCH   5   7
BRANCH   1  23
ATOM     22  C   UNL     1      -1.888  11.790  18.563  0.00  0.00    +0.000 C 
ATOM     23  C   UNL     1      -0.913  12.191  19.677  0.00  0.00    +0.000 C 
BRANCH  23  24
ATOM     24  S   UNL     1       0.628  12.896  18.993  0.00  0.00    +0.000 S 
BRANCH  24  25
ATOM     25  C   UNL     1       1.325  13.754  20.316  0.00  0.00    +0.000 A 
ATOM     26  N   UNL     1       2.233  13.330  21.164  0.00  0.00    +0.000 NA
ATOM     27  N   UNL     1       2.498  14.358  22.045  0.00  0.00    +0.000 NA
ATOM     28  C   UNL     1       1.747  15.380  21.699  0.00  0.00    +0.000 A 
ATOM     29  N   UNL     1       1.012  15.053  20.600  0.00  0.00    +0.000 N 
ATOM     30  C   UNL     1       0.103  15.924  19.904  0.00  0.00    +0.000 C 
ENDBRANCH  24  25
ENDBRANCH  23  24
ENDBRANCH   1  23
TORSDOF 5
ENDMDL
