MODEL 1
REMARK VINA RESULT:      -8.4      0.000      0.000
REMARK  Name = 
REMARK  9 active torsions:
REMARK  status: ('A' for Active; 'I' for Inactive)
REMARK    1  A    between atoms: C_1  and  C_2
REMARK    2  A    between atoms: C_4  and  C_5
REMARK    3  A    between atoms: C_7  and  C_8
REMARK    4  A    between atoms: N_10  and  C_11
REMARK    5  A    between atoms: C_15  and  C_16
REMARK    6  A    between atoms: C_16  and  C_17
REMARK    7  A    between atoms: C_16  and  S_18
REMARK    8  A    between atoms: S_18  and  C_19
REMARK    9  A    between atoms: N_23  and  C_24
REMARK                            x       y       z     vdW  Elec       q    Type
REMARK                         _______ _______ _______ _____ _____    ______ ____
ROOT
ATOM      1  C   UNL     1       7.811   8.021  17.952  0.00  0.00    +0.000 A 
ATOM      2  C   UNL     1       8.359   7.209  18.949  0.00  0.00    +0.000 A 
ATOM      3  C   UNL     1       7.923   5.899  19.127  0.00  0.00    +0.000 A 
ATOM      4  C   UNL     1       6.936   5.375  18.302  0.00  0.00    +0.000 A 
ATOM      5  C   UNL     1       6.357   6.157  17.286  0.00  0.00    +0.000 A 
ATOM      6  C   UNL     1       6.790   7.495  17.140  0.00  0.00    +0.000 A 
ENDROOT
BRANCH   1   9
ATOM      7  C   UNL     1       9.031  10.099  18.608  0.00  0.00    +0.000 C 
ATOM      8  O   UNL     1       9.495   9.722  19.680  0.00  0.00    +0.000 OA
ATOM      9  N   UNL     1       8.253   9.345  17.737  0.00  0.00    +0.000 N 
ATOM     10  H   UNL     1       8.066   9.784  16.838  0.00  0.00    +0.000 HD
BRANCH   7  17
ATOM     11  C   UNL     1      12.325  13.396  16.802  0.00  0.00    +0.000 C 
ATOM     12  C   UNL     1      10.942  13.061  17.279  0.00  0.00    +0.000 A 
ATOM     13  C   UNL     1       9.925  14.015  17.302  0.00  0.00    +0.000 A 
ATOM     14  C   UNL     1       8.649  13.650  17.740  0.00  0.00    +0.000 A 
ATOM     15  C   UNL     1       7.544  14.663  17.778  0.00  0.00    +0.000 C 
ATOM     16  N   UNL     1       8.339  12.394  18.154  0.00  0.00    +0.000 NA
ATOM     17  C   UNL     1       9.351  11.486  18.139  0.00  0.00    +0.000 A 
ATOM     18  C   UNL     1      10.647  11.771  17.714  0.00  0.00    +0.000 A 
ENDBRANCH   7  17
ENDBRANCH   1   9
BRANCH   5  19
ATOM     19  C   UNL     1       5.294   5.563  16.362  0.00  0.00    +0.000 C 
ATOM     20  C   UNL     1       4.000   5.285  17.139  0.00  0.00    +0.000 C 
BRANCH  19  21
ATOM     21  S   UNL     1       5.929   4.019  15.573  0.00  0.00    +0.000 S 
BRANCH  21  22
ATOM     22  C   UNL     1       6.895   4.648  14.290  0.00  0.00    +0.000 A 
ATOM     23  N   UNL     1       7.854   5.539  14.389  0.00  0.00    +0.000 NA
ATOM     24  N   UNL     1       8.330   5.784  13.119  0.00  0.00    +0.000 NA
ATOM     25  C   UNL     1       7.651   5.031  12.287  0.00  0.00    +0.000 A 
ATOM     26  N   UNL     1       6.740   4.288  12.980  0.00  0.00    +0.000 N 
ATOM     27  C   UNL     1       5.809   3.353  12.410  0.00  0.00    +0.000 C 
ENDBRANCH  21  22
ENDBRANCH  19  21
ENDBRANCH   5  19
TORSDOF 5
ENDMDL
MODEL 2
REMARK VINA RESULT:      -8.4      3.706      4.940
REMARK  Name = 
REMARK  9 active torsions:
REMARK  status: ('A' for Active; 'I' for Inactive)
REMARK    1  A    between atoms: C_1  and  C_2
REMARK    2  A    between atoms: C_4  and  C_5
REMARK    3  A    between atoms: C_7  and  C_8
REMARK    4  A    between atoms: N_10  and  C_11
REMARK    5  A    between atoms: C_15  and  C_16
REMARK    6  A    between atoms: C_16  and  C_17
REMARK    7  A    between atoms: C_16  and  S_18
REMARK    8  A    between atoms: S_18  and  C_19
REMARK    9  A    between atoms: N_23  and  C_24
REMARK                            x       y       z     vdW  Elec       q    Type
REMARK                         _______ _______ _______ _____ _____    ______ ____
ROOT
ATOM      1  C   UNL     1       6.407   6.859  17.053  0.00  0.00    +0.000 A 
ATOM      2  C   UNL     1       7.018   5.825  16.336  0.00  0.00    +0.000 A 
ATOM      3  C   UNL     1       6.342   4.636  16.080  0.00  0.00    +0.000 A 
ATOM      4  C   UNL     1       5.038   4.464  16.528  0.00  0.00    +0.000 A 
ATOM      5  C   UNL     1       4.387   5.479  17.252  0.00  0.00    +0.000 A 
ATOM      6  C   UNL     1       5.099   6.668  17.531  0.00  0.00    +0.000 A 
ENDROOT
BRANCH   1   9
ATOM      7  C   UNL     1       8.072   8.293  18.241  0.00  0.00    +0.000 C 
ATOM      8  O   UNL     1       8.582   7.441  18.963  0.00  0.00    +0.000 OA
ATOM      9  N   UNL     1       7.064   8.084  17.307  0.00  0.00    +0.000 N 
ATOM     10  H   UNL     1       6.857   8.883  16.711  0.00  0.00    +0.000 HD
BRANCH   7  17
ATOM     11  C   UNL     1      11.474  11.559  19.898  0.00  0.00    +0.000 C 
ATOM     12  C   UNL     1      10.226  11.256  19.121  0.00  0.00    +0.000 A 
ATOM     13  C   UNL     1       9.518  12.255  18.453  0.00  0.00    +0.000 A 
ATOM     14  C   UNL     1       8.371  11.920  17.730  0.00  0.00    +0.000 A 
ATOM     15  C   UNL     1       7.593  12.981  17.010  0.00  0.00    +0.000 C 
ATOM     16  N   UNL     1       7.896  10.651  17.641  0.00  0.00    +0.000 NA
ATOM     17  C   UNL     1       8.592   9.697  18.315  0.00  0.00    +0.000 A 
ATOM     18  C   UNL     1       9.745   9.951  19.054  0.00  0.00    +0.000 A 
ENDBRANCH   7  17
ENDBRANCH   1   9
BRANCH   5  19
ATOM     19  C   UNL     1       2.941   5.294  17.714  0.00  0.00    +0.000 C 
ATOM     20  C   UNL     1       2.751   5.859  19.127  0.00  0.00    +0.000 C 
BRANCH  19  21
ATOM     21  S   UNL     1       2.479   3.507  17.654  0.00  0.00    +0.000 S 
BRANCH  21  22
ATOM     22  C   UNL     1       2.139   3.173  19.312  0.00  0.00    +0.000 A 
ATOM     23  N   UNL     1       0.986   3.310  19.924  0.00  0.00    +0.000 NA
ATOM     24  N   UNL     1       1.171   2.973  21.247  0.00  0.00    +0.000 NA
ATOM     25  C   UNL     1       2.430   2.637  21.400  0.00  0.00    +0.000 A 
ATOM     26  N   UNL     1       3.081   2.737  20.204  0.00  0.00    +0.000 N 
ATOM     27  C   UNL     1       4.472   2.461  19.978  0.00  0.00    +0.000 C 
ENDBRANCH  21  22
ENDBRANCH  19  21
ENDBRANCH   5  19
TORSDOF 5
ENDMDL
MODEL 3
REMARK VINA RESULT:      -8.4      4.657      7.151
REMARK  Name = 
REMARK  9 active torsions:
REMARK  status: ('A' for Active; 'I' for Inactive)
REMARK    1  A    between atoms: C_1  and  C_2
REMARK    2  A    between atoms: C_4  and  C_5
REMARK    3  A    between atoms: C_7  and  C_8
REMARK    4  A    between atoms: N_10  and  C_11
REMARK    5  A    between atoms: C_15  and  C_16
REMARK    6  A    between atoms: C_16  and  C_17
REMARK    7  A    between atoms: C_16  and  S_18
REMARK    8  A    between atoms: S_18  and  C_19
REMARK    9  A    between atoms: N_23  and  C_24
REMARK                            x       y       z     vdW  Elec       q    Type
REMARK                         _______ _______ _______ _____ _____    ______ ____
ROOT
ATOM      1  C   UNL     1       2.613   5.879  18.243  0.00  0.00    +0.000 A 
ATOM      2  C   UNL     1       1.969   4.639  18.306  0.00  0.00    +0.000 A 
ATOM      3  C   UNL     1       2.469   3.537  17.620  0.00  0.00    +0.000 A 
ATOM      4  C   UNL     1       3.631   3.653  16.866  0.00  0.00    +0.000 A 
ATOM      5  C   UNL     1       4.311   4.880  16.776  0.00  0.00    +0.000 A 
ATOM      6  C   UNL     1       3.771   5.998  17.454  0.00  0.00    +0.000 A 
ENDROOT
BRANCH   1   9
ATOM      7  C   UNL     1       1.941   8.278  18.421  0.00  0.00    +0.000 C 
ATOM      8  O   UNL     1       2.105   8.613  17.251  0.00  0.00    +0.000 OA
ATOM      9  N   UNL     1       2.138   7.007  18.948  0.00  0.00    +0.000 N 
ATOM     10  H   UNL     1       1.828   6.888  19.910  0.00  0.00    +0.000 HD
BRANCH   7  17
ATOM     11  C   UNL     1       0.184   9.430  22.956  0.00  0.00    +0.000 C 
ATOM     12  C   UNL     1       0.587   9.840  21.569  0.00  0.00    +0.000 A 
ATOM     13  C   UNL     1       0.504  11.167  21.146  0.00  0.00    +0.000 A 
ATOM     14  C   UNL     1       0.905  11.501  19.850  0.00  0.00    +0.000 A 
ATOM     15  C   UNL     1       0.817  12.920  19.374  0.00  0.00    +0.000 C 
ATOM     16  N   UNL     1       1.380  10.590  18.963  0.00  0.00    +0.000 NA
ATOM     17  C   UNL     1       1.435   9.300  19.392  0.00  0.00    +0.000 A 
ATOM     18  C   UNL     1       1.056   8.888  20.668  0.00  0.00    +0.000 A 
ENDBRANCH   7  17
ENDBRANCH   1   9
BRANCH   5  19
ATOM     19  C   UNL     1       5.605   4.992  15.970  0.00  0.00    +0.000 C 
ATOM     20  C   UNL     1       5.587   4.018  14.785  0.00  0.00    +0.000 C 
BRANCH  19  21
ATOM     21  S   UNL     1       7.061   4.670  17.060  0.00  0.00    +0.000 S 
BRANCH  21  22
ATOM     22  C   UNL     1       7.520   6.268  17.520  0.00  0.00    +0.000 A 
ATOM     23  N   UNL     1       7.475   7.347  16.774  0.00  0.00    +0.000 NA
ATOM     24  N   UNL     1       7.971   8.393  17.520  0.00  0.00    +0.000 NA
ATOM     25  C   UNL     1       8.300   7.921  18.699  0.00  0.00    +0.000 A 
ATOM     26  N   UNL     1       8.024   6.585  18.751  0.00  0.00    +0.000 N 
ATOM     27  C   UNL     1       8.257   5.722  19.876  0.00  0.00    +0.000 C 
ENDBRANCH  21  22
ENDBRANCH  19  21
ENDBRANCH   5  19
TORSDOF 5
ENDMDL
MODEL 4
REMARK VINA RESULT:      -8.2      5.308      6.924
REMARK  Name = 
REMARK  9 active torsions:
REMARK  status: ('A' for Active; 'I' for Inactive)
REMARK    1  A    between atoms: C_1  and  C_2
REMARK    2  A    between atoms: C_4  and  C_5
REMARK    3  A    between atoms: C_7  and  C_8
REMARK    4  A    between atoms: N_10  and  C_11
REMARK    5  A    between atoms: C_15  and  C_16
REMARK    6  A    between atoms: C_16  and  C_17
REMARK    7  A    between atoms: C_16  and  S_18
REMARK    8  A    between atoms: S_18  and  C_19
REMARK    9  A    between atoms: N_23  and  C_24
REMARK                            x       y       z     vdW  Elec       q    Type
REMARK                         _______ _______ _______ _____ _____    ______ ____
ROOT
ATOM      1  C   UNL     1       3.030   5.946  19.470  0.00  0.00    +0.000 A 
ATOM      2  C   UNL     1       3.080   4.679  20.059  0.00  0.00    +0.000 A 
ATOM      3  C   UNL     1       3.926   3.692  19.563  0.00  0.00    +0.000 A 
ATOM      4  C   UNL     1       4.745   3.959  18.473  0.00  0.00    +0.000 A 
ATOM      5  C   UNL     1       4.727   5.221  17.851  0.00  0.00    +0.000 A 
ATOM      6  C   UNL     1       3.838   6.201  18.349  0.00  0.00    +0.000 A 
ENDROOT
BRANCH   1   9
ATOM      7  C   UNL     1       1.889   8.164  19.324  0.00  0.00    +0.000 C 
ATOM      8  O   UNL     1       2.258   8.498  18.202  0.00  0.00    +0.000 OA
ATOM      9  N   UNL     1       2.195   6.971  19.970  0.00  0.00    +0.000 N 
ATOM     10  H   UNL     1       1.697   6.815  20.843  0.00  0.00    +0.000 HD
BRANCH   7  17
ATOM     11  C   UNL     1      -1.275  12.032  19.381  0.00  0.00    +0.000 C 
ATOM     12  C   UNL     1      -0.527  10.947  20.100  0.00  0.00    +0.000 A 
ATOM     13  C   UNL     1      -0.647  10.764  21.478  0.00  0.00    +0.000 A 
ATOM     14  C   UNL     1       0.058   9.730  22.099  0.00  0.00    +0.000 A 
ATOM     15  C   UNL     1      -0.053   9.522  23.579  0.00  0.00    +0.000 C 
ATOM     16  N   UNL     1       0.869   8.877  21.423  0.00  0.00    +0.000 NA
ATOM     17  C   UNL     1       0.984   9.086  20.083  0.00  0.00    +0.000 A 
ATOM     18  C   UNL     1       0.313  10.091  19.392  0.00  0.00    +0.000 A 
ENDBRANCH   7  17
ENDBRANCH   1   9
BRANCH   5  19
ATOM     19  C   UNL     1       5.655   5.517  16.672  0.00  0.00    +0.000 C 
ATOM     20  C   UNL     1       5.096   6.665  15.822  0.00  0.00    +0.000 C 
BRANCH  19  21
ATOM     21  S   UNL     1       5.886   3.997  15.650  0.00  0.00    +0.000 S 
BRANCH  21  22
ATOM     22  C   UNL     1       6.875   4.582  14.364  0.00  0.00    +0.000 A 
ATOM     23  N   UNL     1       7.870   5.434  14.458  0.00  0.00    +0.000 NA
ATOM     24  N   UNL     1       8.354   5.655  13.187  0.00  0.00    +0.000 NA
ATOM     25  C   UNL     1       7.644   4.927  12.358  0.00  0.00    +0.000 A 
ATOM     26  N   UNL     1       6.704   4.224  13.054  0.00  0.00    +0.000 N 
ATOM     27  C   UNL     1       5.736   3.325  12.489  0.00  0.00    +0.000 C 
ENDBRANCH  21  22
ENDBRANCH  19  21
ENDBRANCH   5  19
TORSDOF 5
ENDMDL
MODEL 5
REMARK VINA RESULT:      -8.2      4.723      7.109
REMARK  Name = 
REMARK  9 active torsions:
REMARK  status: ('A' for Active; 'I' for Inactive)
REMARK    1  A    between atoms: C_1  and  C_2
REMARK    2  A    between atoms: C_4  and  C_5
REMARK    3  A    between atoms: C_7  and  C_8
REMARK    4  A    between atoms: N_10  and  C_11
REMARK    5  A    between atoms: C_15  and  C_16
REMARK    6  A    between atoms: C_16  and  C_17
REMARK    7  A    between atoms: C_16  and  S_18
REMARK    8  A    between atoms: S_18  and  C_19
REMARK    9  A    between atoms: N_23  and  C_24
REMARK                            x       y       z     vdW  Elec       q    Type
REMARK                         _______ _______ _______ _____ _____    ______ ____
ROOT
ATOM      1  C   UNL     1       2.617   5.948  18.243  0.00  0.00    +0.000 A 
ATOM      2  C   UNL     1       1.961   4.716  18.318  0.00  0.00    +0.000 A 
ATOM      3  C   UNL     1       2.445   3.604  17.637  0.00  0.00    +0.000 A 
ATOM      4  C   UNL     1       3.603   3.703  16.875  0.00  0.00    +0.000 A 
ATOM      5  C   UNL     1       4.295   4.922  16.773  0.00  0.00    +0.000 A 
ATOM      6  C   UNL     1       3.771   6.050  17.446  0.00  0.00    +0.000 A 
ENDROOT
BRANCH   1   9
ATOM      7  C   UNL     1       1.902   8.337  18.394  0.00  0.00    +0.000 C 
ATOM      8  O   UNL     1       1.991   8.641  17.208  0.00  0.00    +0.000 OA
ATOM      9  N   UNL     1       2.158   7.086  18.944  0.00  0.00    +0.000 N 
ATOM     10  H   UNL     1       1.907   6.989  19.925  0.00  0.00    +0.000 HD
BRANCH   7  17
ATOM     11  C   UNL     1       0.779  13.098  19.420  0.00  0.00    +0.000 C 
ATOM     12  C   UNL     1       0.901  11.664  19.848  0.00  0.00    +0.000 A 
ATOM     13  C   UNL     1       0.586  11.258  21.145  0.00  0.00    +0.000 A 
ATOM     14  C   UNL     1       0.701   9.910  21.490  0.00  0.00    +0.000 A 
ATOM     15  C   UNL     1       0.373   9.454  22.881  0.00  0.00    +0.000 C 
ATOM     16  N   UNL     1       1.112   8.954  20.618  0.00  0.00    +0.000 NA
ATOM     17  C   UNL     1       1.431   9.376  19.365  0.00  0.00    +0.000 A 
ATOM     18  C   UNL     1       1.340  10.700  18.944  0.00  0.00    +0.000 A 
ENDBRANCH   7  17
ENDBRANCH   1   9
BRANCH   5  19
ATOM     19  C   UNL     1       5.585   5.015  15.958  0.00  0.00    +0.000 C 
ATOM     20  C   UNL     1       5.546   4.039  14.775  0.00  0.00    +0.000 C 
BRANCH  19  21
ATOM     21  S   UNL     1       7.044   4.676  17.038  0.00  0.00    +0.000 S 
BRANCH  21  22
ATOM     22  C   UNL     1       7.510   6.267  17.514  0.00  0.00    +0.000 A 
ATOM     23  N   UNL     1       7.485   7.351  16.773  0.00  0.00    +0.000 NA
ATOM     24  N   UNL     1       7.980   8.389  17.532  0.00  0.00    +0.000 NA
ATOM     25  C   UNL     1       8.287   7.907  18.713  0.00  0.00    +0.000 A 
ATOM     26  N   UNL     1       7.999   6.574  18.754  0.00  0.00    +0.000 N 
ATOM     27  C   UNL     1       8.208   5.702  19.877  0.00  0.00    +0.000 C 
ENDBRANCH  21  22
ENDBRANCH  19  21
ENDBRANCH   5  19
TORSDOF 5
ENDMDL
MODEL 6
REMARK VINA RESULT:      -8.2      5.328      6.793
REMARK  Name = 
REMARK  9 active torsions:
REMARK  status: ('A' for Active; 'I' for Inactive)
REMARK    1  A    between atoms: C_1  and  C_2
REMARK    2  A    between atoms: C_4  and  C_5
REMARK    3  A    between atoms: C_7  and  C_8
REMARK    4  A    between atoms: N_10  and  C_11
REMARK    5  A    between atoms: C_15  and  C_16
REMARK    6  A    between atoms: C_16  and  C_17
REMARK    7  A    between atoms: C_16  and  S_18
REMARK    8  A    between atoms: S_18  and  C_19
REMARK    9  A    between atoms: N_23  and  C_24
REMARK                            x       y       z     vdW  Elec       q    Type
REMARK                         _______ _______ _______ _____ _____    ______ ____
ROOT
ATOM      1  C   UNL     1       2.505   6.248  18.750  0.00  0.00    +0.000 A 
ATOM      2  C   UNL     1       2.000   4.951  18.886  0.00  0.00    +0.000 A 
ATOM      3  C   UNL     1       2.584   3.881  18.214  0.00  0.00    +0.000 A 
ATOM      4  C   UNL     1       3.691   4.089  17.401  0.00  0.00    +0.000 A 
ATOM      5  C   UNL     1       4.231   5.377  17.237  0.00  0.00    +0.000 A 
ATOM      6  C   UNL     1       3.606   6.457  17.902  0.00  0.00    +0.000 A 
ENDROOT
BRANCH   1   9
ATOM      7  C   UNL     1       1.585   8.567  18.879  0.00  0.00    +0.000 C 
ATOM      8  O   UNL     1       1.658   8.870  17.691  0.00  0.00    +0.000 OA
ATOM      9  N   UNL     1       1.944   7.346  19.439  0.00  0.00    +0.000 N 
ATOM     10  H   UNL     1       1.695   7.233  20.419  0.00  0.00    +0.000 HD
BRANCH   7  17
ATOM     11  C   UNL     1      -0.301   9.647  23.379  0.00  0.00    +0.000 C 
ATOM     12  C   UNL     1       0.108  10.073  21.999  0.00  0.00    +0.000 A 
ATOM     13  C   UNL     1      -0.024  11.394  21.571  0.00  0.00    +0.000 A 
ATOM     14  C   UNL     1       0.385  11.744  20.282  0.00  0.00    +0.000 A 
ATOM     15  C   UNL     1       0.245  13.157  19.802  0.00  0.00    +0.000 C 
ATOM     16  N   UNL     1       0.915  10.853  19.406  0.00  0.00    +0.000 NA
ATOM     17  C   UNL     1       1.019   9.567  19.839  0.00  0.00    +0.000 A 
ATOM     18  C   UNL     1       0.635   9.141  21.108  0.00  0.00    +0.000 A 
ENDBRANCH   7  17
ENDBRANCH   1   9
BRANCH   5  19
ATOM     19  C   UNL     1       5.469   5.593  16.365  0.00  0.00    +0.000 C 
ATOM     20  C   UNL     1       5.215   6.697  15.332  0.00  0.00    +0.000 C 
BRANCH  19  21
ATOM     21  S   UNL     1       5.942   4.013  15.533  0.00  0.00    +0.000 S 
BRANCH  21  22
ATOM     22  C   UNL     1       6.860   4.581  14.189  0.00  0.00    +0.000 A 
ATOM     23  N   UNL     1       7.845   5.450  14.216  0.00  0.00    +0.000 NA
ATOM     24  N   UNL     1       8.265   5.648  12.919  0.00  0.00    +0.000 NA
ATOM     25  C   UNL     1       7.528   4.891  12.141  0.00  0.00    +0.000 A 
ATOM     26  N   UNL     1       6.633   4.190  12.897  0.00  0.00    +0.000 N 
ATOM     27  C   UNL     1       5.653   3.265  12.399  0.00  0.00    +0.000 C 
ENDBRANCH  21  22
ENDBRANCH  19  21
ENDBRANCH   5  19
TORSDOF 5
ENDMDL
MODEL 7
REMARK VINA RESULT:      -8.1      3.737      5.145
REMARK  Name = 
REMARK  9 active torsions:
REMARK  status: ('A' for Active; 'I' for Inactive)
REMARK    1  A    between atoms: C_1  and  C_2
REMARK    2  A    between atoms: C_4  and  C_5
REMARK    3  A    between atoms: C_7  and  C_8
REMARK    4  A    between atoms: N_10  and  C_11
REMARK    5  A    between atoms: C_15  and  C_16
REMARK    6  A    between atoms: C_16  and  C_17
REMARK    7  A    between atoms: C_16  and  S_18
REMARK    8  A    between atoms: S_18  and  C_19
REMARK    9  A    between atoms: N_23  and  C_24
REMARK                            x       y       z     vdW  Elec       q    Type
REMARK                         _______ _______ _______ _____ _____    ______ ____
ROOT
ATOM      1  C   UNL     1       6.447   6.829  17.047  0.00  0.00    +0.000 A 
ATOM      2  C   UNL     1       7.069   5.806  16.325  0.00  0.00    +0.000 A 
ATOM      3  C   UNL     1       6.409   4.609  16.066  0.00  0.00    +0.000 A 
ATOM      4  C   UNL     1       5.109   4.418  16.516  0.00  0.00    +0.000 A 
ATOM      5  C   UNL     1       4.445   5.421  17.245  0.00  0.00    +0.000 A 
ATOM      6  C   UNL     1       5.142   6.618  17.527  0.00  0.00    +0.000 A 
ENDROOT
BRANCH   1   9
ATOM      7  C   UNL     1       8.088   8.283  18.244  0.00  0.00    +0.000 C 
ATOM      8  O   UNL     1       8.604   7.437  18.969  0.00  0.00    +0.000 OA
ATOM      9  N   UNL     1       7.088   8.061  17.304  0.00  0.00    +0.000 N 
ATOM     10  H   UNL     1       6.875   8.858  16.707  0.00  0.00    +0.000 HD
BRANCH   7  17
ATOM     11  C   UNL     1       7.620  13.108  17.025  0.00  0.00    +0.000 C 
ATOM     12  C   UNL     1       8.360  12.004  17.723  0.00  0.00    +0.000 A 
ATOM     13  C   UNL     1       9.523  12.249  18.453  0.00  0.00    +0.000 A 
ATOM     14  C   UNL     1      10.167  11.191  19.098  0.00  0.00    +0.000 A 
ATOM     15  C   UNL     1      11.421  11.433  19.883  0.00  0.00    +0.000 C 
ATOM     16  N   UNL     1       9.716   9.911  19.052  0.00  0.00    +0.000 NA
ATOM     17  C   UNL     1       8.590   9.692  18.320  0.00  0.00    +0.000 A 
ATOM     18  C   UNL     1       7.891  10.694  17.651  0.00  0.00    +0.000 A 
ENDBRANCH   7  17
ENDBRANCH   1   9
BRANCH   5  19
ATOM     19  C   UNL     1       3.003   5.215  17.710  0.00  0.00    +0.000 C 
ATOM     20  C   UNL     1       2.802   5.796  19.115  0.00  0.00    +0.000 C 
BRANCH  19  21
ATOM     21  S   UNL     1       2.576   3.419  17.675  0.00  0.00    +0.000 S 
BRANCH  21  22
ATOM     22  C   UNL     1       2.172   3.119  19.325  0.00  0.00    +0.000 A 
ATOM     23  N   UNL     1       1.002   3.294  19.896  0.00  0.00    +0.000 NA
ATOM     24  N   UNL     1       1.134   2.973  21.229  0.00  0.00    +0.000 NA
ATOM     25  C   UNL     1       2.378   2.607  21.429  0.00  0.00    +0.000 A 
ATOM     26  N   UNL     1       3.070   2.672  20.255  0.00  0.00    +0.000 N 
ATOM     27  C   UNL     1       4.461   2.356  20.080  0.00  0.00    +0.000 C 
ENDBRANCH  21  22
ENDBRANCH  19  21
ENDBRANCH   5  19
TORSDOF 5
ENDMDL
MODEL 8
REMARK VINA RESULT:      -8.1      4.770      7.336
REMARK  Name = 
REMARK  9 active torsions:
REMARK  status: ('A' for Active; 'I' for Inactive)
REMARK    1  A    between atoms: C_1  and  C_2
REMARK    2  A    between atoms: C_4  and  C_5
REMARK    3  A    between atoms: C_7  and  C_8
REMARK    4  A    between atoms: N_10  and  C_11
REMARK    5  A    between atoms: C_15  and  C_16
REMARK    6  A    between atoms: C_16  and  C_17
REMARK    7  A    between atoms: C_16  and  S_18
REMARK    8  A    between atoms: S_18  and  C_19
REMARK    9  A    between atoms: N_23  and  C_24
REMARK                            x       y       z     vdW  Elec       q    Type
REMARK                         _______ _______ _______ _____ _____    ______ ____
ROOT
ATOM      1  C   UNL     1       2.673   5.670  17.982  0.00  0.00    +0.000 A 
ATOM      2  C   UNL     1       2.029   4.431  18.046  0.00  0.00    +0.000 A 
ATOM      3  C   UNL     1       2.574   3.307  17.434  0.00  0.00    +0.000 A 
ATOM      4  C   UNL     1       3.782   3.402  16.753  0.00  0.00    +0.000 A 
ATOM      5  C   UNL     1       4.464   4.628  16.665  0.00  0.00    +0.000 A 
ATOM      6  C   UNL     1       3.879   5.766  17.266  0.00  0.00    +0.000 A 
ENDROOT
BRANCH   1   9
ATOM      7  C   UNL     1       1.916   6.969  19.978  0.00  0.00    +0.000 C 
ATOM      8  O   UNL     1       2.166   6.144  20.852  0.00  0.00    +0.000 OA
ATOM      9  N   UNL     1       2.150   6.820  18.615  0.00  0.00    +0.000 N 
ATOM     10  H   UNL     1       1.997   7.658  18.059  0.00  0.00    +0.000 HD
BRANCH   7  17
ATOM     11  C   UNL     1       0.841  11.728  18.894  0.00  0.00    +0.000 C 
ATOM     12  C   UNL     1       0.840  10.576  19.857  0.00  0.00    +0.000 A 
ATOM     13  C   UNL     1       0.317  10.699  21.144  0.00  0.00    +0.000 A 
ATOM     14  C   UNL     1       0.325   9.594  21.998  0.00  0.00    +0.000 A 
ATOM     15  C   UNL     1      -0.227   9.708  23.388  0.00  0.00    +0.000 C 
ATOM     16  N   UNL     1       0.825   8.384  21.639  0.00  0.00    +0.000 NA
ATOM     17  C   UNL     1       1.345   8.293  20.385  0.00  0.00    +0.000 A 
ATOM     18  C   UNL     1       1.371   9.347  19.475  0.00  0.00    +0.000 A 
ENDBRANCH   7  17
ENDBRANCH   1   9
BRANCH   5  19
ATOM     19  C   UNL     1       5.808   4.717  15.941  0.00  0.00    +0.000 C 
ATOM     20  C   UNL     1       5.893   3.662  14.831  0.00  0.00    +0.000 C 
BRANCH  19  21
ATOM     21  S   UNL     1       7.192   4.512  17.146  0.00  0.00    +0.000 S 
BRANCH  21  22
ATOM     22  C   UNL     1       7.580   6.149  17.523  0.00  0.00    +0.000 A 
ATOM     23  N   UNL     1       7.550   7.176  16.705  0.00  0.00    +0.000 NA
ATOM     24  N   UNL     1       7.974   8.283  17.406  0.00  0.00    +0.000 NA
ATOM     25  C   UNL     1       8.245   7.899  18.631  0.00  0.00    +0.000 A 
ATOM     26  N   UNL     1       8.003   6.562  18.757  0.00  0.00    +0.000 N 
ATOM     27  C   UNL     1       8.192   5.782  19.948  0.00  0.00    +0.000 C 
ENDBRANCH  21  22
ENDBRANCH  19  21
ENDBRANCH   5  19
TORSDOF 5
ENDMDL
MODEL 9
REMARK VINA RESULT:      -8.0      7.452     10.407
REMARK  Name = 
REMARK  9 active torsions:
REMARK  status: ('A' for Active; 'I' for Inactive)
REMARK    1  A    between atoms: C_1  and  C_2
REMARK    2  A    between atoms: C_4  and  C_5
REMARK    3  A    between atoms: C_7  and  C_8
REMARK    4  A    between atoms: N_10  and  C_11
REMARK    5  A    between atoms: C_15  and  C_16
REMARK    6  A    between atoms: C_16  and  C_17
REMARK    7  A    between atoms: C_16  and  S_18
REMARK    8  A    between atoms: S_18  and  C_19
REMARK    9  A    between atoms: N_23  and  C_24
REMARK                            x       y       z     vdW  Elec       q    Type
REMARK                         _______ _______ _______ _____ _____    ______ ____
ROOT
ATOM      1  C   UNL     1       1.400   8.479  20.450  0.00  0.00    +0.000 A 
ATOM      2  C   UNL     1       0.966   8.598  21.773  0.00  0.00    +0.000 A 
ATOM      3  C   UNL     1       0.107   9.623  22.156  0.00  0.00    +0.000 A 
ATOM      4  C   UNL     1      -0.342  10.543  21.216  0.00  0.00    +0.000 A 
ATOM      5  C   UNL     1       0.068  10.460  19.874  0.00  0.00    +0.000 A 
ATOM      6  C   UNL     1       0.967   9.431  19.510  0.00  0.00    +0.000 A 
ENDROOT
BRANCH   1   9
ATOM      7  C   UNL     1       2.019   6.073  20.188  0.00  0.00    +0.000 C 
ATOM      8  O   UNL     1       1.014   5.560  20.673  0.00  0.00    +0.000 OA
ATOM      9  N   UNL     1       2.254   7.434  20.032  0.00  0.00    +0.000 N 
ATOM     10  H   UNL     1       3.087   7.667  19.495  0.00  0.00    +0.000 HD
BRANCH   7  17
ATOM     11  C   UNL     1       3.456   1.621  18.429  0.00  0.00    +0.000 C 
ATOM     12  C   UNL     1       3.776   3.033  18.827  0.00  0.00    +0.000 A 
ATOM     13  C   UNL     1       5.069   3.547  18.722  0.00  0.00    +0.000 A 
ATOM     14  C   UNL     1       5.314   4.872  19.090  0.00  0.00    +0.000 A 
ATOM     15  C   UNL     1       6.697   5.442  18.990  0.00  0.00    +0.000 C 
ATOM     16  N   UNL     1       4.345   5.704  19.553  0.00  0.00    +0.000 NA
ATOM     17  C   UNL     1       3.097   5.175  19.663  0.00  0.00    +0.000 A 
ATOM     18  C   UNL     1       2.773   3.866  19.315  0.00  0.00    +0.000 A 
ENDBRANCH   7  17
ENDBRANCH   1   9
BRANCH   5  19
ATOM     19  C   UNL     1      -0.456  11.458  18.841  0.00  0.00    +0.000 C 
ATOM     20  C   UNL     1       0.158  12.844  19.070  0.00  0.00    +0.000 C 
BRANCH  19  21
ATOM     21  S   UNL     1      -2.299  11.537  18.914  0.00  0.00    +0.000 S 
BRANCH  21  22
ATOM     22  C   UNL     1      -2.742  10.942  17.357  0.00  0.00    +0.000 A 
ATOM     23  N   UNL     1      -2.005  10.211  16.552  0.00  0.00    +0.000 NA
ATOM     24  N   UNL     1      -2.729   9.996  15.401  0.00  0.00    +0.000 NA
ATOM     25  C   UNL     1      -3.887  10.598  15.539  0.00  0.00    +0.000 A 
ATOM     26  N   UNL     1      -3.947  11.201  16.762  0.00  0.00    +0.000 N 
ATOM     27  C   UNL     1      -5.053  11.965  17.270  0.00  0.00    +0.000 C 
ENDBRANCH  21  22
ENDBRANCH  19  21
ENDBRANCH   5  19
TORSDOF 5
ENDMDL
