MODEL 1
REMARK VINA RESULT:      -8.9      0.000      0.000
REMARK  Name = 
REMARK  8 active torsions:
REMARK  status: ('A' for Active; 'I' for Inactive)
REMARK    1  A    between atoms: C_1  and  C_2
REMARK    2  A    between atoms: C_2  and  C_3
REMARK    3  A    between atoms: C_2  and  C_10
REMARK    4  A    between atoms: C_3  and  C_4
REMARK    5  A    between atoms: N_8  and  C_9
REMARK    6  A    between atoms: C_14  and  N_15
REMARK    7  A    between atoms: C_16  and  C_18
REMARK    8  A    between atoms: C_20  and  C_21
REMARK                            x       y       z     vdW  Elec       q    Type
REMARK                         _______ _______ _______ _____ _____    ______ ____
ROOT
ATOM      1  C   UNL     1       4.515   4.587  16.818  0.00  0.00    +0.000 A 
ATOM      2  C   UNL     1       5.068   3.710  15.871  0.00  0.00    +0.000 A 
ATOM      3  C   UNL     1       6.303   3.980  15.286  0.00  0.00    +0.000 A 
ATOM      4  C   UNL     1       6.991   5.149  15.611  0.00  0.00    +0.000 A 
ATOM      5  C   UNL     1       6.438   6.067  16.500  0.00  0.00    +0.000 A 
ATOM      6  C   UNL     1       5.205   5.779  17.098  0.00  0.00    +0.000 A 
ENDROOT
BRANCH   5   7
ATOM      7  N   UNL     1       7.068   7.274  16.876  0.00  0.00    +0.000 N 
ATOM      8  C   UNL     1       7.836   7.478  18.004  0.00  0.00    +0.000 C 
ATOM      9  O   UNL     1       8.135   6.614  18.824  0.00  0.00    +0.000 OA
ATOM     10  H   UNL     1       6.990   8.044  16.226  0.00  0.00    +0.000 HD
BRANCH   8  11
ATOM     11  C   UNL     1       8.325   8.823  18.188  0.00  0.00    +0.000 A 
ATOM     12  C   UNL     1       8.203  10.012  17.496  0.00  0.00    +0.000 A 
ATOM     13  C   UNL     1       8.943  10.974  18.247  0.00  0.00    +0.000 A 
ATOM     14  N   UNL     1       9.493  10.404  19.336  0.00  0.00    +0.000 NA
ATOM     15  N   UNL     1       9.102   9.125  19.273  0.00  0.00    +0.000 N 
ATOM     16  H   UNL     1       9.390   8.480  20.005  0.00  0.00    +0.000 HD
BRANCH  13  17
ATOM     17  C   UNL     1       9.121  12.435  17.924  0.00  0.00    +0.000 C 
ATOM     18  F   UNL     1       9.141  13.197  19.053  0.00  0.00    +0.000 F 
ATOM     19  F   UNL     1      10.286  12.688  17.271  0.00  0.00    +0.000 F 
ATOM     20  F   UNL     1       8.115  12.924  17.152  0.00  0.00    +0.000 F 
ENDBRANCH  13  17
ENDBRANCH   8  11
ENDBRANCH   5   7
BRANCH   1  22
ATOM     21  C   UNL     1       2.717   5.243  18.540  0.00  0.00    +0.000 C 
ATOM     22  C   UNL     1       3.243   4.176  17.564  0.00  0.00    +0.000 C 
BRANCH  22  23
ATOM     23  C   UNL     1       3.524   2.843  18.298  0.00  0.00    +0.000 C 
BRANCH  23  24
ATOM     24  C   UNL     1       2.920   2.762  19.654  0.00  0.00    +0.000 A 
ATOM     25  N   UNL     1       3.574   2.848  20.795  0.00  0.00    +0.000 NA
ATOM     26  N   UNL     1       2.671   2.696  21.819  0.00  0.00    +0.000 NA
ATOM     27  C   UNL     1       1.489   2.510  21.281  0.00  0.00    +0.000 A 
ATOM     28  N   UNL     1       1.594   2.559  19.926  0.00  0.00    +0.000 N 
ATOM     29  C   UNL     1       0.515   2.416  18.987  0.00  0.00    +0.000 C 
ENDBRANCH  23  24
ENDBRANCH  22  23
ENDBRANCH   1  22
TORSDOF 6
ENDMDL
MODEL 2
REMARK VINA RESULT:      -8.6      5.501      7.511
REMARK  Name = 
REMARK  8 active torsions:
REMARK  status: ('A' for Active; 'I' for Inactive)
REMARK    1  A    between atoms: C_1  and  C_2
REMARK    2  A    between atoms: C_2  and  C_3
REMARK    3  A    between atoms: C_2  and  C_10
REMARK    4  A    between atoms: C_3  and  C_4
REMARK    5  A    between atoms: N_8  and  C_9
REMARK    6  A    between atoms: C_14  and  N_15
REMARK    7  A    between atoms: C_16  and  C_18
REMARK    8  A    between atoms: C_20  and  C_21
REMARK                            x       y       z     vdW  Elec       q    Type
REMARK                         _______ _______ _______ _____ _____    ______ ____
ROOT
ATOM      1  C   UNL     1       2.151   7.079  19.599  0.00  0.00    +0.000 A 
ATOM      2  C   UNL     1       1.844   6.086  20.544  0.00  0.00    +0.000 A 
ATOM      3  C   UNL     1       2.328   4.788  20.396  0.00  0.00    +0.000 A 
ATOM      4  C   UNL     1       3.098   4.451  19.284  0.00  0.00    +0.000 A 
ATOM      5  C   UNL     1       3.367   5.398  18.300  0.00  0.00    +0.000 A 
ATOM      6  C   UNL     1       2.893   6.706  18.465  0.00  0.00    +0.000 A 
ENDROOT
BRANCH   5   7
ATOM      7  N   UNL     1       4.135   5.135  17.143  0.00  0.00    +0.000 N 
ATOM      8  C   UNL     1       5.493   5.333  17.001  0.00  0.00    +0.000 C 
ATOM      9  O   UNL     1       6.250   5.717  17.889  0.00  0.00    +0.000 OA
ATOM     10  H   UNL     1       3.646   4.711  16.367  0.00  0.00    +0.000 HD
BRANCH   8  11
ATOM     11  C   UNL     1       6.031   5.034  15.696  0.00  0.00    +0.000 A 
ATOM     12  C   UNL     1       5.585   4.337  14.590  0.00  0.00    +0.000 A 
ATOM     13  C   UNL     1       6.628   4.444  13.620  0.00  0.00    +0.000 A 
ATOM     14  N   UNL     1       7.657   5.163  14.108  0.00  0.00    +0.000 NA
ATOM     15  N   UNL     1       7.267   5.503  15.344  0.00  0.00    +0.000 N 
ATOM     16  H   UNL     1       7.884   6.067  15.923  0.00  0.00    +0.000 HD
BRANCH  13  17
ATOM     17  C   UNL     1       6.636   3.862  12.231  0.00  0.00    +0.000 C 
ATOM     18  F   UNL     1       7.256   4.693  11.346  0.00  0.00    +0.000 F 
ATOM     19  F   UNL     1       7.294   2.674  12.166  0.00  0.00    +0.000 F 
ATOM     20  F   UNL     1       5.384   3.654  11.745  0.00  0.00    +0.000 F 
ENDBRANCH  13  17
ENDBRANCH   8  11
ENDBRANCH   5   7
BRANCH   1  22
ATOM     21  C   UNL     1       0.671   8.677  20.972  0.00  0.00    +0.000 C 
ATOM     22  C   UNL     1       1.746   8.528  19.881  0.00  0.00    +0.000 C 
BRANCH  22  23
ATOM     23  C   UNL     1       1.279   9.165  18.550  0.00  0.00    +0.000 C 
BRANCH  23  24
ATOM     24  C   UNL     1       0.788  10.562  18.690  0.00  0.00    +0.000 A 
ATOM     25  N   UNL     1       1.502  11.592  19.097  0.00  0.00    +0.000 NA
ATOM     26  N   UNL     1       0.687  12.696  19.121  0.00  0.00    +0.000 NA
ATOM     27  C   UNL     1      -0.508  12.315  18.737  0.00  0.00    +0.000 A 
ATOM     28  N   UNL     1      -0.489  10.987  18.442  0.00  0.00    +0.000 N 
ATOM     29  C   UNL     1      -1.601  10.207  17.972  0.00  0.00    +0.000 C 
ENDBRANCH  23  24
ENDBRANCH  22  23
ENDBRANCH   1  22
TORSDOF 6
ENDMDL
MODEL 3
REMARK VINA RESULT:      -8.6      1.558      2.094
REMARK  Name = 
REMARK  8 active torsions:
REMARK  status: ('A' for Active; 'I' for Inactive)
REMARK    1  A    between atoms: C_1  and  C_2
REMARK    2  A    between atoms: C_2  and  C_3
REMARK    3  A    between atoms: C_2  and  C_10
REMARK    4  A    between atoms: C_3  and  C_4
REMARK    5  A    between atoms: N_8  and  C_9
REMARK    6  A    between atoms: C_14  and  N_15
REMARK    7  A    between atoms: C_16  and  C_18
REMARK    8  A    between atoms: C_20  and  C_21
REMARK                            x       y       z     vdW  Elec       q    Type
REMARK                         _______ _______ _______ _____ _____    ______ ____
ROOT
ATOM      1  C   UNL     1       4.864   4.347  17.033  0.00  0.00    +0.000 A 
ATOM      2  C   UNL     1       5.274   3.626  15.899  0.00  0.00    +0.000 A 
ATOM      3  C   UNL     1       6.340   4.069  15.120  0.00  0.00    +0.000 A 
ATOM      4  C   UNL     1       6.994   5.258  15.440  0.00  0.00    +0.000 A 
ATOM      5  C   UNL     1       6.570   6.027  16.521  0.00  0.00    +0.000 A 
ATOM      6  C   UNL     1       5.509   5.565  17.310  0.00  0.00    +0.000 A 
ENDROOT
BRANCH   5   7
ATOM      7  N   UNL     1       7.175   7.244  16.906  0.00  0.00    +0.000 N 
ATOM      8  C   UNL     1       7.910   7.464  18.054  0.00  0.00    +0.000 C 
ATOM      9  O   UNL     1       8.197   6.608  18.886  0.00  0.00    +0.000 OA
ATOM     10  H   UNL     1       7.104   8.009  16.249  0.00  0.00    +0.000 HD
BRANCH   8  11
ATOM     11  C   UNL     1       8.378   8.816  18.242  0.00  0.00    +0.000 A 
ATOM     12  C   UNL     1       8.310   9.986  17.511  0.00  0.00    +0.000 A 
ATOM     13  C   UNL     1       8.981  10.971  18.296  0.00  0.00    +0.000 A 
ATOM     14  N   UNL     1       9.440  10.433  19.441  0.00  0.00    +0.000 NA
ATOM     15  N   UNL     1       9.059   9.150  19.380  0.00  0.00    +0.000 N 
ATOM     16  H   UNL     1       9.287   8.526  20.150  0.00  0.00    +0.000 HD
BRANCH  13  17
ATOM     17  C   UNL     1       9.180  12.424  17.949  0.00  0.00    +0.000 C 
ATOM     18  F   UNL     1      10.241  12.595  17.111  0.00  0.00    +0.000 F 
ATOM     19  F   UNL     1       8.103  12.962  17.318  0.00  0.00    +0.000 F 
ATOM     20  F   UNL     1       9.430  13.192  19.042  0.00  0.00    +0.000 F 
ENDBRANCH  13  17
ENDBRANCH   8  11
ENDBRANCH   5   7
BRANCH   1  22
ATOM     21  C   UNL     1       3.577   2.236  17.751  0.00  0.00    +0.000 C 
ATOM     22  C   UNL     1       3.805   3.745  17.959  0.00  0.00    +0.000 C 
BRANCH  22  23
ATOM     23  C   UNL     1       2.489   4.536  17.766  0.00  0.00    +0.000 C 
BRANCH  23  24
ATOM     24  C   UNL     1       2.238   5.555  18.820  0.00  0.00    +0.000 A 
ATOM     25  N   UNL     1       2.469   6.848  18.712  0.00  0.00    +0.000 NA
ATOM     26  N   UNL     1       2.138   7.444  19.904  0.00  0.00    +0.000 NA
ATOM     27  C   UNL     1       1.723   6.501  20.716  0.00  0.00    +0.000 A 
ATOM     28  N   UNL     1       1.755   5.302  20.075  0.00  0.00    +0.000 N 
ATOM     29  C   UNL     1       1.360   4.035  20.627  0.00  0.00    +0.000 C 
ENDBRANCH  23  24
ENDBRANCH  22  23
ENDBRANCH   1  22
TORSDOF 6
ENDMDL
MODEL 4
REMARK VINA RESULT:      -8.5      5.621      7.622
REMARK  Name = 
REMARK  8 active torsions:
REMARK  status: ('A' for Active; 'I' for Inactive)
REMARK    1  A    between atoms: C_1  and  C_2
REMARK    2  A    between atoms: C_2  and  C_3
REMARK    3  A    between atoms: C_2  and  C_10
REMARK    4  A    between atoms: C_3  and  C_4
REMARK    5  A    between atoms: N_8  and  C_9
REMARK    6  A    between atoms: C_14  and  N_15
REMARK    7  A    between atoms: C_16  and  C_18
REMARK    8  A    between atoms: C_20  and  C_21
REMARK                            x       y       z     vdW  Elec       q    Type
REMARK                         _______ _______ _______ _____ _____    ______ ____
ROOT
ATOM      1  C   UNL     1       2.076   7.255  19.621  0.00  0.00    +0.000 A 
ATOM      2  C   UNL     1       1.785   6.302  20.611  0.00  0.00    +0.000 A 
ATOM      3  C   UNL     1       2.285   5.005  20.520  0.00  0.00    +0.000 A 
ATOM      4  C   UNL     1       3.055   4.626  19.422  0.00  0.00    +0.000 A 
ATOM      5  C   UNL     1       3.308   5.531  18.394  0.00  0.00    +0.000 A 
ATOM      6  C   UNL     1       2.818   6.839  18.501  0.00  0.00    +0.000 A 
ENDROOT
BRANCH   5   7
ATOM      7  N   UNL     1       4.073   5.224  17.247  0.00  0.00    +0.000 N 
ATOM      8  C   UNL     1       5.401   5.540  17.042  0.00  0.00    +0.000 C 
ATOM      9  O   UNL     1       6.134   6.088  17.861  0.00  0.00    +0.000 OA
ATOM     10  H   UNL     1       3.614   4.674  16.533  0.00  0.00    +0.000 HD
BRANCH   8  11
ATOM     11  C   UNL     1       5.939   5.159  15.758  0.00  0.00    +0.000 A 
ATOM     12  C   UNL     1       5.466   4.455  14.668  0.00  0.00    +0.000 A 
ATOM     13  C   UNL     1       6.529   4.458  13.715  0.00  0.00    +0.000 A 
ATOM     14  N   UNL     1       7.596   5.122  14.197  0.00  0.00    +0.000 NA
ATOM     15  N   UNL     1       7.209   5.531  15.413  0.00  0.00    +0.000 N 
ATOM     16  H   UNL     1       7.854   6.073  15.984  0.00  0.00    +0.000 HD
BRANCH  13  17
ATOM     17  C   UNL     1       6.520   3.827  12.347  0.00  0.00    +0.000 C 
ATOM     18  F   UNL     1       7.309   4.518  11.476  0.00  0.00    +0.000 F 
ATOM     19  F   UNL     1       6.988   2.551  12.357  0.00  0.00    +0.000 F 
ATOM     20  F   UNL     1       5.279   3.796  11.795  0.00  0.00    +0.000 F 
ENDBRANCH  13  17
ENDBRANCH   8  11
ENDBRANCH   5   7
BRANCH   1  22
ATOM     21  C   UNL     1       0.447   8.879  20.776  0.00  0.00    +0.000 C 
ATOM     22  C   UNL     1       1.655   8.710  19.837  0.00  0.00    +0.000 C 
BRANCH  22  23
ATOM     23  C   UNL     1       1.376   9.342  18.453  0.00  0.00    +0.000 C 
BRANCH  23  24
ATOM     24  C   UNL     1       0.306  10.375  18.467  0.00  0.00    +0.000 A 
ATOM     25  N   UNL     1      -0.952  10.186  18.121  0.00  0.00    +0.000 NA
ATOM     26  N   UNL     1      -1.613  11.383  18.240  0.00  0.00    +0.000 NA
ATOM     27  C   UNL     1      -0.744  12.278  18.645  0.00  0.00    +0.000 A 
ATOM     28  N   UNL     1       0.469  11.688  18.815  0.00  0.00    +0.000 N 
ATOM     29  C   UNL     1       1.671  12.336  19.267  0.00  0.00    +0.000 C 
ENDBRANCH  23  24
ENDBRANCH  22  23
ENDBRANCH   1  22
TORSDOF 6
ENDMDL
MODEL 5
REMARK VINA RESULT:      -8.4      0.935      1.351
REMARK  Name = 
REMARK  8 active torsions:
REMARK  status: ('A' for Active; 'I' for Inactive)
REMARK    1  A    between atoms: C_1  and  C_2
REMARK    2  A    between atoms: C_2  and  C_3
REMARK    3  A    between atoms: C_2  and  C_10
REMARK    4  A    between atoms: C_3  and  C_4
REMARK    5  A    between atoms: N_8  and  C_9
REMARK    6  A    between atoms: C_14  and  N_15
REMARK    7  A    between atoms: C_16  and  C_18
REMARK    8  A    between atoms: C_20  and  C_21
REMARK                            x       y       z     vdW  Elec       q    Type
REMARK                         _______ _______ _______ _____ _____    ______ ____
ROOT
ATOM      1  C   UNL     1       4.307   5.520  17.088  0.00  0.00    +0.000 A 
ATOM      2  C   UNL     1       4.825   4.544  16.221  0.00  0.00    +0.000 A 
ATOM      3  C   UNL     1       6.117   4.655  15.713  0.00  0.00    +0.000 A 
ATOM      4  C   UNL     1       6.902   5.762  16.034  0.00  0.00    +0.000 A 
ATOM      5  C   UNL     1       6.394   6.777  16.840  0.00  0.00    +0.000 A 
ATOM      6  C   UNL     1       5.100   6.648  17.362  0.00  0.00    +0.000 A 
ENDROOT
BRANCH   5   7
ATOM      7  N   UNL     1       7.122   7.930  17.206  0.00  0.00    +0.000 N 
ATOM      8  C   UNL     1       8.056   8.020  18.218  0.00  0.00    +0.000 C 
ATOM      9  O   UNL     1       8.436   7.084  18.917  0.00  0.00    +0.000 OA
ATOM     10  H   UNL     1       6.981   8.752  16.634  0.00  0.00    +0.000 HD
BRANCH   8  11
ATOM     11  C   UNL     1       8.623   9.331  18.425  0.00  0.00    +0.000 A 
ATOM     12  C   UNL     1       8.721  10.485  17.674  0.00  0.00    +0.000 A 
ATOM     13  C   UNL     1       9.407  11.426  18.499  0.00  0.00    +0.000 A 
ATOM     14  N   UNL     1       9.716  10.877  19.689  0.00  0.00    +0.000 NA
ATOM     15  N   UNL     1       9.231   9.631  19.614  0.00  0.00    +0.000 N 
ATOM     16  H   UNL     1       9.336   9.007  20.411  0.00  0.00    +0.000 HD
BRANCH  13  17
ATOM     17  C   UNL     1       9.762  12.848  18.149  0.00  0.00    +0.000 C 
ATOM     18  F   UNL     1      10.226  12.945  16.872  0.00  0.00    +0.000 F 
ATOM     19  F   UNL     1       8.696  13.688  18.233  0.00  0.00    +0.000 F 
ATOM     20  F   UNL     1      10.736  13.355  18.949  0.00  0.00    +0.000 F 
ENDBRANCH  13  17
ENDBRANCH   8  11
ENDBRANCH   5   7
BRANCH   1  22
ATOM     21  C   UNL     1       2.813   5.948  19.140  0.00  0.00    +0.000 C 
ATOM     22  C   UNL     1       2.953   5.280  17.760  0.00  0.00    +0.000 C 
BRANCH  22  23
ATOM     23  C   UNL     1       2.727   3.753  17.856  0.00  0.00    +0.000 C 
BRANCH  23  24
ATOM     24  C   UNL     1       3.244   3.145  19.111  0.00  0.00    +0.000 A 
ATOM     25  N   UNL     1       4.496   2.804  19.343  0.00  0.00    +0.000 NA
ATOM     26  N   UNL     1       4.564   2.250  20.597  0.00  0.00    +0.000 NA
ATOM     27  C   UNL     1       3.352   2.255  21.099  0.00  0.00    +0.000 A 
ATOM     28  N   UNL     1       2.494   2.821  20.209  0.00  0.00    +0.000 N 
ATOM     29  C   UNL     1       1.084   3.022  20.402  0.00  0.00    +0.000 C 
ENDBRANCH  23  24
ENDBRANCH  22  23
ENDBRANCH   1  22
TORSDOF 6
ENDMDL
MODEL 6
REMARK VINA RESULT:      -8.4      0.887      1.331
REMARK  Name = 
REMARK  8 active torsions:
REMARK  status: ('A' for Active; 'I' for Inactive)
REMARK    1  A    between atoms: C_1  and  C_2
REMARK    2  A    between atoms: C_2  and  C_3
REMARK    3  A    between atoms: C_2  and  C_10
REMARK    4  A    between atoms: C_3  and  C_4
REMARK    5  A    between atoms: N_8  and  C_9
REMARK    6  A    between atoms: C_14  and  N_15
REMARK    7  A    between atoms: C_16  and  C_18
REMARK    8  A    between atoms: C_20  and  C_21
REMARK                            x       y       z     vdW  Elec       q    Type
REMARK                         _______ _______ _______ _____ _____    ______ ____
ROOT
ATOM      1  C   UNL     1       5.110   4.152  16.707  0.00  0.00    +0.000 A 
ATOM      2  C   UNL     1       5.516   3.523  15.518  0.00  0.00    +0.000 A 
ATOM      3  C   UNL     1       6.537   4.063  14.740  0.00  0.00    +0.000 A 
ATOM      4  C   UNL     1       7.148   5.258  15.117  0.00  0.00    +0.000 A 
ATOM      5  C   UNL     1       6.725   5.936  16.257  0.00  0.00    +0.000 A 
ATOM      6  C   UNL     1       5.710   5.378  17.044  0.00  0.00    +0.000 A 
ENDROOT
BRANCH   5   7
ATOM      7  N   UNL     1       7.288   7.153  16.703  0.00  0.00    +0.000 N 
ATOM      8  C   UNL     1       7.899   7.373  17.920  0.00  0.00    +0.000 C 
ATOM      9  O   UNL     1       8.097   6.517  18.779  0.00  0.00    +0.000 OA
ATOM     10  H   UNL     1       7.287   7.917  16.042  0.00  0.00    +0.000 HD
BRANCH   8  11
ATOM     11  C   UNL     1       8.347   8.724  18.155  0.00  0.00    +0.000 A 
ATOM     12  C   UNL     1       8.255   9.919  17.469  0.00  0.00    +0.000 A 
ATOM     13  C   UNL     1       8.916  10.885  18.286  0.00  0.00    +0.000 A 
ATOM     14  N   UNL     1       9.392  10.313  19.407  0.00  0.00    +0.000 NA
ATOM     15  N   UNL     1       9.031   9.026  19.301  0.00  0.00    +0.000 N 
ATOM     16  H   UNL     1       9.274   8.378  20.046  0.00  0.00    +0.000 HD
BRANCH  13  17
ATOM     17  C   UNL     1       9.089  12.353  17.992  0.00  0.00    +0.000 C 
ATOM     18  F   UNL     1       8.047  12.841  17.262  0.00  0.00    +0.000 F 
ATOM     19  F   UNL     1       9.152  13.108  19.121  0.00  0.00    +0.000 F 
ATOM     20  F   UNL     1      10.213  12.612  17.274  0.00  0.00    +0.000 F 
ENDBRANCH  13  17
ENDBRANCH   8  11
ENDBRANCH   5   7
BRANCH   1  22
ATOM     21  C   UNL     1       2.640   3.609  17.187  0.00  0.00    +0.000 C 
ATOM     22  C   UNL     1       4.108   3.445  17.622  0.00  0.00    +0.000 C 
BRANCH  22  23
ATOM     23  C   UNL     1       4.321   3.964  19.064  0.00  0.00    +0.000 C 
BRANCH  23  24
ATOM     24  C   UNL     1       3.239   3.579  20.010  0.00  0.00    +0.000 A 
ATOM     25  N   UNL     1       3.047   2.376  20.511  0.00  0.00    +0.000 NA
ATOM     26  N   UNL     1       1.934   2.419  21.314  0.00  0.00    +0.000 NA
ATOM     27  C   UNL     1       1.466   3.644  21.277  0.00  0.00    +0.000 A 
ATOM     28  N   UNL     1       2.261   4.410  20.484  0.00  0.00    +0.000 N 
ATOM     29  C   UNL     1       2.086   5.810  20.208  0.00  0.00    +0.000 C 
ENDBRANCH  23  24
ENDBRANCH  22  23
ENDBRANCH   1  22
TORSDOF 6
ENDMDL
MODEL 7
REMARK VINA RESULT:      -8.3      0.652      1.015
REMARK  Name = 
REMARK  8 active torsions:
REMARK  status: ('A' for Active; 'I' for Inactive)
REMARK    1  A    between atoms: C_1  and  C_2
REMARK    2  A    between atoms: C_2  and  C_3
REMARK    3  A    between atoms: C_2  and  C_10
REMARK    4  A    between atoms: C_3  and  C_4
REMARK    5  A    between atoms: N_8  and  C_9
REMARK    6  A    between atoms: C_14  and  N_15
REMARK    7  A    between atoms: C_16  and  C_18
REMARK    8  A    between atoms: C_20  and  C_21
REMARK                            x       y       z     vdW  Elec       q    Type
REMARK                         _______ _______ _______ _____ _____    ______ ____
ROOT
ATOM      1  C   UNL     1       4.611   4.827  16.994  0.00  0.00    +0.000 A 
ATOM      2  C   UNL     1       5.079   4.017  15.946  0.00  0.00    +0.000 A 
ATOM      3  C   UNL     1       6.244   4.347  15.257  0.00  0.00    +0.000 A 
ATOM      4  C   UNL     1       6.943   5.509  15.580  0.00  0.00    +0.000 A 
ATOM      5  C   UNL     1       6.469   6.364  16.572  0.00  0.00    +0.000 A 
ATOM      6  C   UNL     1       5.307   6.016  17.272  0.00  0.00    +0.000 A 
ENDROOT
BRANCH   5   7
ATOM      7  N   UNL     1       7.115   7.560  16.953  0.00  0.00    +0.000 N 
ATOM      8  C   UNL     1       7.942   7.731  18.045  0.00  0.00    +0.000 C 
ATOM      9  O   UNL     1       8.287   6.841  18.818  0.00  0.00    +0.000 OA
ATOM     10  H   UNL     1       6.999   8.351  16.334  0.00  0.00    +0.000 HD
BRANCH   8  11
ATOM     11  C   UNL     1       8.437   9.071  18.246  0.00  0.00    +0.000 A 
ATOM     12  C   UNL     1       8.331  10.267  17.563  0.00  0.00    +0.000 A 
ATOM     13  C   UNL     1       9.067  11.218  18.332  0.00  0.00    +0.000 A 
ATOM     14  N   UNL     1       9.599  10.635  19.423  0.00  0.00    +0.000 NA
ATOM     15  N   UNL     1       9.201   9.359  19.344  0.00  0.00    +0.000 N 
ATOM     16  H   UNL     1       9.475   8.706  20.074  0.00  0.00    +0.000 HD
BRANCH  13  17
ATOM     17  C   UNL     1       9.257  12.680  18.023  0.00  0.00    +0.000 C 
ATOM     18  F   UNL     1      10.112  12.861  16.977  0.00  0.00    +0.000 F 
ATOM     19  F   UNL     1       8.095  13.296  17.678  0.00  0.00    +0.000 F 
ATOM     20  F   UNL     1       9.782  13.371  19.069  0.00  0.00    +0.000 F 
ENDBRANCH  13  17
ENDBRANCH   8  11
ENDBRANCH   5   7
BRANCH   1  22
ATOM     21  C   UNL     1       2.341   5.415  18.056  0.00  0.00    +0.000 C 
ATOM     22  C   UNL     1       3.427   4.347  17.837  0.00  0.00    +0.000 C 
BRANCH  22  23
ATOM     23  C   UNL     1       3.977   3.829  19.188  0.00  0.00    +0.000 C 
BRANCH  23  24
ATOM     24  C   UNL     1       2.920   3.452  20.164  0.00  0.00    +0.000 A 
ATOM     25  N   UNL     1       2.769   3.960  21.371  0.00  0.00    +0.000 NA
ATOM     26  N   UNL     1       1.705   3.333  21.970  0.00  0.00    +0.000 NA
ATOM     27  C   UNL     1       1.236   2.450  21.121  0.00  0.00    +0.000 A 
ATOM     28  N   UNL     1       1.958   2.499  19.970  0.00  0.00    +0.000 N 
ATOM     29  C   UNL     1       1.738   1.696  18.797  0.00  0.00    +0.000 C 
ENDBRANCH  23  24
ENDBRANCH  22  23
ENDBRANCH   1  22
TORSDOF 6
ENDMDL
MODEL 8
REMARK VINA RESULT:      -8.3      5.513      7.320
REMARK  Name = 
REMARK  8 active torsions:
REMARK  status: ('A' for Active; 'I' for Inactive)
REMARK    1  A    between atoms: C_1  and  C_2
REMARK    2  A    between atoms: C_2  and  C_3
REMARK    3  A    between atoms: C_2  and  C_10
REMARK    4  A    between atoms: C_3  and  C_4
REMARK    5  A    between atoms: N_8  and  C_9
REMARK    6  A    between atoms: C_14  and  N_15
REMARK    7  A    between atoms: C_16  and  C_18
REMARK    8  A    between atoms: C_20  and  C_21
REMARK                            x       y       z     vdW  Elec       q    Type
REMARK                         _______ _______ _______ _____ _____    ______ ____
ROOT
ATOM      1  C   UNL     1       1.956   7.013  19.535  0.00  0.00    +0.000 A 
ATOM      2  C   UNL     1       1.883   6.091  20.592  0.00  0.00    +0.000 A 
ATOM      3  C   UNL     1       2.594   4.894  20.544  0.00  0.00    +0.000 A 
ATOM      4  C   UNL     1       3.363   4.581  19.425  0.00  0.00    +0.000 A 
ATOM      5  C   UNL     1       3.406   5.447  18.335  0.00  0.00    +0.000 A 
ATOM      6  C   UNL     1       2.703   6.657  18.399  0.00  0.00    +0.000 A 
ENDROOT
BRANCH   5   7
ATOM      7  N   UNL     1       4.156   5.201  17.164  0.00  0.00    +0.000 N 
ATOM      8  C   UNL     1       5.519   4.999  17.094  0.00  0.00    +0.000 C 
ATOM      9  O   UNL     1       6.278   4.944  18.058  0.00  0.00    +0.000 OA
ATOM     10  H   UNL     1       3.631   5.113  16.304  0.00  0.00    +0.000 HD
BRANCH   8  11
ATOM     11  C   UNL     1       6.053   4.819  15.765  0.00  0.00    +0.000 A 
ATOM     12  C   UNL     1       5.647   4.145  14.630  0.00  0.00    +0.000 A 
ATOM     13  C   UNL     1       6.654   4.397  13.650  0.00  0.00    +0.000 A 
ATOM     14  N   UNL     1       7.626   5.178  14.159  0.00  0.00    +0.000 NA
ATOM     15  N   UNL     1       7.235   5.415  15.418  0.00  0.00    +0.000 N 
ATOM     16  H   UNL     1       7.812   6.001  16.017  0.00  0.00    +0.000 HD
BRANCH  13  17
ATOM     17  C   UNL     1       6.684   3.893  12.231  0.00  0.00    +0.000 C 
ATOM     18  F   UNL     1       7.367   4.744  11.414  0.00  0.00    +0.000 F 
ATOM     19  F   UNL     1       7.293   2.683  12.119  0.00  0.00    +0.000 F 
ATOM     20  F   UNL     1       5.441   3.767  11.696  0.00  0.00    +0.000 F 
ENDBRANCH  13  17
ENDBRANCH   8  11
ENDBRANCH   5   7
BRANCH   1  22
ATOM     21  C   UNL     1       1.585   9.355  18.532  0.00  0.00    +0.000 C 
ATOM     22  C   UNL     1       1.301   8.387  19.695  0.00  0.00    +0.000 C 
BRANCH  22  23
ATOM     23  C   UNL     1       1.765   8.988  21.043  0.00  0.00    +0.000 C 
BRANCH  23  24
ATOM     24  C   UNL     1       0.687   9.683  21.796  0.00  0.00    +0.000 A 
ATOM     25  N   UNL     1      -0.095   9.135  22.705  0.00  0.00    +0.000 NA
ATOM     26  N   UNL     1      -0.977  10.090  23.144  0.00  0.00    +0.000 NA
ATOM     27  C   UNL     1      -0.722  11.197  22.487  0.00  0.00    +0.000 A 
ATOM     28  N   UNL     1       0.323  10.993  21.642  0.00  0.00    +0.000 N 
ATOM     29  C   UNL     1       0.908  11.972  20.766  0.00  0.00    +0.000 C 
ENDBRANCH  23  24
ENDBRANCH  22  23
ENDBRANCH   1  22
TORSDOF 6
ENDMDL
MODEL 9
REMARK VINA RESULT:      -8.2      1.208      1.854
REMARK  Name = 
REMARK  8 active torsions:
REMARK  status: ('A' for Active; 'I' for Inactive)
REMARK    1  A    between atoms: C_1  and  C_2
REMARK    2  A    between atoms: C_2  and  C_3
REMARK    3  A    between atoms: C_2  and  C_10
REMARK    4  A    between atoms: C_3  and  C_4
REMARK    5  A    between atoms: N_8  and  C_9
REMARK    6  A    between atoms: C_14  and  N_15
REMARK    7  A    between atoms: C_16  and  C_18
REMARK    8  A    between atoms: C_20  and  C_21
REMARK                            x       y       z     vdW  Elec       q    Type
REMARK                         _______ _______ _______ _____ _____    ______ ____
ROOT
ATOM      1  C   UNL     1       4.231   6.004  17.280  0.00  0.00    +0.000 A 
ATOM      2  C   UNL     1       4.722   4.887  16.584  0.00  0.00    +0.000 A 
ATOM      3  C   UNL     1       6.055   4.828  16.182  0.00  0.00    +0.000 A 
ATOM      4  C   UNL     1       6.911   5.897  16.437  0.00  0.00    +0.000 A 
ATOM      5  C   UNL     1       6.438   7.044  17.070  0.00  0.00    +0.000 A 
ATOM      6  C   UNL     1       5.102   7.089  17.487  0.00  0.00    +0.000 A 
ENDROOT
BRANCH   5   7
ATOM      7  N   UNL     1       7.239   8.171  17.359  0.00  0.00    +0.000 N 
ATOM      8  C   UNL     1       8.214   8.252  18.333  0.00  0.00    +0.000 C 
ATOM      9  O   UNL     1       8.570   7.327  19.058  0.00  0.00    +0.000 OA
ATOM     10  H   UNL     1       7.120   8.974  16.757  0.00  0.00    +0.000 HD
BRANCH   8  11
ATOM     11  C   UNL     1       8.856   9.538  18.463  0.00  0.00    +0.000 A 
ATOM     12  C   UNL     1       9.096  10.602  17.616  0.00  0.00    +0.000 A 
ATOM     13  C   UNL     1       9.781  11.576  18.404  0.00  0.00    +0.000 A 
ATOM     14  N   UNL     1       9.957  11.129  19.662  0.00  0.00    +0.000 NA
ATOM     15  N   UNL     1       9.390   9.915  19.665  0.00  0.00    +0.000 N 
ATOM     16  H   UNL     1       9.387   9.369  20.523  0.00  0.00    +0.000 HD
BRANCH  13  17
ATOM     17  C   UNL     1      10.264  12.929  17.953  0.00  0.00    +0.000 C 
ATOM     18  F   UNL     1       9.225  13.789  17.759  0.00  0.00    +0.000 F 
ATOM     19  F   UNL     1      11.085  13.520  18.861  0.00  0.00    +0.000 F 
ATOM     20  F   UNL     1      10.939  12.876  16.775  0.00  0.00    +0.000 F 
ENDBRANCH  13  17
ENDBRANCH   8  11
ENDBRANCH   5   7
BRANCH   1  22
ATOM     21  C   UNL     1       2.204   7.352  18.116  0.00  0.00    +0.000 C 
ATOM     22  C   UNL     1       2.813   5.963  17.854  0.00  0.00    +0.000 C 
BRANCH  22  23
ATOM     23  C   UNL     1       2.841   5.116  19.148  0.00  0.00    +0.000 C 
BRANCH  23  24
ATOM     24  C   UNL     1       1.967   3.913  19.101  0.00  0.00    +0.000 A 
ATOM     25  N   UNL     1       1.337   3.460  18.036  0.00  0.00    +0.000 NA
ATOM     26  N   UNL     1       0.612   2.354  18.404  0.00  0.00    +0.000 NA
ATOM     27  C   UNL     1       0.807   2.162  19.687  0.00  0.00    +0.000 A 
ATOM     28  N   UNL     1       1.662   3.106  20.163  0.00  0.00    +0.000 N 
ATOM     29  C   UNL     1       2.132   3.218  21.517  0.00  0.00    +0.000 C 
ENDBRANCH  23  24
ENDBRANCH  22  23
ENDBRANCH   1  22
TORSDOF 6
ENDMDL
