MODEL 1
REMARK VINA RESULT:      -8.2      0.000      0.000
REMARK  Name = 
REMARK  9 active torsions:
REMARK  status: ('A' for Active; 'I' for Inactive)
REMARK    1  A    between atoms: C_1  and  O_2
REMARK    2  A    between atoms: O_2  and  C_3
REMARK    3  A    between atoms: C_6  and  C_7
REMARK    4  A    between atoms: N_10  and  C_11
REMARK    5  A    between atoms: C_15  and  C_16
REMARK    6  A    between atoms: C_16  and  C_17
REMARK    7  A    between atoms: C_16  and  S_18
REMARK    8  A    between atoms: S_18  and  C_19
REMARK    9  A    between atoms: N_23  and  C_24
REMARK                            x       y       z     vdW  Elec       q    Type
REMARK                         _______ _______ _______ _____ _____    ______ ____
ROOT
ATOM      1  C   UNL     1       0.458   9.719  20.866  0.00  0.00    +0.000 A 
ATOM      2  C   UNL     1       0.556   9.014  22.071  0.00  0.00    +0.000 A 
ATOM      3  C   UNL     1      -0.106   9.485  23.203  0.00  0.00    +0.000 A 
ATOM      4  C   UNL     1      -0.890  10.638  23.129  0.00  0.00    +0.000 A 
ATOM      5  C   UNL     1      -1.042  11.332  21.917  0.00  0.00    +0.000 A 
ATOM      6  C   UNL     1      -0.338  10.872  20.792  0.00  0.00    +0.000 A 
ENDROOT
BRANCH   1  10
ATOM      7  C   UNL     1       2.302   8.040  18.442  0.00  0.00    +0.000 A 
ATOM      8  C   UNL     1       1.935   9.228  17.778  0.00  0.00    +0.000 A 
ATOM      9  N   UNL     1       1.217  10.012  18.579  0.00  0.00    +0.000 NA
ATOM     10  N   UNL     1       1.157   9.273  19.718  0.00  0.00    +0.000 N 
ATOM     11  N   UNL     1       1.841   8.097  19.700  0.00  0.00    +0.000 NA
BRANCH   7  15
ATOM     12  C   UNL     1       4.500   4.722  16.905  0.00  0.00    +0.000 A 
ATOM     13  C   UNL     1       3.285   4.514  17.561  0.00  0.00    +0.000 A 
ATOM     14  C   UNL     1       2.552   5.599  18.057  0.00  0.00    +0.000 A 
ATOM     15  C   UNL     1       3.045   6.901  17.923  0.00  0.00    +0.000 A 
ATOM     16  C   UNL     1       4.271   7.101  17.276  0.00  0.00    +0.000 A 
ATOM     17  C   UNL     1       4.995   6.016  16.770  0.00  0.00    +0.000 A 
BRANCH  12  19
ATOM     18  C   UNL     1       6.091   3.790  15.434  0.00  0.00    +0.000 C 
ATOM     19  O   UNL     1       5.135   3.592  16.470  0.00  0.00    +0.000 OA
ENDBRANCH  12  19
ENDBRANCH   7  15
ENDBRANCH   1  10
BRANCH   5  20
ATOM     20  C   UNL     1      -1.951  12.543  21.770  0.00  0.00    +0.000 C 
ATOM     21  C   UNL     1      -1.376  13.550  20.771  0.00  0.00    +0.000 C 
BRANCH  20  22
ATOM     22  S   UNL     1      -2.249  13.418  23.351  0.00  0.00    +0.000 S 
BRANCH  22  23
ATOM     23  C   UNL     1      -3.892  13.012  23.690  0.00  0.00    +0.000 A 
ATOM     24  N   UNL     1      -4.340  12.023  24.428  0.00  0.00    +0.000 NA
ATOM     25  N   UNL     1      -5.717  12.096  24.434  0.00  0.00    +0.000 NA
ATOM     26  C   UNL     1      -6.065  13.124  23.691  0.00  0.00    +0.000 A 
ATOM     27  N   UNL     1      -4.948  13.716  23.185  0.00  0.00    +0.000 N 
ATOM     28  C   UNL     1      -4.921  14.854  22.306  0.00  0.00    +0.000 C 
ENDBRANCH  22  23
ENDBRANCH  20  22
ENDBRANCH   5  20
TORSDOF 6
ENDMDL
MODEL 2
REMARK VINA RESULT:      -8.0      4.529     10.240
REMARK  Name = 
REMARK  9 active torsions:
REMARK  status: ('A' for Active; 'I' for Inactive)
REMARK    1  A    between atoms: C_1  and  O_2
REMARK    2  A    between atoms: O_2  and  C_3
REMARK    3  A    between atoms: C_6  and  C_7
REMARK    4  A    between atoms: N_10  and  C_11
REMARK    5  A    between atoms: C_15  and  C_16
REMARK    6  A    between atoms: C_16  and  C_17
REMARK    7  A    between atoms: C_16  and  S_18
REMARK    8  A    between atoms: S_18  and  C_19
REMARK    9  A    between atoms: N_23  and  C_24
REMARK                            x       y       z     vdW  Elec       q    Type
REMARK                         _______ _______ _______ _____ _____    ______ ____
ROOT
ATOM      1  C   UNL     1       1.073   9.192  20.049  0.00  0.00    +0.000 A 
ATOM      2  C   UNL     1       0.986   9.878  18.832  0.00  0.00    +0.000 A 
ATOM      3  C   UNL     1       1.652   9.383  17.712  0.00  0.00    +0.000 A 
ATOM      4  C   UNL     1       2.377   8.193  17.794  0.00  0.00    +0.000 A 
ATOM      5  C   UNL     1       2.435   7.463  18.993  0.00  0.00    +0.000 A 
ATOM      6  C   UNL     1       1.795   7.991  20.126  0.00  0.00    +0.000 A 
ENDROOT
BRANCH   1  10
ATOM      7  C   UNL     1      -0.662  10.999  22.460  0.00  0.00    +0.000 A 
ATOM      8  C   UNL     1      -0.295   9.832  23.159  0.00  0.00    +0.000 A 
ATOM      9  N   UNL     1       0.401   9.013  22.374  0.00  0.00    +0.000 NA
ATOM     10  N   UNL     1       0.434   9.704  21.204  0.00  0.00    +0.000 N 
ATOM     11  N   UNL     1      -0.151  10.932  21.223  0.00  0.00    +0.000 NA
BRANCH   7  15
ATOM     12  C   UNL     1      -2.973  14.315  23.827  0.00  0.00    +0.000 A 
ATOM     13  C   UNL     1      -3.559  13.052  23.715  0.00  0.00    +0.000 A 
ATOM     14  C   UNL     1      -2.803  11.957  23.278  0.00  0.00    +0.000 A 
ATOM     15  C   UNL     1      -1.460  12.124  22.926  0.00  0.00    +0.000 A 
ATOM     16  C   UNL     1      -0.883  13.396  23.029  0.00  0.00    +0.000 A 
ATOM     17  C   UNL     1      -1.637  14.487  23.478  0.00  0.00    +0.000 A 
BRANCH  12  19
ATOM     18  C   UNL     1      -5.177  15.151  23.913  0.00  0.00    +0.000 C 
ATOM     19  O   UNL     1      -3.804  15.313  24.254  0.00  0.00    +0.000 OA
ENDBRANCH  12  19
ENDBRANCH   7  15
ENDBRANCH   1  10
BRANCH   5  20
ATOM     20  C   UNL     1       3.141   6.121  19.106  0.00  0.00    +0.000 C 
ATOM     21  C   UNL     1       4.410   6.090  18.250  0.00  0.00    +0.000 C 
BRANCH  20  22
ATOM     22  S   UNL     1       2.088   4.707  18.612  0.00  0.00    +0.000 S 
BRANCH  22  23
ATOM     23  C   UNL     1       2.065   3.749  20.049  0.00  0.00    +0.000 A 
ATOM     24  N   UNL     1       1.133   3.706  20.972  0.00  0.00    +0.000 NA
ATOM     25  N   UNL     1       1.527   2.788  21.922  0.00  0.00    +0.000 NA
ATOM     26  C   UNL     1       2.694   2.307  21.552  0.00  0.00    +0.000 A 
ATOM     27  N   UNL     1       3.081   2.901  20.389  0.00  0.00    +0.000 N 
ATOM     28  C   UNL     1       4.310   2.656  19.684  0.00  0.00    +0.000 C 
ENDBRANCH  22  23
ENDBRANCH  20  22
ENDBRANCH   5  20
TORSDOF 6
ENDMDL
MODEL 3
REMARK VINA RESULT:      -7.9      8.372     10.299
REMARK  Name = 
REMARK  9 active torsions:
REMARK  status: ('A' for Active; 'I' for Inactive)
REMARK    1  A    between atoms: C_1  and  O_2
REMARK    2  A    between atoms: O_2  and  C_3
REMARK    3  A    between atoms: C_6  and  C_7
REMARK    4  A    between atoms: N_10  and  C_11
REMARK    5  A    between atoms: C_15  and  C_16
REMARK    6  A    between atoms: C_16  and  C_17
REMARK    7  A    between atoms: C_16  and  S_18
REMARK    8  A    between atoms: S_18  and  C_19
REMARK    9  A    between atoms: N_23  and  C_24
REMARK                            x       y       z     vdW  Elec       q    Type
REMARK                         _______ _______ _______ _____ _____    ______ ____
ROOT
ATOM      1  C   UNL     1       6.565   5.948  16.875  0.00  0.00    +0.000 A 
ATOM      2  C   UNL     1       6.920   5.626  15.560  0.00  0.00    +0.000 A 
ATOM      3  C   UNL     1       6.158   4.703  14.845  0.00  0.00    +0.000 A 
ATOM      4  C   UNL     1       5.026   4.127  15.425  0.00  0.00    +0.000 A 
ATOM      5  C   UNL     1       4.624   4.475  16.726  0.00  0.00    +0.000 A 
ATOM      6  C   UNL     1       5.422   5.374  17.452  0.00  0.00    +0.000 A 
ENDROOT
BRANCH   1  10
ATOM      7  C   UNL     1       8.285   8.649  18.230  0.00  0.00    +0.000 A 
ATOM      8  C   UNL     1       8.583   7.611  19.136  0.00  0.00    +0.000 A 
ATOM      9  N   UNL     1       8.002   6.475  18.758  0.00  0.00    +0.000 NA
ATOM     10  N   UNL     1       7.352   6.853  17.626  0.00  0.00    +0.000 N 
ATOM     11  N   UNL     1       7.535   8.145  17.239  0.00  0.00    +0.000 NA
BRANCH   7  15
ATOM     12  C   UNL     1       9.420  12.759  18.379  0.00  0.00    +0.000 A 
ATOM     13  C   UNL     1      10.049  11.828  19.209  0.00  0.00    +0.000 A 
ATOM     14  C   UNL     1       9.690  10.475  19.157  0.00  0.00    +0.000 A 
ATOM     15  C   UNL     1       8.678  10.049  18.290  0.00  0.00    +0.000 A 
ATOM     16  C   UNL     1       8.043  10.990  17.470  0.00  0.00    +0.000 A 
ATOM     17  C   UNL     1       8.413  12.339  17.515  0.00  0.00    +0.000 A 
BRANCH  12  19
ATOM     18  C   UNL     1      11.131  14.334  17.985  0.00  0.00    +0.000 C 
ATOM     19  O   UNL     1       9.842  14.051  18.520  0.00  0.00    +0.000 OA
ENDBRANCH  12  19
ENDBRANCH   7  15
ENDBRANCH   1  10
BRANCH   5  20
ATOM     20  C   UNL     1       3.354   3.936  17.365  0.00  0.00    +0.000 C 
ATOM     21  C   UNL     1       2.854   4.868  18.473  0.00  0.00    +0.000 C 
BRANCH  20  22
ATOM     22  S   UNL     1       3.559   2.262  18.080  0.00  0.00    +0.000 S 
BRANCH  22  23
ATOM     23  C   UNL     1       2.907   2.460  19.667  0.00  0.00    +0.000 A 
ATOM     24  N   UNL     1       3.564   2.620  20.792  0.00  0.00    +0.000 NA
ATOM     25  N   UNL     1       2.636   2.758  21.802  0.00  0.00    +0.000 NA
ATOM     26  C   UNL     1       1.440   2.669  21.261  0.00  0.00    +0.000 A 
ATOM     27  N   UNL     1       1.564   2.459  19.921  0.00  0.00    +0.000 N 
ATOM     28  C   UNL     1       0.482   2.284  18.991  0.00  0.00    +0.000 C 
ENDBRANCH  22  23
ENDBRANCH  20  22
ENDBRANCH   5  20
TORSDOF 6
ENDMDL
MODEL 4
REMARK VINA RESULT:      -7.8      0.893      1.311
REMARK  Name = 
REMARK  9 active torsions:
REMARK  status: ('A' for Active; 'I' for Inactive)
REMARK    1  A    between atoms: C_1  and  O_2
REMARK    2  A    between atoms: O_2  and  C_3
REMARK    3  A    between atoms: C_6  and  C_7
REMARK    4  A    between atoms: N_10  and  C_11
REMARK    5  A    between atoms: C_15  and  C_16
REMARK    6  A    between atoms: C_16  and  C_17
REMARK    7  A    between atoms: C_16  and  S_18
REMARK    8  A    between atoms: S_18  and  C_19
REMARK    9  A    between atoms: N_23  and  C_24
REMARK                            x       y       z     vdW  Elec       q    Type
REMARK                         _______ _______ _______ _____ _____    ______ ____
ROOT
ATOM      1  C   UNL     1       0.426   9.842  20.833  0.00  0.00    +0.000 A 
ATOM      2  C   UNL     1       0.074   8.978  21.877  0.00  0.00    +0.000 A 
ATOM      3  C   UNL     1      -0.580   9.482  23.000  0.00  0.00    +0.000 A 
ATOM      4  C   UNL     1      -0.912  10.837  23.071  0.00  0.00    +0.000 A 
ATOM      5  C   UNL     1      -0.612  11.710  22.012  0.00  0.00    +0.000 A 
ATOM      6  C   UNL     1       0.083  11.201  20.903  0.00  0.00    +0.000 A 
ENDROOT
BRANCH   1  10
ATOM      7  C   UNL     1       2.250   8.058  18.471  0.00  0.00    +0.000 A 
ATOM      8  C   UNL     1       1.925   9.240  17.776  0.00  0.00    +0.000 A 
ATOM      9  N   UNL     1       1.221  10.062  18.551  0.00  0.00    +0.000 NA
ATOM     10  N   UNL     1       1.126   9.351  19.705  0.00  0.00    +0.000 N 
ATOM     11  N   UNL     1       1.776   8.156  19.721  0.00  0.00    +0.000 NA
BRANCH   7  15
ATOM     12  C   UNL     1       4.326   4.606  17.066  0.00  0.00    +0.000 A 
ATOM     13  C   UNL     1       4.891   5.874  16.912  0.00  0.00    +0.000 A 
ATOM     14  C   UNL     1       4.221   7.010  17.382  0.00  0.00    +0.000 A 
ATOM     15  C   UNL     1       2.965   6.887  17.986  0.00  0.00    +0.000 A 
ATOM     16  C   UNL     1       2.399   5.613  18.125  0.00  0.00    +0.000 A 
ATOM     17  C   UNL     1       3.077   4.478  17.666  0.00  0.00    +0.000 A 
BRANCH  12  19
ATOM     18  C   UNL     1       5.939   3.906  15.493  0.00  0.00    +0.000 C 
ATOM     19  O   UNL     1       5.062   3.569  16.563  0.00  0.00    +0.000 OA
ENDBRANCH  12  19
ENDBRANCH   7  15
ENDBRANCH   1  10
BRANCH   5  20
ATOM     20  C   UNL     1      -1.029  13.173  22.009  0.00  0.00    +0.000 C 
ATOM     21  C   UNL     1      -1.254  13.687  23.434  0.00  0.00    +0.000 C 
BRANCH  20  22
ATOM     22  S   UNL     1      -2.554  13.488  21.044  0.00  0.00    +0.000 S 
BRANCH  22  23
ATOM     23  C   UNL     1      -3.783  13.359  22.250  0.00  0.00    +0.000 A 
ATOM     24  N   UNL     1      -4.235  12.269  22.824  0.00  0.00    +0.000 NA
ATOM     25  N   UNL     1      -5.196  12.645  23.737  0.00  0.00    +0.000 NA
ATOM     26  C   UNL     1      -5.307  13.954  23.684  0.00  0.00    +0.000 A 
ATOM     27  N   UNL     1      -4.450  14.444  22.745  0.00  0.00    +0.000 N 
ATOM     28  C   UNL     1      -4.299  15.826  22.380  0.00  0.00    +0.000 C 
ENDBRANCH  22  23
ENDBRANCH  20  22
ENDBRANCH   5  20
TORSDOF 6
ENDMDL
MODEL 5
REMARK VINA RESULT:      -7.8      7.976     10.222
REMARK  Name = 
REMARK  9 active torsions:
REMARK  status: ('A' for Active; 'I' for Inactive)
REMARK    1  A    between atoms: C_1  and  O_2
REMARK    2  A    between atoms: O_2  and  C_3
REMARK    3  A    between atoms: C_6  and  C_7
REMARK    4  A    between atoms: N_10  and  C_11
REMARK    5  A    between atoms: C_15  and  C_16
REMARK    6  A    between atoms: C_16  and  C_17
REMARK    7  A    between atoms: C_16  and  S_18
REMARK    8  A    between atoms: S_18  and  C_19
REMARK    9  A    between atoms: N_23  and  C_24
REMARK                            x       y       z     vdW  Elec       q    Type
REMARK                         _______ _______ _______ _____ _____    ______ ____
ROOT
ATOM      1  C   UNL     1       6.454   5.895  16.980  0.00  0.00    +0.000 A 
ATOM      2  C   UNL     1       6.902   5.313  15.788  0.00  0.00    +0.000 A 
ATOM      3  C   UNL     1       6.093   4.396  15.121  0.00  0.00    +0.000 A 
ATOM      4  C   UNL     1       4.827   4.082  15.620  0.00  0.00    +0.000 A 
ATOM      5  C   UNL     1       4.338   4.693  16.787  0.00  0.00    +0.000 A 
ATOM      6  C   UNL     1       5.178   5.585  17.474  0.00  0.00    +0.000 A 
ENDROOT
BRANCH   1  10
ATOM      7  C   UNL     1       8.251   8.592  18.241  0.00  0.00    +0.000 A 
ATOM      8  C   UNL     1       8.589   7.555  19.134  0.00  0.00    +0.000 A 
ATOM      9  N   UNL     1       7.984   6.421  18.788  0.00  0.00    +0.000 NA
ATOM     10  N   UNL     1       7.281   6.799  17.689  0.00  0.00    +0.000 N 
ATOM     11  N   UNL     1       7.451   8.089  17.290  0.00  0.00    +0.000 NA
BRANCH   7  15
ATOM     12  C   UNL     1       9.448  12.684  18.375  0.00  0.00    +0.000 A 
ATOM     13  C   UNL     1       8.422  12.283  17.517  0.00  0.00    +0.000 A 
ATOM     14  C   UNL     1       8.015  10.943  17.477  0.00  0.00    +0.000 A 
ATOM     15  C   UNL     1       8.653   9.990  18.277  0.00  0.00    +0.000 A 
ATOM     16  C   UNL     1       9.691  10.398  19.126  0.00  0.00    +0.000 A 
ATOM     17  C   UNL     1      10.086  11.740  19.173  0.00  0.00    +0.000 A 
BRANCH  12  19
ATOM     18  C   UNL     1       9.456  14.760  19.497  0.00  0.00    +0.000 C 
ATOM     19  O   UNL     1       9.769  14.012  18.326  0.00  0.00    +0.000 OA
ENDBRANCH  12  19
ENDBRANCH   7  15
ENDBRANCH   1  10
BRANCH   5  20
ATOM     20  C   UNL     1       2.935   4.445  17.319  0.00  0.00    +0.000 C 
ATOM     21  C   UNL     1       2.674   5.259  18.590  0.00  0.00    +0.000 C 
BRANCH  20  22
ATOM     22  S   UNL     1       2.607   2.683  17.695  0.00  0.00    +0.000 S 
BRANCH  22  23
ATOM     23  C   UNL     1       2.205   2.736  19.374  0.00  0.00    +0.000 A 
ATOM     24  N   UNL     1       1.031   2.966  19.913  0.00  0.00    +0.000 NA
ATOM     25  N   UNL     1       1.177   2.891  21.281  0.00  0.00    +0.000 NA
ATOM     26  C   UNL     1       2.440   2.627  21.534  0.00  0.00    +0.000 A 
ATOM     27  N   UNL     1       3.129   2.543  20.362  0.00  0.00    +0.000 N 
ATOM     28  C   UNL     1       4.538   2.292  20.228  0.00  0.00    +0.000 C 
ENDBRANCH  22  23
ENDBRANCH  20  22
ENDBRANCH   5  20
TORSDOF 6
ENDMDL
MODEL 6
REMARK VINA RESULT:      -7.7      4.528     10.575
REMARK  Name = 
REMARK  9 active torsions:
REMARK  status: ('A' for Active; 'I' for Inactive)
REMARK    1  A    between atoms: C_1  and  O_2
REMARK    2  A    between atoms: O_2  and  C_3
REMARK    3  A    between atoms: C_6  and  C_7
REMARK    4  A    between atoms: N_10  and  C_11
REMARK    5  A    between atoms: C_15  and  C_16
REMARK    6  A    between atoms: C_16  and  C_17
REMARK    7  A    between atoms: C_16  and  S_18
REMARK    8  A    between atoms: S_18  and  C_19
REMARK    9  A    between atoms: N_23  and  C_24
REMARK                            x       y       z     vdW  Elec       q    Type
REMARK                         _______ _______ _______ _____ _____    ______ ____
ROOT
ATOM      1  C   UNL     1       0.882   9.333  20.189  0.00  0.00    +0.000 A 
ATOM      2  C   UNL     1       0.783  10.023  18.976  0.00  0.00    +0.000 A 
ATOM      3  C   UNL     1       1.465   9.551  17.856  0.00  0.00    +0.000 A 
ATOM      4  C   UNL     1       2.217   8.378  17.934  0.00  0.00    +0.000 A 
ATOM      5  C   UNL     1       2.288   7.643  19.129  0.00  0.00    +0.000 A 
ATOM      6  C   UNL     1       1.631   8.149  20.263  0.00  0.00    +0.000 A 
ENDROOT
BRANCH   1  10
ATOM      7  C   UNL     1      -0.866  11.106  22.617  0.00  0.00    +0.000 A 
ATOM      8  C   UNL     1      -0.553   9.904  23.283  0.00  0.00    +0.000 A 
ATOM      9  N   UNL     1       0.141   9.093  22.488  0.00  0.00    +0.000 NA
ATOM     10  N   UNL     1       0.227   9.823  21.345  0.00  0.00    +0.000 N 
ATOM     11  N   UNL     1      -0.322  11.067  21.392  0.00  0.00    +0.000 NA
BRANCH   7  15
ATOM     12  C   UNL     1      -3.170  14.405  24.035  0.00  0.00    +0.000 A 
ATOM     13  C   UNL     1      -1.833  14.587  23.676  0.00  0.00    +0.000 A 
ATOM     14  C   UNL     1      -1.074  13.512  23.198  0.00  0.00    +0.000 A 
ATOM     15  C   UNL     1      -1.643  12.237  23.101  0.00  0.00    +0.000 A 
ATOM     16  C   UNL     1      -2.981  12.059  23.475  0.00  0.00    +0.000 A 
ATOM     17  C   UNL     1      -3.741  13.139  23.940  0.00  0.00    +0.000 A 
BRANCH  12  19
ATOM     18  C   UNL     1      -3.452  16.740  23.858  0.00  0.00    +0.000 C 
ATOM     19  O   UNL     1      -3.813  15.520  24.496  0.00  0.00    +0.000 OA
ENDBRANCH  12  19
ENDBRANCH   7  15
ENDBRANCH   1  10
BRANCH   5  20
ATOM     20  C   UNL     1       3.025   6.317  19.237  0.00  0.00    +0.000 C 
ATOM     21  C   UNL     1       3.272   5.706  17.855  0.00  0.00    +0.000 C 
BRANCH  20  22
ATOM     22  S   UNL     1       2.139   5.079  20.255  0.00  0.00    +0.000 S 
BRANCH  22  23
ATOM     23  C   UNL     1       2.881   3.600  19.762  0.00  0.00    +0.000 A 
ATOM     24  N   UNL     1       4.134   3.239  19.915  0.00  0.00    +0.000 NA
ATOM     25  N   UNL     1       4.272   1.973  19.389  0.00  0.00    +0.000 NA
ATOM     26  C   UNL     1       3.099   1.605  18.922  0.00  0.00    +0.000 A 
ATOM     27  N   UNL     1       2.198   2.608  19.116  0.00  0.00    +0.000 N 
ATOM     28  C   UNL     1       0.817   2.592  18.717  0.00  0.00    +0.000 C 
ENDBRANCH  22  23
ENDBRANCH  20  22
ENDBRANCH   5  20
TORSDOF 6
ENDMDL
MODEL 7
REMARK VINA RESULT:      -7.7      5.050     11.311
REMARK  Name = 
REMARK  9 active torsions:
REMARK  status: ('A' for Active; 'I' for Inactive)
REMARK    1  A    between atoms: C_1  and  O_2
REMARK    2  A    between atoms: O_2  and  C_3
REMARK    3  A    between atoms: C_6  and  C_7
REMARK    4  A    between atoms: N_10  and  C_11
REMARK    5  A    between atoms: C_15  and  C_16
REMARK    6  A    between atoms: C_16  and  C_17
REMARK    7  A    between atoms: C_16  and  S_18
REMARK    8  A    between atoms: S_18  and  C_19
REMARK    9  A    between atoms: N_23  and  C_24
REMARK                            x       y       z     vdW  Elec       q    Type
REMARK                         _______ _______ _______ _____ _____    ______ ____
ROOT
ATOM      1  C   UNL     1       2.987   6.055  17.936  0.00  0.00    +0.000 A 
ATOM      2  C   UNL     1       2.171   4.920  18.014  0.00  0.00    +0.000 A 
ATOM      3  C   UNL     1       2.691   3.672  17.677  0.00  0.00    +0.000 A 
ATOM      4  C   UNL     1       4.028   3.547  17.294  0.00  0.00    +0.000 A 
ATOM      5  C   UNL     1       4.877   4.666  17.258  0.00  0.00    +0.000 A 
ATOM      6  C   UNL     1       4.333   5.925  17.560  0.00  0.00    +0.000 A 
ENDROOT
BRANCH   1  10
ATOM      7  C   UNL     1       1.503   8.892  19.293  0.00  0.00    +0.000 A 
ATOM      8  C   UNL     1       1.983   9.362  18.054  0.00  0.00    +0.000 A 
ATOM      9  N   UNL     1       2.585   8.383  17.381  0.00  0.00    +0.000 NA
ATOM     10  N   UNL     1       2.462   7.335  18.237  0.00  0.00    +0.000 N 
ATOM     11  N   UNL     1       1.771   7.581  19.383  0.00  0.00    +0.000 NA
BRANCH   7  15
ATOM     12  C   UNL     1      -0.462  11.098  22.371  0.00  0.00    +0.000 A 
ATOM     13  C   UNL     1      -0.292   9.718  22.499  0.00  0.00    +0.000 A 
ATOM     14  C   UNL     1       0.364   8.989  21.498  0.00  0.00    +0.000 A 
ATOM     15  C   UNL     1       0.830   9.635  20.348  0.00  0.00    +0.000 A 
ATOM     16  C   UNL     1       0.644  11.017  20.221  0.00  0.00    +0.000 A 
ATOM     17  C   UNL     1      -0.000  11.745  21.228  0.00  0.00    +0.000 A 
BRANCH  12  19
ATOM     18  C   UNL     1      -1.405  13.090  23.213  0.00  0.00    +0.000 C 
ATOM     19  O   UNL     1      -1.122  11.707  23.401  0.00  0.00    +0.000 OA
ENDBRANCH  12  19
ENDBRANCH   7  15
ENDBRANCH   1  10
BRANCH   5  20
ATOM     20  C   UNL     1       6.358   4.565  16.929  0.00  0.00    +0.000 C 
ATOM     21  C   UNL     1       7.220   4.855  18.161  0.00  0.00    +0.000 C 
BRANCH  20  22
ATOM     22  S   UNL     1       6.880   5.701  15.590  0.00  0.00    +0.000 S 
BRANCH  22  23
ATOM     23  C   UNL     1       6.652   4.732  14.179  0.00  0.00    +0.000 A 
ATOM     24  N   UNL     1       5.783   3.765  14.000  0.00  0.00    +0.000 NA
ATOM     25  N   UNL     1       5.947   3.288  12.717  0.00  0.00    +0.000 NA
ATOM     26  C   UNL     1       6.918   3.975  12.157  0.00  0.00    +0.000 A 
ATOM     27  N   UNL     1       7.406   4.881  13.050  0.00  0.00    +0.000 N 
ATOM     28  C   UNL     1       8.489   5.797  12.816  0.00  0.00    +0.000 C 
ENDBRANCH  22  23
ENDBRANCH  20  22
ENDBRANCH   5  20
TORSDOF 6
ENDMDL
MODEL 8
REMARK VINA RESULT:      -7.7      4.511     10.589
REMARK  Name = 
REMARK  9 active torsions:
REMARK  status: ('A' for Active; 'I' for Inactive)
REMARK    1  A    between atoms: C_1  and  O_2
REMARK    2  A    between atoms: O_2  and  C_3
REMARK    3  A    between atoms: C_6  and  C_7
REMARK    4  A    between atoms: N_10  and  C_11
REMARK    5  A    between atoms: C_15  and  C_16
REMARK    6  A    between atoms: C_16  and  C_17
REMARK    7  A    between atoms: C_16  and  S_18
REMARK    8  A    between atoms: S_18  and  C_19
REMARK    9  A    between atoms: N_23  and  C_24
REMARK                            x       y       z     vdW  Elec       q    Type
REMARK                         _______ _______ _______ _____ _____    ______ ____
ROOT
ATOM      1  C   UNL     1       0.842   9.305  20.168  0.00  0.00    +0.000 A 
ATOM      2  C   UNL     1       0.680   9.954  18.939  0.00  0.00    +0.000 A 
ATOM      3  C   UNL     1       1.336   9.468  17.809  0.00  0.00    +0.000 A 
ATOM      4  C   UNL     1       2.125   8.319  17.895  0.00  0.00    +0.000 A 
ATOM      5  C   UNL     1       2.259   7.623  19.108  0.00  0.00    +0.000 A 
ATOM      6  C   UNL     1       1.627   8.145  20.249  0.00  0.00    +0.000 A 
ENDROOT
BRANCH   1  10
ATOM      7  C   UNL     1      -0.877  11.097  22.602  0.00  0.00    +0.000 A 
ATOM      8  C   UNL     1      -0.494   9.931  23.295  0.00  0.00    +0.000 A 
ATOM      9  N   UNL     1       0.198   9.117  22.501  0.00  0.00    +0.000 NA
ATOM     10  N   UNL     1       0.213   9.810  21.332  0.00  0.00    +0.000 N 
ATOM     11  N   UNL     1      -0.379  11.035  21.359  0.00  0.00    +0.000 NA
BRANCH   7  15
ATOM     12  C   UNL     1      -3.191  14.396  24.004  0.00  0.00    +0.000 A 
ATOM     13  C   UNL     1      -3.789  13.147  23.824  0.00  0.00    +0.000 A 
ATOM     14  C   UNL     1      -3.033  12.056  23.376  0.00  0.00    +0.000 A 
ATOM     15  C   UNL     1      -1.676  12.216  23.079  0.00  0.00    +0.000 A 
ATOM     16  C   UNL     1      -1.085  13.475  23.249  0.00  0.00    +0.000 A 
ATOM     17  C   UNL     1      -1.841  14.560  23.709  0.00  0.00    +0.000 A 
BRANCH  12  19
ATOM     18  C   UNL     1      -5.345  15.353  23.905  0.00  0.00    +0.000 C 
ATOM     19  O   UNL     1      -4.024  15.390  24.435  0.00  0.00    +0.000 OA
ENDBRANCH  12  19
ENDBRANCH   7  15
ENDBRANCH   1  10
BRANCH   5  20
ATOM     20  C   UNL     1       3.038   6.323  19.228  0.00  0.00    +0.000 C 
ATOM     21  C   UNL     1       3.367   5.745  17.849  0.00  0.00    +0.000 C 
BRANCH  20  22
ATOM     22  S   UNL     1       2.154   5.037  20.188  0.00  0.00    +0.000 S 
BRANCH  22  23
ATOM     23  C   UNL     1       3.047   3.612  19.799  0.00  0.00    +0.000 A 
ATOM     24  N   UNL     1       4.309   3.358  20.057  0.00  0.00    +0.000 NA
ATOM     25  N   UNL     1       4.587   2.094  19.584  0.00  0.00    +0.000 NA
ATOM     26  C   UNL     1       3.486   1.619  19.043  0.00  0.00    +0.000 A 
ATOM     27  N   UNL     1       2.497   2.551  19.137  0.00  0.00    +0.000 N 
ATOM     28  C   UNL     1       1.156   2.411  18.637  0.00  0.00    +0.000 C 
ENDBRANCH  22  23
ENDBRANCH  20  22
ENDBRANCH   5  20
TORSDOF 6
ENDMDL
MODEL 9
REMARK VINA RESULT:      -7.7      3.733      4.303
REMARK  Name = 
REMARK  9 active torsions:
REMARK  status: ('A' for Active; 'I' for Inactive)
REMARK    1  A    between atoms: C_1  and  O_2
REMARK    2  A    between atoms: O_2  and  C_3
REMARK    3  A    between atoms: C_6  and  C_7
REMARK    4  A    between atoms: N_10  and  C_11
REMARK    5  A    between atoms: C_15  and  C_16
REMARK    6  A    between atoms: C_16  and  C_17
REMARK    7  A    between atoms: C_16  and  S_18
REMARK    8  A    between atoms: S_18  and  C_19
REMARK    9  A    between atoms: N_23  and  C_24
REMARK                            x       y       z     vdW  Elec       q    Type
REMARK                         _______ _______ _______ _____ _____    ______ ____
ROOT
ATOM      1  C   UNL     1       1.211   8.421  20.692  0.00  0.00    +0.000 A 
ATOM      2  C   UNL     1       0.855   8.408  22.046  0.00  0.00    +0.000 A 
ATOM      3  C   UNL     1       0.257   9.532  22.613  0.00  0.00    +0.000 A 
ATOM      4  C   UNL     1      -0.018  10.654  21.828  0.00  0.00    +0.000 A 
ATOM      5  C   UNL     1       0.285  10.667  20.456  0.00  0.00    +0.000 A 
ATOM      6  C   UNL     1       0.925   9.546  19.904  0.00  0.00    +0.000 A 
ENDROOT
BRANCH   1  10
ATOM      7  C   UNL     1       3.031   6.149  18.791  0.00  0.00    +0.000 A 
ATOM      8  C   UNL     1       2.520   5.340  19.825  0.00  0.00    +0.000 A 
ATOM      9  N   UNL     1       1.773   6.060  20.660  0.00  0.00    +0.000 NA
ATOM     10  N   UNL     1       1.855   7.301  20.113  0.00  0.00    +0.000 N 
ATOM     11  N   UNL     1       2.563   7.394  18.954  0.00  0.00    +0.000 NA
BRANCH   7  15
ATOM     12  C   UNL     1       5.644   5.025  15.611  0.00  0.00    +0.000 A 
ATOM     13  C   UNL     1       5.381   6.374  15.858  0.00  0.00    +0.000 A 
ATOM     14  C   UNL     1       4.534   6.751  16.908  0.00  0.00    +0.000 A 
ATOM     15  C   UNL     1       3.923   5.776  17.702  0.00  0.00    +0.000 A 
ATOM     16  C   UNL     1       4.181   4.424  17.441  0.00  0.00    +0.000 A 
ATOM     17  C   UNL     1       5.037   4.051  16.399  0.00  0.00    +0.000 A 
BRANCH  12  19
ATOM     18  C   UNL     1       5.965   3.874  13.577  0.00  0.00    +0.000 C 
ATOM     19  O   UNL     1       6.477   4.772  14.557  0.00  0.00    +0.000 OA
ENDBRANCH  12  19
ENDBRANCH   7  15
ENDBRANCH   1  10
BRANCH   5  20
ATOM     20  C   UNL     1      -0.072  11.832  19.547  0.00  0.00    +0.000 C 
ATOM     21  C   UNL     1      -0.924  11.369  18.362  0.00  0.00    +0.000 C 
BRANCH  20  22
ATOM     22  S   UNL     1       1.395  12.706  18.884  0.00  0.00    +0.000 S 
BRANCH  22  23
ATOM     23  C   UNL     1       1.863  13.697  20.218  0.00  0.00    +0.000 A 
ATOM     24  N   UNL     1       2.582  13.353  21.261  0.00  0.00    +0.000 NA
ATOM     25  N   UNL     1       2.722  14.469  22.058  0.00  0.00    +0.000 NA
ATOM     26  C   UNL     1       2.076  15.458  21.479  0.00  0.00    +0.000 A 
ATOM     27  N   UNL     1       1.502  15.010  20.328  0.00  0.00    +0.000 N 
ATOM     28  C   UNL     1       0.693  15.789  19.430  0.00  0.00    +0.000 C 
ENDBRANCH  22  23
ENDBRANCH  20  22
ENDBRANCH   5  20
TORSDOF 6
ENDMDL
