MODEL 1
REMARK VINA RESULT:      -8.0      0.000      0.000
REMARK  Name = 
REMARK  9 active torsions:
REMARK  status: ('A' for Active; 'I' for Inactive)
REMARK    1  A    between atoms: C_1  and  C_2
REMARK    2  A    between atoms: C_5  and  C_6
REMARK    3  A    between atoms: N_8  and  C_9
REMARK    4  A    between atoms: C_13  and  C_14
REMARK    5  A    between atoms: C_14  and  C_15
REMARK    6  A    between atoms: C_14  and  S_16
REMARK    7  A    between atoms: S_16  and  C_17
REMARK    8  A    between atoms: N_21  and  C_22
REMARK    9  A    between atoms: C_25  and  C_26
REMARK                            x       y       z     vdW  Elec       q    Type
REMARK                         _______ _______ _______ _____ _____    ______ ____
ROOT
ATOM      1  C   UNL     1       7.868   8.021  17.964  0.00  0.00    +0.000 A 
ATOM      2  C   UNL     1       8.404   7.204  18.964  0.00  0.00    +0.000 A 
ATOM      3  C   UNL     1       7.937   5.905  19.163  0.00  0.00    +0.000 A 
ATOM      4  C   UNL     1       6.923   5.402  18.359  0.00  0.00    +0.000 A 
ATOM      5  C   UNL     1       6.364   6.192  17.340  0.00  0.00    +0.000 A 
ATOM      6  C   UNL     1       6.832   7.513  17.168  0.00  0.00    +0.000 A 
ENDROOT
BRANCH   1   9
ATOM      7  C   UNL     1       8.985  10.128  18.665  0.00  0.00    +0.000 C 
ATOM      8  O   UNL     1       9.346   9.765  19.784  0.00  0.00    +0.000 OA
ATOM      9  N   UNL     1       8.325   9.341  17.733  0.00  0.00    +0.000 N 
ATOM     10  H   UNL     1       8.251   9.727  16.799  0.00  0.00    +0.000 HD
BRANCH   7  15
ATOM     11  C   UNL     1      10.548  15.414  17.368  0.00  0.00    +0.000 C 
ATOM     12  C   UNL     1      10.073  14.019  17.642  0.00  0.00    +0.000 A 
ATOM     13  N   UNL     1      11.063  13.125  17.908  0.00  0.00    +0.000 NA
ATOM     14  C   UNL     1      10.658  11.877  18.224  0.00  0.00    +0.000 A 
ATOM     15  C   UNL     1       9.321  11.515  18.249  0.00  0.00    +0.000 A 
ATOM     16  N   UNL     1       8.318  12.391  17.968  0.00  0.00    +0.000 NA
ATOM     17  C   UNL     1       8.701  13.676  17.678  0.00  0.00    +0.000 A 
BRANCH  17  18
ATOM     18  C   UNL     1       7.606  14.715  17.525  0.00  0.00    +0.000 C 
ATOM     19  C   UNL     1       6.174  14.446  17.929  0.00  0.00    +0.000 C 
ATOM     20  C   UNL     1       7.014  15.372  18.753  0.00  0.00    +0.000 C 
ENDBRANCH  17  18
ENDBRANCH   7  15
ENDBRANCH   1   9
BRANCH   5  21
ATOM     21  C   UNL     1       5.284   5.637  16.421  0.00  0.00    +0.000 C 
ATOM     22  C   UNL     1       3.981   5.406  17.191  0.00  0.00    +0.000 C 
BRANCH  21  23
ATOM     23  S   UNL     1       5.769   4.054  15.627  0.00  0.00    +0.000 S 
BRANCH  23  24
ATOM     24  C   UNL     1       6.762   4.646  14.347  0.00  0.00    +0.000 A 
ATOM     25  N   UNL     1       7.748   5.506  14.455  0.00  0.00    +0.000 NA
ATOM     26  N   UNL     1       8.295   5.667  13.200  0.00  0.00    +0.000 NA
ATOM     27  C   UNL     1       7.628   4.894  12.372  0.00  0.00    +0.000 A 
ATOM     28  N   UNL     1       6.641   4.243  13.049  0.00  0.00    +0.000 N 
ATOM     29  C   UNL     1       5.700   3.314  12.487  0.00  0.00    +0.000 C 
ENDBRANCH  23  24
ENDBRANCH  21  23
ENDBRANCH   5  21
TORSDOF 6
ENDMDL
MODEL 2
REMARK VINA RESULT:      -8.0      6.957      9.952
REMARK  Name = 
REMARK  9 active torsions:
REMARK  status: ('A' for Active; 'I' for Inactive)
REMARK    1  A    between atoms: C_1  and  C_2
REMARK    2  A    between atoms: C_5  and  C_6
REMARK    3  A    between atoms: N_8  and  C_9
REMARK    4  A    between atoms: C_13  and  C_14
REMARK    5  A    between atoms: C_14  and  C_15
REMARK    6  A    between atoms: C_14  and  S_16
REMARK    7  A    between atoms: S_16  and  C_17
REMARK    8  A    between atoms: N_21  and  C_22
REMARK    9  A    between atoms: C_25  and  C_26
REMARK                            x       y       z     vdW  Elec       q    Type
REMARK                         _______ _______ _______ _____ _____    ______ ____
ROOT
ATOM      1  C   UNL     1       1.416   8.691  19.716  0.00  0.00    +0.000 A 
ATOM      2  C   UNL     1       1.093   8.347  21.033  0.00  0.00    +0.000 A 
ATOM      3  C   UNL     1       0.256   9.150  21.804  0.00  0.00    +0.000 A 
ATOM      4  C   UNL     1      -0.276  10.316  21.267  0.00  0.00    +0.000 A 
ATOM      5  C   UNL     1       0.022  10.690  19.946  0.00  0.00    +0.000 A 
ATOM      6  C   UNL     1       0.891   9.878  19.186  0.00  0.00    +0.000 A 
ENDROOT
BRANCH   1   9
ATOM      7  C   UNL     1       2.548   6.555  19.134  0.00  0.00    +0.000 C 
ATOM      8  O   UNL     1       2.047   5.854  20.011  0.00  0.00    +0.000 OA
ATOM      9  N   UNL     1       2.259   7.893  18.905  0.00  0.00    +0.000 N 
ATOM     10  H   UNL     1       2.619   8.283  18.042  0.00  0.00    +0.000 HD
BRANCH   7  15
ATOM     11  C   UNL     1       6.112   3.751  15.743  0.00  0.00    +0.000 C 
ATOM     12  C   UNL     1       5.196   4.572  16.600  0.00  0.00    +0.000 A 
ATOM     13  N   UNL     1       3.957   4.039  16.777  0.00  0.00    +0.000 NA
ATOM     14  C   UNL     1       3.135   4.725  17.599  0.00  0.00    +0.000 A 
ATOM     15  C   UNL     1       3.513   5.913  18.203  0.00  0.00    +0.000 A 
ATOM     16  N   UNL     1       4.741   6.470  18.023  0.00  0.00    +0.000 NA
ATOM     17  C   UNL     1       5.609   5.774  17.220  0.00  0.00    +0.000 A 
BRANCH  17  18
ATOM     18  C   UNL     1       7.037   6.277  17.133  0.00  0.00    +0.000 C 
ATOM     19  C   UNL     1       7.424   7.685  17.526  0.00  0.00    +0.000 C 
ATOM     20  C   UNL     1       7.825   6.536  18.399  0.00  0.00    +0.000 C 
ENDBRANCH  17  18
ENDBRANCH   7  15
ENDBRANCH   1   9
BRANCH   5  21
ATOM     21  C   UNL     1      -0.591  11.941  19.329  0.00  0.00    +0.000 C 
ATOM     22  C   UNL     1      -0.084  13.200  20.037  0.00  0.00    +0.000 C 
BRANCH  21  23
ATOM     23  S   UNL     1      -2.426  11.943  19.399  0.00  0.00    +0.000 S 
BRANCH  23  24
ATOM     24  C   UNL     1      -2.794  11.453  17.786  0.00  0.00    +0.000 A 
ATOM     25  N   UNL     1      -1.949  10.975  16.902  0.00  0.00    +0.000 NA
ATOM     26  N   UNL     1      -2.667  10.676  15.764  0.00  0.00    +0.000 NA
ATOM     27  C   UNL     1      -3.926  10.977  15.996  0.00  0.00    +0.000 A 
ATOM     28  N   UNL     1      -4.050  11.486  17.255  0.00  0.00    +0.000 N 
ATOM     29  C   UNL     1      -5.269  11.932  17.871  0.00  0.00    +0.000 C 
ENDBRANCH  23  24
ENDBRANCH  21  23
ENDBRANCH   5  21
TORSDOF 6
ENDMDL
MODEL 3
REMARK VINA RESULT:      -8.0      5.898      9.615
REMARK  Name = 
REMARK  9 active torsions:
REMARK  status: ('A' for Active; 'I' for Inactive)
REMARK    1  A    between atoms: C_1  and  C_2
REMARK    2  A    between atoms: C_5  and  C_6
REMARK    3  A    between atoms: N_8  and  C_9
REMARK    4  A    between atoms: C_13  and  C_14
REMARK    5  A    between atoms: C_14  and  C_15
REMARK    6  A    between atoms: C_14  and  S_16
REMARK    7  A    between atoms: S_16  and  C_17
REMARK    8  A    between atoms: N_21  and  C_22
REMARK    9  A    between atoms: C_25  and  C_26
REMARK                            x       y       z     vdW  Elec       q    Type
REMARK                         _______ _______ _______ _____ _____    ______ ____
ROOT
ATOM      1  C   UNL     1       3.324   5.582  18.792  0.00  0.00    +0.000 A 
ATOM      2  C   UNL     1       2.877   4.416  19.423  0.00  0.00    +0.000 A 
ATOM      3  C   UNL     1       1.979   4.471  20.488  0.00  0.00    +0.000 A 
ATOM      4  C   UNL     1       1.511   5.699  20.939  0.00  0.00    +0.000 A 
ATOM      5  C   UNL     1       1.934   6.890  20.325  0.00  0.00    +0.000 A 
ATOM      6  C   UNL     1       2.862   6.818  19.264  0.00  0.00    +0.000 A 
ENDROOT
BRANCH   1   9
ATOM      7  C   UNL     1       4.356   4.517  16.796  0.00  0.00    +0.000 C 
ATOM      8  O   UNL     1       3.644   3.516  16.751  0.00  0.00    +0.000 OA
ATOM      9  N   UNL     1       4.230   5.559  17.704  0.00  0.00    +0.000 N 
ATOM     10  H   UNL     1       4.775   6.389  17.505  0.00  0.00    +0.000 HD
BRANCH   7  15
ATOM     11  C   UNL     1       8.428   5.438  12.971  0.00  0.00    +0.000 C 
ATOM     12  C   UNL     1       7.350   5.106  13.957  0.00  0.00    +0.000 A 
ATOM     13  N   UNL     1       7.503   5.682  15.180  0.00  0.00    +0.000 NA
ATOM     14  C   UNL     1       6.511   5.453  16.065  0.00  0.00    +0.000 A 
ATOM     15  C   UNL     1       5.418   4.657  15.765  0.00  0.00    +0.000 A 
ATOM     16  N   UNL     1       5.257   4.058  14.554  0.00  0.00    +0.000 NA
ATOM     17  C   UNL     1       6.234   4.303  13.623  0.00  0.00    +0.000 A 
BRANCH  17  18
ATOM     18  C   UNL     1       6.003   3.790  12.214  0.00  0.00    +0.000 C 
ATOM     19  C   UNL     1       5.833   2.320  11.907  0.00  0.00    +0.000 C 
ATOM     20  C   UNL     1       4.650   3.235  11.826  0.00  0.00    +0.000 C 
ENDBRANCH  17  18
ENDBRANCH   7  15
ENDBRANCH   1   9
BRANCH   5  21
ATOM     21  C   UNL     1       1.394   8.240  20.779  0.00  0.00    +0.000 C 
ATOM     22  C   UNL     1       0.028   8.081  21.451  0.00  0.00    +0.000 C 
BRANCH  21  23
ATOM     23  S   UNL     1       1.217   9.437  19.397  0.00  0.00    +0.000 S 
BRANCH  23  24
ATOM     24  C   UNL     1       0.608  10.805  20.253  0.00  0.00    +0.000 A 
ATOM     25  N   UNL     1       1.201  11.438  21.239  0.00  0.00    +0.000 NA
ATOM     26  N   UNL     1       0.388  12.491  21.601  0.00  0.00    +0.000 NA
ATOM     27  C   UNL     1      -0.670  12.466  20.820  0.00  0.00    +0.000 A 
ATOM     28  N   UNL     1      -0.581  11.409  19.964  0.00  0.00    +0.000 N 
ATOM     29  C   UNL     1      -1.545  11.048  18.962  0.00  0.00    +0.000 C 
ENDBRANCH  23  24
ENDBRANCH  21  23
ENDBRANCH   5  21
TORSDOF 6
ENDMDL
MODEL 4
REMARK VINA RESULT:      -7.9      5.182      7.484
REMARK  Name = 
REMARK  9 active torsions:
REMARK  status: ('A' for Active; 'I' for Inactive)
REMARK    1  A    between atoms: C_1  and  C_2
REMARK    2  A    between atoms: C_5  and  C_6
REMARK    3  A    between atoms: N_8  and  C_9
REMARK    4  A    between atoms: C_13  and  C_14
REMARK    5  A    between atoms: C_14  and  C_15
REMARK    6  A    between atoms: C_14  and  S_16
REMARK    7  A    between atoms: S_16  and  C_17
REMARK    8  A    between atoms: N_21  and  C_22
REMARK    9  A    between atoms: C_25  and  C_26
REMARK                            x       y       z     vdW  Elec       q    Type
REMARK                         _______ _______ _______ _____ _____    ______ ____
ROOT
ATOM      1  C   UNL     1       2.555   5.923  18.216  0.00  0.00    +0.000 A 
ATOM      2  C   UNL     1       1.913   4.684  18.310  0.00  0.00    +0.000 A 
ATOM      3  C   UNL     1       2.428   3.554  17.679  0.00  0.00    +0.000 A 
ATOM      4  C   UNL     1       3.601   3.645  16.940  0.00  0.00    +0.000 A 
ATOM      5  C   UNL     1       4.277   4.873  16.828  0.00  0.00    +0.000 A 
ATOM      6  C   UNL     1       3.728   6.013  17.454  0.00  0.00    +0.000 A 
ENDROOT
BRANCH   1   9
ATOM      7  C   UNL     1       1.768   7.193  20.203  0.00  0.00    +0.000 C 
ATOM      8  O   UNL     1       1.981   6.329  21.052  0.00  0.00    +0.000 OA
ATOM      9  N   UNL     1       2.060   7.088  18.851  0.00  0.00    +0.000 N 
ATOM     10  H   UNL     1       1.988   7.944  18.314  0.00  0.00    +0.000 HD
BRANCH   7  15
ATOM     11  C   UNL     1      -0.512  11.930  22.307  0.00  0.00    +0.000 C 
ATOM     12  C   UNL     1       0.110  10.723  21.673  0.00  0.00    +0.000 A 
ATOM     13  N   UNL     1       0.921  10.005  22.494  0.00  0.00    +0.000 NA
ATOM     14  C   UNL     1       1.440   8.876  21.968  0.00  0.00    +0.000 A 
ATOM     15  C   UNL     1       1.190   8.483  20.662  0.00  0.00    +0.000 A 
ATOM     16  N   UNL     1       0.396   9.198  19.821  0.00  0.00    +0.000 NA
ATOM     17  C   UNL     1      -0.173  10.332  20.343  0.00  0.00    +0.000 A 
BRANCH  17  18
ATOM     18  C   UNL     1      -1.193  11.060  19.488  0.00  0.00    +0.000 C 
ATOM     19  C   UNL     1      -0.806  12.163  18.529  0.00  0.00    +0.000 C 
ATOM     20  C   UNL     1      -1.227  10.830  17.993  0.00  0.00    +0.000 C 
ENDBRANCH  17  18
ENDBRANCH   7  15
ENDBRANCH   1   9
BRANCH   5  21
ATOM     21  C   UNL     1       5.588   4.978  16.060  0.00  0.00    +0.000 C 
ATOM     22  C   UNL     1       5.602   4.012  14.873  0.00  0.00    +0.000 C 
BRANCH  21  23
ATOM     23  S   UNL     1       7.055   4.621  17.106  0.00  0.00    +0.000 S 
BRANCH  23  24
ATOM     24  C   UNL     1       7.533   6.227  17.519  0.00  0.00    +0.000 A 
ATOM     25  N   UNL     1       7.465   7.286  16.747  0.00  0.00    +0.000 NA
ATOM     26  N   UNL     1       7.909   8.363  17.484  0.00  0.00    +0.000 NA
ATOM     27  C   UNL     1       8.226   7.924  18.682  0.00  0.00    +0.000 A 
ATOM     28  N   UNL     1       8.020   6.578  18.744  0.00  0.00    +0.000 N 
ATOM     29  C   UNL     1       8.256   5.738  19.886  0.00  0.00    +0.000 C 
ENDBRANCH  23  24
ENDBRANCH  21  23
ENDBRANCH   5  21
TORSDOF 6
ENDMDL
MODEL 5
REMARK VINA RESULT:      -7.9      7.224     10.518
REMARK  Name = 
REMARK  9 active torsions:
REMARK  status: ('A' for Active; 'I' for Inactive)
REMARK    1  A    between atoms: C_1  and  C_2
REMARK    2  A    between atoms: C_5  and  C_6
REMARK    3  A    between atoms: N_8  and  C_9
REMARK    4  A    between atoms: C_13  and  C_14
REMARK    5  A    between atoms: C_14  and  C_15
REMARK    6  A    between atoms: C_14  and  S_16
REMARK    7  A    between atoms: S_16  and  C_17
REMARK    8  A    between atoms: N_21  and  C_22
REMARK    9  A    between atoms: C_25  and  C_26
REMARK                            x       y       z     vdW  Elec       q    Type
REMARK                         _______ _______ _______ _____ _____    ______ ____
ROOT
ATOM      1  C   UNL     1       1.092   8.951  20.295  0.00  0.00    +0.000 A 
ATOM      2  C   UNL     1       0.824   8.964  21.668  0.00  0.00    +0.000 A 
ATOM      3  C   UNL     1       0.025   9.953  22.238  0.00  0.00    +0.000 A 
ATOM      4  C   UNL     1      -0.523  10.949  21.439  0.00  0.00    +0.000 A 
ATOM      5  C   UNL     1      -0.279  10.964  20.055  0.00  0.00    +0.000 A 
ATOM      6  C   UNL     1       0.551   9.969  19.498  0.00  0.00    +0.000 A 
ENDROOT
BRANCH   1   9
ATOM      7  C   UNL     1       2.322   7.977  18.366  0.00  0.00    +0.000 C 
ATOM      8  O   UNL     1       2.144   8.898  17.570  0.00  0.00    +0.000 OA
ATOM      9  N   UNL     1       1.894   7.956  19.686  0.00  0.00    +0.000 N 
ATOM     10  H   UNL     1       2.266   7.209  20.261  0.00  0.00    +0.000 HD
BRANCH   7  15
ATOM     11  C   UNL     1       5.402   3.716  16.265  0.00  0.00    +0.000 C 
ATOM     12  C   UNL     1       4.566   4.789  16.893  0.00  0.00    +0.000 A 
ATOM     13  N   UNL     1       5.111   6.034  16.843  0.00  0.00    +0.000 NA
ATOM     14  C   UNL     1       4.348   7.030  17.341  0.00  0.00    +0.000 A 
ATOM     15  C   UNL     1       3.100   6.800  17.898  0.00  0.00    +0.000 A 
ATOM     16  N   UNL     1       2.547   5.560  17.974  0.00  0.00    +0.000 NA
ATOM     17  C   UNL     1       3.287   4.534  17.441  0.00  0.00    +0.000 A 
BRANCH  17  18
ATOM     18  C   UNL     1       2.632   3.169  17.357  0.00  0.00    +0.000 C 
ATOM     19  C   UNL     1       3.016   2.029  18.274  0.00  0.00    +0.000 C 
ATOM     20  C   UNL     1       1.696   2.712  18.455  0.00  0.00    +0.000 C 
ENDBRANCH  17  18
ENDBRANCH   7  15
ENDBRANCH   1   9
BRANCH   5  21
ATOM     21  C   UNL     1      -0.911  12.023  19.161  0.00  0.00    +0.000 C 
ATOM     22  C   UNL     1      -0.555  13.430  19.649  0.00  0.00    +0.000 C 
BRANCH  21  23
ATOM     23  S   UNL     1      -2.741  11.890  19.082  0.00  0.00    +0.000 S 
BRANCH  23  24
ATOM     24  C   UNL     1      -2.932  11.258  17.488  0.00  0.00    +0.000 A 
ATOM     25  N   UNL     1      -2.039  10.585  16.800  0.00  0.00    +0.000 NA
ATOM     26  N   UNL     1      -2.618  10.238  15.598  0.00  0.00    +0.000 NA
ATOM     27  C   UNL     1      -3.847  10.707  15.598  0.00  0.00    +0.000 A 
ATOM     28  N   UNL     1      -4.083  11.372  16.764  0.00  0.00    +0.000 N 
ATOM     29  C   UNL     1      -5.309  12.026  17.132  0.00  0.00    +0.000 C 
ENDBRANCH  23  24
ENDBRANCH  21  23
ENDBRANCH   5  21
TORSDOF 6
ENDMDL
MODEL 6
REMARK VINA RESULT:      -7.9      5.675      7.021
REMARK  Name = 
REMARK  9 active torsions:
REMARK  status: ('A' for Active; 'I' for Inactive)
REMARK    1  A    between atoms: C_1  and  C_2
REMARK    2  A    between atoms: C_5  and  C_6
REMARK    3  A    between atoms: N_8  and  C_9
REMARK    4  A    between atoms: C_13  and  C_14
REMARK    5  A    between atoms: C_14  and  C_15
REMARK    6  A    between atoms: C_14  and  S_16
REMARK    7  A    between atoms: S_16  and  C_17
REMARK    8  A    between atoms: N_21  and  C_22
REMARK    9  A    between atoms: C_25  and  C_26
REMARK                            x       y       z     vdW  Elec       q    Type
REMARK                         _______ _______ _______ _____ _____    ______ ____
ROOT
ATOM      1  C   UNL     1       2.702   5.885  19.913  0.00  0.00    +0.000 A 
ATOM      2  C   UNL     1       2.627   4.587  20.428  0.00  0.00    +0.000 A 
ATOM      3  C   UNL     1       3.370   3.546  19.873  0.00  0.00    +0.000 A 
ATOM      4  C   UNL     1       4.205   3.789  18.789  0.00  0.00    +0.000 A 
ATOM      5  C   UNL     1       4.310   5.083  18.250  0.00  0.00    +0.000 A 
ATOM      6  C   UNL     1       3.533   6.120  18.808  0.00  0.00    +0.000 A 
ENDROOT
BRANCH   1   9
ATOM      7  C   UNL     1       1.752   8.180  19.827  0.00  0.00    +0.000 C 
ATOM      8  O   UNL     1       2.089   8.461  18.678  0.00  0.00    +0.000 OA
ATOM      9  N   UNL     1       1.965   6.964  20.458  0.00  0.00    +0.000 N 
ATOM     10  H   UNL     1       1.478   6.828  21.336  0.00  0.00    +0.000 HD
BRANCH   7  15
ATOM     11  C   UNL     1      -1.169  11.817  23.037  0.00  0.00    +0.000 C 
ATOM     12  C   UNL     1      -0.376  10.925  22.131  0.00  0.00    +0.000 A 
ATOM     13  N   UNL     1       0.431  10.038  22.773  0.00  0.00    +0.000 NA
ATOM     14  C   UNL     1       1.105   9.178  21.981  0.00  0.00    +0.000 A 
ATOM     15  C   UNL     1       1.009   9.211  20.599  0.00  0.00    +0.000 A 
ATOM     16  N   UNL     1       0.221  10.102  19.940  0.00  0.00    +0.000 NA
ATOM     17  C   UNL     1      -0.503  10.965  20.723  0.00  0.00    +0.000 A 
BRANCH  17  18
ATOM     18  C   UNL     1      -1.515  11.857  20.030  0.00  0.00    +0.000 C 
ATOM     19  C   UNL     1      -1.558  13.353  20.247  0.00  0.00    +0.000 C 
ATOM     20  C   UNL     1      -1.064  12.808  18.942  0.00  0.00    +0.000 C 
ENDBRANCH  17  18
ENDBRANCH   7  15
ENDBRANCH   1   9
BRANCH   5  21
ATOM     21  C   UNL     1       5.256   5.374  17.092  0.00  0.00    +0.000 C 
ATOM     22  C   UNL     1       4.743   6.546  16.252  0.00  0.00    +0.000 C 
BRANCH  21  23
ATOM     23  S   UNL     1       5.486   3.930  15.980  0.00  0.00    +0.000 S 
BRANCH  23  24
ATOM     24  C   UNL     1       6.611   4.589  14.851  0.00  0.00    +0.000 A 
ATOM     25  N   UNL     1       7.621   5.382  15.126  0.00  0.00    +0.000 NA
ATOM     26  N   UNL     1       8.282   5.634  13.943  0.00  0.00    +0.000 NA
ATOM     27  C   UNL     1       7.655   4.982  12.989  0.00  0.00    +0.000 A 
ATOM     28  N   UNL     1       6.584   4.321  13.514  0.00  0.00    +0.000 N 
ATOM     29  C   UNL     1       5.654   3.503  12.786  0.00  0.00    +0.000 C 
ENDBRANCH  23  24
ENDBRANCH  21  23
ENDBRANCH   5  21
TORSDOF 6
ENDMDL
MODEL 7
REMARK VINA RESULT:      -7.8      8.785     11.849
REMARK  Name = 
REMARK  9 active torsions:
REMARK  status: ('A' for Active; 'I' for Inactive)
REMARK    1  A    between atoms: C_1  and  C_2
REMARK    2  A    between atoms: C_5  and  C_6
REMARK    3  A    between atoms: N_8  and  C_9
REMARK    4  A    between atoms: C_13  and  C_14
REMARK    5  A    between atoms: C_14  and  C_15
REMARK    6  A    between atoms: C_14  and  S_16
REMARK    7  A    between atoms: S_16  and  C_17
REMARK    8  A    between atoms: N_21  and  C_22
REMARK    9  A    between atoms: C_25  and  C_26
REMARK                            x       y       z     vdW  Elec       q    Type
REMARK                         _______ _______ _______ _____ _____    ______ ____
ROOT
ATOM      1  C   UNL     1       0.067  10.287  19.346  0.00  0.00    +0.000 A 
ATOM      2  C   UNL     1       0.408  11.505  19.943  0.00  0.00    +0.000 A 
ATOM      3  C   UNL     1      -0.484  12.576  19.959  0.00  0.00    +0.000 A 
ATOM      4  C   UNL     1      -1.739  12.443  19.377  0.00  0.00    +0.000 A 
ATOM      5  C   UNL     1      -2.118  11.232  18.774  0.00  0.00    +0.000 A 
ATOM      6  C   UNL     1      -1.194  10.166  18.745  0.00  0.00    +0.000 A 
ENDROOT
BRANCH   1   9
ATOM      7  C   UNL     1       1.844   8.900  18.298  0.00  0.00    +0.000 C 
ATOM      8  O   UNL     1       2.065   9.617  17.323  0.00  0.00    +0.000 OA
ATOM      9  N   UNL     1       0.948   9.179  19.319  0.00  0.00    +0.000 N 
ATOM     10  H   UNL     1       1.006   8.581  20.136  0.00  0.00    +0.000 HD
BRANCH   7  15
ATOM     11  C   UNL     1       4.873   4.117  18.384  0.00  0.00    +0.000 C 
ATOM     12  C   UNL     1       4.072   5.382  18.454  0.00  0.00    +0.000 A 
ATOM     13  N   UNL     1       4.452   6.342  17.569  0.00  0.00    +0.000 NA
ATOM     14  C   UNL     1       3.704   7.466  17.565  0.00  0.00    +0.000 A 
ATOM     15  C   UNL     1       2.634   7.648  18.427  0.00  0.00    +0.000 A 
ATOM     16  N   UNL     1       2.251   6.705  19.330  0.00  0.00    +0.000 NA
ATOM     17  C   UNL     1       2.973   5.539  19.330  0.00  0.00    +0.000 A 
BRANCH  17  18
ATOM     18  C   UNL     1       2.472   4.406  20.205  0.00  0.00    +0.000 C 
ATOM     19  C   UNL     1       1.015   4.259  20.583  0.00  0.00    +0.000 C 
ATOM     20  C   UNL     1       1.625   3.305  19.602  0.00  0.00    +0.000 C 
ENDBRANCH  17  18
ENDBRANCH   7  15
ENDBRANCH   1   9
BRANCH   5  21
ATOM     21  C   UNL     1      -3.507  11.057  18.173  0.00  0.00    +0.000 C 
ATOM     22  C   UNL     1      -3.461  11.194  16.648  0.00  0.00    +0.000 C 
BRANCH  21  23
ATOM     23  S   UNL     1      -4.721  12.274  18.821  0.00  0.00    +0.000 S 
BRANCH  23  24
ATOM     24  C   UNL     1      -5.973  11.207  19.342  0.00  0.00    +0.000 A 
ATOM     25  N   UNL     1      -6.359  10.104  18.744  0.00  0.00    +0.000 NA
ATOM     26  N   UNL     1      -7.354   9.543  19.517  0.00  0.00    +0.000 NA
ATOM     27  C   UNL     1      -7.534  10.320  20.562  0.00  0.00    +0.000 A 
ATOM     28  N   UNL     1      -6.695  11.392  20.484  0.00  0.00    +0.000 N 
ATOM     29  C   UNL     1      -6.600  12.463  21.438  0.00  0.00    +0.000 C 
ENDBRANCH  23  24
ENDBRANCH  21  23
ENDBRANCH   5  21
TORSDOF 6
ENDMDL
MODEL 8
REMARK VINA RESULT:      -7.8      5.632      7.143
REMARK  Name = 
REMARK  9 active torsions:
REMARK  status: ('A' for Active; 'I' for Inactive)
REMARK    1  A    between atoms: C_1  and  C_2
REMARK    2  A    between atoms: C_5  and  C_6
REMARK    3  A    between atoms: N_8  and  C_9
REMARK    4  A    between atoms: C_13  and  C_14
REMARK    5  A    between atoms: C_14  and  C_15
REMARK    6  A    between atoms: C_14  and  S_16
REMARK    7  A    between atoms: S_16  and  C_17
REMARK    8  A    between atoms: N_21  and  C_22
REMARK    9  A    between atoms: C_25  and  C_26
REMARK                            x       y       z     vdW  Elec       q    Type
REMARK                         _______ _______ _______ _____ _____    ______ ____
ROOT
ATOM      1  C   UNL     1       3.233   5.636  19.555  0.00  0.00    +0.000 A 
ATOM      2  C   UNL     1       2.686   4.423  19.122  0.00  0.00    +0.000 A 
ATOM      3  C   UNL     1       3.482   3.439  18.540  0.00  0.00    +0.000 A 
ATOM      4  C   UNL     1       4.846   3.652  18.382  0.00  0.00    +0.000 A 
ATOM      5  C   UNL     1       5.431   4.855  18.811  0.00  0.00    +0.000 A 
ATOM      6  C   UNL     1       4.606   5.851  19.376  0.00  0.00    +0.000 A 
ENDROOT
BRANCH   1   9
ATOM      7  C   UNL     1       2.030   7.811  19.520  0.00  0.00    +0.000 C 
ATOM      8  O   UNL     1       2.194   8.076  18.331  0.00  0.00    +0.000 OA
ATOM      9  N   UNL     1       2.452   6.652  20.155  0.00  0.00    +0.000 N 
ATOM     10  H   UNL     1       2.091   6.502  21.091  0.00  0.00    +0.000 HD
BRANCH   7  15
ATOM     11  C   UNL     1      -1.022  11.219  22.856  0.00  0.00    +0.000 C 
ATOM     12  C   UNL     1      -0.175  10.393  21.937  0.00  0.00    +0.000 A 
ATOM     13  N   UNL     1       0.372   9.288  22.511  0.00  0.00    +0.000 NA
ATOM     14  C   UNL     1       1.084   8.490  21.688  0.00  0.00    +0.000 A 
ATOM     15  C   UNL     1       1.275   8.788  20.348  0.00  0.00    +0.000 A 
ATOM     16  N   UNL     1       0.750   9.897  19.761  0.00  0.00    +0.000 NA
ATOM     17  C   UNL     1      -0.008  10.707  20.568  0.00  0.00    +0.000 A 
BRANCH  17  18
ATOM     18  C   UNL     1      -0.744  11.859  19.910  0.00  0.00    +0.000 C 
ATOM     19  C   UNL     1      -0.918  11.957  18.411  0.00  0.00    +0.000 C 
ATOM     20  C   UNL     1      -2.097  11.624  19.272  0.00  0.00    +0.000 C 
ENDBRANCH  17  18
ENDBRANCH   7  15
ENDBRANCH   1   9
BRANCH   5  21
ATOM     21  C   UNL     1       6.932   5.084  18.687  0.00  0.00    +0.000 C 
ATOM     22  C   UNL     1       7.519   5.572  20.014  0.00  0.00    +0.000 C 
BRANCH  21  23
ATOM     23  S   UNL     1       7.360   6.309  17.386  0.00  0.00    +0.000 S 
BRANCH  23  24
ATOM     24  C   UNL     1       6.800   5.474  15.984  0.00  0.00    +0.000 A 
ATOM     25  N   UNL     1       7.404   4.484  15.370  0.00  0.00    +0.000 NA
ATOM     26  N   UNL     1       6.593   4.088  14.327  0.00  0.00    +0.000 NA
ATOM     27  C   UNL     1       5.520   4.847  14.347  0.00  0.00    +0.000 A 
ATOM     28  N   UNL     1       5.615   5.747  15.366  0.00  0.00    +0.000 N 
ATOM     29  C   UNL     1       4.640   6.747  15.706  0.00  0.00    +0.000 C 
ENDBRANCH  23  24
ENDBRANCH  21  23
ENDBRANCH   5  21
TORSDOF 6
ENDMDL
MODEL 9
REMARK VINA RESULT:      -7.8      5.961     10.117
REMARK  Name = 
REMARK  9 active torsions:
REMARK  status: ('A' for Active; 'I' for Inactive)
REMARK    1  A    between atoms: C_1  and  C_2
REMARK    2  A    between atoms: C_5  and  C_6
REMARK    3  A    between atoms: N_8  and  C_9
REMARK    4  A    between atoms: C_13  and  C_14
REMARK    5  A    between atoms: C_14  and  C_15
REMARK    6  A    between atoms: C_14  and  S_16
REMARK    7  A    between atoms: S_16  and  C_17
REMARK    8  A    between atoms: N_21  and  C_22
REMARK    9  A    between atoms: C_25  and  C_26
REMARK                            x       y       z     vdW  Elec       q    Type
REMARK                         _______ _______ _______ _____ _____    ______ ____
ROOT
ATOM      1  C   UNL     1       1.523   8.506  19.853  0.00  0.00    +0.000 A 
ATOM      2  C   UNL     1       1.347   8.185  21.203  0.00  0.00    +0.000 A 
ATOM      3  C   UNL     1       0.475   8.914  22.010  0.00  0.00    +0.000 A 
ATOM      4  C   UNL     1      -0.238   9.980  21.477  0.00  0.00    +0.000 A 
ATOM      5  C   UNL     1      -0.090  10.328  20.123  0.00  0.00    +0.000 A 
ATOM      6  C   UNL     1       0.814   9.594  19.325  0.00  0.00    +0.000 A 
ENDROOT
BRANCH   1   9
ATOM      7  C   UNL     1       2.593   6.409  19.055  0.00  0.00    +0.000 C 
ATOM      8  O   UNL     1       1.978   5.622  19.771  0.00  0.00    +0.000 OA
ATOM      9  N   UNL     1       2.396   7.782  19.006  0.00  0.00    +0.000 N 
ATOM     10  H   UNL     1       2.855   8.269  18.245  0.00  0.00    +0.000 HD
BRANCH   7  15
ATOM     11  C   UNL     1       6.369   3.905  15.658  0.00  0.00    +0.000 C 
ATOM     12  C   UNL     1       5.391   4.648  16.517  0.00  0.00    +0.000 A 
ATOM     13  N   UNL     1       4.195   4.024  16.684  0.00  0.00    +0.000 NA
ATOM     14  C   UNL     1       3.321   4.640  17.507  0.00  0.00    +0.000 A 
ATOM     15  C   UNL     1       3.607   5.848  18.123  0.00  0.00    +0.000 A 
ATOM     16  N   UNL     1       4.791   6.495  17.954  0.00  0.00    +0.000 NA
ATOM     17  C   UNL     1       5.712   5.872  17.149  0.00  0.00    +0.000 A 
BRANCH  17  18
ATOM     18  C   UNL     1       7.099   6.481  17.073  0.00  0.00    +0.000 C 
ATOM     19  C   UNL     1       7.397   7.880  17.561  0.00  0.00    +0.000 C 
ATOM     20  C   UNL     1       7.897   6.702  18.340  0.00  0.00    +0.000 C 
ENDBRANCH  17  18
ENDBRANCH   7  15
ENDBRANCH   1   9
BRANCH   5  21
ATOM     21  C   UNL     1      -0.900  11.464  19.513  0.00  0.00    +0.000 C 
ATOM     22  C   UNL     1      -1.817  10.944  18.403  0.00  0.00    +0.000 C 
BRANCH  21  23
ATOM     23  S   UNL     1       0.155  12.793  18.809  0.00  0.00    +0.000 S 
BRANCH  23  24
ATOM     24  C   UNL     1       0.636  13.600  20.256  0.00  0.00    +0.000 A 
ATOM     25  N   UNL     1       1.687  13.325  20.993  0.00  0.00    +0.000 NA
ATOM     26  N   UNL     1       1.716  14.236  22.027  0.00  0.00    +0.000 NA
ATOM     27  C   UNL     1       0.684  15.038  21.882  0.00  0.00    +0.000 A 
ATOM     28  N   UNL     1      -0.035  14.663  20.786  0.00  0.00    +0.000 N 
ATOM     29  C   UNL     1      -1.233  15.294  20.304  0.00  0.00    +0.000 C 
ENDBRANCH  23  24
ENDBRANCH  21  23
ENDBRANCH   5  21
TORSDOF 6
ENDMDL
