MODEL 1
REMARK VINA RESULT:     -10.0      0.000      0.000
REMARK  Name = 
REMARK  9 active torsions:
REMARK  status: ('A' for Active; 'I' for Inactive)
REMARK    1  A    between atoms: C_1  and  C_2
REMARK    2  A    between atoms: N_9  and  C_10
REMARK    3  A    between atoms: C_10  and  C_11
REMARK    4  A    between atoms: C_15  and  C_16
REMARK    5  A    between atoms: N_22  and  C_23
REMARK    6  A    between atoms: C_27  and  C_28
REMARK    7  A    between atoms: C_28  and  C_29
REMARK    8  A    between atoms: C_29  and  C_30
REMARK    9  A    between atoms: N_34  and  C_35
REMARK                            x       y       z     vdW  Elec       q    Type
REMARK                         _______ _______ _______ _____ _____    ______ ____
ROOT
ATOM      1  C   UNL     1      -0.104  11.996  19.764  0.00  0.00    +0.000 A 
ATOM      2  C   UNL     1       0.745  11.352  18.865  0.00  0.00    +0.000 A 
ATOM      3  C   UNL     1       1.134  10.066  19.148  0.00  0.00    +0.000 A 
ATOM      4  C   UNL     1       0.811   9.415  20.329  0.00  0.00    +0.000 A 
ATOM      5  C   UNL     1       0.061  10.067  21.302  0.00  0.00    +0.000 A 
ATOM      6  C   UNL     1      -0.426  11.357  20.986  0.00  0.00    +0.000 A 
ATOM      7  C   UNL     1       1.375   8.033  20.283  0.00  0.00    +0.000 C 
ATOM      8  N   UNL     1       1.974   7.955  18.952  0.00  0.00    +0.000 N 
ATOM      9  C   UNL     1       1.864   9.159  18.268  0.00  0.00    +0.000 C 
ATOM     10  O   UNL     1       2.236   9.501  17.161  0.00  0.00    +0.000 OA
ENDROOT
BRANCH   8  11
ATOM     11  C   UNL     1       2.553   6.766  18.449  0.00  0.00    +0.000 A 
ATOM     12  C   UNL     1       1.806   5.600  18.260  0.00  0.00    +0.000 A 
ATOM     13  C   UNL     1       2.401   4.444  17.764  0.00  0.00    +0.000 A 
ATOM     14  C   UNL     1       3.763   4.433  17.477  0.00  0.00    +0.000 A 
ATOM     15  C   UNL     1       4.571   5.565  17.693  0.00  0.00    +0.000 A 
ATOM     16  C   UNL     1       3.921   6.726  18.150  0.00  0.00    +0.000 A 
BRANCH  15  17
ATOM     17  C   UNL     1       6.154   5.527  17.493  0.00  0.00    +0.000 C 
ATOM     18  C   UNL     1       6.913   6.848  17.168  0.00  0.00    +0.000 C 
ATOM     19  O   UNL     1       7.898   6.561  18.201  0.00  0.00    +0.000 OA
ATOM     20  C   UNL     1       6.961   5.646  18.819  0.00  0.00    +0.000 C 
BRANCH  17  21
ATOM     21  C   UNL     1       6.592   4.350  16.605  0.00  0.00    +0.000 C 
BRANCH  21  22
ATOM     22  C   UNL     1       7.013   4.769  15.230  0.00  0.00    +0.000 A 
ATOM     23  N   UNL     1       8.058   5.518  14.938  0.00  0.00    +0.000 NA
ATOM     24  N   UNL     1       8.131   5.642  13.571  0.00  0.00    +0.000 NA
ATOM     25  C   UNL     1       7.130   4.970  13.056  0.00  0.00    +0.000 A 
ATOM     26  N   UNL     1       6.390   4.421  14.062  0.00  0.00    +0.000 N 
ATOM     27  C   UNL     1       5.207   3.629  13.883  0.00  0.00    +0.000 C 
ENDBRANCH  21  22
ENDBRANCH  17  21
ENDBRANCH  15  17
ENDBRANCH   8  11
BRANCH   5  28
ATOM     28  C   UNL     1      -0.230   9.451  22.648  0.00  0.00    +0.000 C 
ATOM     29  F   UNL     1      -0.998  10.239  23.450  0.00  0.00    +0.000 F 
ATOM     30  F   UNL     1      -0.900   8.271  22.537  0.00  0.00    +0.000 F 
ATOM     31  F   UNL     1       0.897   9.182  23.358  0.00  0.00    +0.000 F 
ENDBRANCH   5  28
BRANCH   1  32
ATOM     32  C   UNL     1      -0.694  13.337  19.380  0.00  0.00    +0.000 C 
BRANCH  32  41
ATOM     33  C   UNL     1       4.996  15.167  17.811  0.00  0.00    +0.000 C 
ATOM     34  C   UNL     1       3.687  15.125  18.489  0.00  0.00    +0.000 A 
ATOM     35  N   UNL     1       3.327  14.430  19.560  0.00  0.00    +0.000 NA
ATOM     36  C   UNL     1       2.015  14.771  19.730  0.00  0.00    +0.000 A 
ATOM     37  C   UNL     1       1.646  15.661  18.757  0.00  0.00    +0.000 A 
ATOM     38  O   UNL     1       2.693  15.898  17.936  0.00  0.00    +0.000 OA
ATOM     39  C   UNL     1       0.303  16.214  18.536  0.00  0.00    +0.000 C 
ATOM     40  C   UNL     1      -0.558  15.811  19.770  0.00  0.00    +0.000 C 
ATOM     41  N   UNL     1      -0.347  14.430  20.314  0.00  0.00    +0.000 NA
ATOM     42  C   UNL     1       1.073  14.271  20.770  0.00  0.00    +0.000 C 
ENDBRANCH  32  41
ENDBRANCH   1  32
TORSDOF 7
ENDMDL
MODEL 2
REMARK VINA RESULT:      -9.8      1.426      2.335
REMARK  Name = 
REMARK  9 active torsions:
REMARK  status: ('A' for Active; 'I' for Inactive)
REMARK    1  A    between atoms: C_1  and  C_2
REMARK    2  A    between atoms: N_9  and  C_10
REMARK    3  A    between atoms: C_10  and  C_11
REMARK    4  A    between atoms: C_15  and  C_16
REMARK    5  A    between atoms: N_22  and  C_23
REMARK    6  A    between atoms: C_27  and  C_28
REMARK    7  A    between atoms: C_28  and  C_29
REMARK    8  A    between atoms: C_29  and  C_30
REMARK    9  A    between atoms: N_34  and  C_35
REMARK                            x       y       z     vdW  Elec       q    Type
REMARK                         _______ _______ _______ _____ _____    ______ ____
ROOT
ATOM      1  C   UNL     1       0.164  11.667  19.475  0.00  0.00    +0.000 A 
ATOM      2  C   UNL     1       1.032  10.891  18.708  0.00  0.00    +0.000 A 
ATOM      3  C   UNL     1       1.351   9.634  19.162  0.00  0.00    +0.000 A 
ATOM      4  C   UNL     1       0.939   9.141  20.390  0.00  0.00    +0.000 A 
ATOM      5  C   UNL     1       0.167   9.930  21.236  0.00  0.00    +0.000 A 
ATOM      6  C   UNL     1      -0.248  11.190  20.743  0.00  0.00    +0.000 A 
ATOM      7  C   UNL     1       1.445   7.744  20.539  0.00  0.00    +0.000 C 
ATOM      8  N   UNL     1       2.111   7.486  19.263  0.00  0.00    +0.000 N 
ATOM      9  C   UNL     1       2.088   8.604  18.438  0.00  0.00    +0.000 C 
ATOM     10  O   UNL     1       2.532   8.798  17.321  0.00  0.00    +0.000 OA
ENDROOT
BRANCH   8  11
ATOM     11  C   UNL     1       2.665   6.226  18.937  0.00  0.00    +0.000 A 
ATOM     12  C   UNL     1       2.335   5.067  19.643  0.00  0.00    +0.000 A 
ATOM     13  C   UNL     1       2.895   3.839  19.301  0.00  0.00    +0.000 A 
ATOM     14  C   UNL     1       3.818   3.763  18.262  0.00  0.00    +0.000 A 
ATOM     15  C   UNL     1       4.220   4.908  17.549  0.00  0.00    +0.000 A 
ATOM     16  C   UNL     1       3.594   6.119  17.895  0.00  0.00    +0.000 A 
BRANCH  15  17
ATOM     17  C   UNL     1       5.373   4.857  16.446  0.00  0.00    +0.000 C 
ATOM     18  C   UNL     1       5.188   3.948  15.193  0.00  0.00    +0.000 C 
ATOM     19  O   UNL     1       5.582   5.042  14.317  0.00  0.00    +0.000 OA
ATOM     20  C   UNL     1       5.272   5.982  15.374  0.00  0.00    +0.000 C 
BRANCH  17  21
ATOM     21  C   UNL     1       6.768   4.728  17.079  0.00  0.00    +0.000 C 
BRANCH  21  22
ATOM     22  C   UNL     1       7.374   6.046  17.454  0.00  0.00    +0.000 A 
ATOM     23  N   UNL     1       7.570   7.064  16.638  0.00  0.00    +0.000 NA
ATOM     24  N   UNL     1       8.103   8.101  17.365  0.00  0.00    +0.000 NA
ATOM     25  C   UNL     1       8.225   7.697  18.607  0.00  0.00    +0.000 A 
ATOM     26  N   UNL     1       7.796   6.407  18.704  0.00  0.00    +0.000 N 
ATOM     27  C   UNL     1       7.794   5.623  19.907  0.00  0.00    +0.000 C 
ENDBRANCH  21  22
ENDBRANCH  17  21
ENDBRANCH  15  17
ENDBRANCH   8  11
BRANCH   5  28
ATOM     28  C   UNL     1      -0.221   9.491  22.625  0.00  0.00    +0.000 C 
ATOM     29  F   UNL     1      -0.959   8.347  22.647  0.00  0.00    +0.000 F 
ATOM     30  F   UNL     1       0.867   9.245  23.407  0.00  0.00    +0.000 F 
ATOM     31  F   UNL     1      -0.958  10.423  23.285  0.00  0.00    +0.000 F 
ENDBRANCH   5  28
BRANCH   1  32
ATOM     32  C   UNL     1      -0.347  12.973  18.904  0.00  0.00    +0.000 C 
BRANCH  32  41
ATOM     33  C   UNL     1       5.289  15.436  18.309  0.00  0.00    +0.000 C 
ATOM     34  C   UNL     1       3.893  15.247  18.749  0.00  0.00    +0.000 A 
ATOM     35  N   UNL     1       3.431  14.520  19.757  0.00  0.00    +0.000 NA
ATOM     36  C   UNL     1       2.079  14.709  19.686  0.00  0.00    +0.000 A 
ATOM     37  C   UNL     1       1.790  15.547  18.643  0.00  0.00    +0.000 A 
ATOM     38  O   UNL     1       2.932  15.899  18.013  0.00  0.00    +0.000 OA
ATOM     39  C   UNL     1       0.454  15.941  18.178  0.00  0.00    +0.000 C 
ATOM     40  C   UNL     1      -0.560  15.447  19.252  0.00  0.00    +0.000 C 
ATOM     41  N   UNL     1      -0.295  14.102  19.857  0.00  0.00    +0.000 NA
ATOM     42  C   UNL     1       1.031  14.108  20.558  0.00  0.00    +0.000 C 
ENDBRANCH  32  41
ENDBRANCH   1  32
TORSDOF 7
ENDMDL
MODEL 3
REMARK VINA RESULT:      -9.6      2.309      9.738
REMARK  Name = 
REMARK  9 active torsions:
REMARK  status: ('A' for Active; 'I' for Inactive)
REMARK    1  A    between atoms: C_1  and  C_2
REMARK    2  A    between atoms: N_9  and  C_10
REMARK    3  A    between atoms: C_10  and  C_11
REMARK    4  A    between atoms: C_15  and  C_16
REMARK    5  A    between atoms: N_22  and  C_23
REMARK    6  A    between atoms: C_27  and  C_28
REMARK    7  A    between atoms: C_28  and  C_29
REMARK    8  A    between atoms: C_29  and  C_30
REMARK    9  A    between atoms: N_34  and  C_35
REMARK                            x       y       z     vdW  Elec       q    Type
REMARK                         _______ _______ _______ _____ _____    ______ ____
ROOT
ATOM      1  C   UNL     1       3.519   5.939  17.908  0.00  0.00    +0.000 A 
ATOM      2  C   UNL     1       2.899   7.187  17.969  0.00  0.00    +0.000 A 
ATOM      3  C   UNL     1       2.150   7.485  19.080  0.00  0.00    +0.000 A 
ATOM      4  C   UNL     1       1.893   6.574  20.092  0.00  0.00    +0.000 A 
ATOM      5  C   UNL     1       2.399   5.281  20.013  0.00  0.00    +0.000 A 
ATOM      6  C   UNL     1       3.250   4.987  18.921  0.00  0.00    +0.000 A 
ATOM      7  C   UNL     1       1.073   7.246  21.145  0.00  0.00    +0.000 C 
ATOM      8  N   UNL     1       0.958   8.620  20.660  0.00  0.00    +0.000 N 
ATOM      9  C   UNL     1       1.570   8.780  19.423  0.00  0.00    +0.000 C 
ATOM     10  O   UNL     1       1.685   9.747  18.692  0.00  0.00    +0.000 OA
ENDROOT
BRANCH   8  11
ATOM     11  C   UNL     1       0.324   9.639  21.409  0.00  0.00    +0.000 A 
ATOM     12  C   UNL     1      -0.429   9.358  22.551  0.00  0.00    +0.000 A 
ATOM     13  C   UNL     1      -1.043  10.380  23.271  0.00  0.00    +0.000 A 
ATOM     14  C   UNL     1      -0.932  11.697  22.835  0.00  0.00    +0.000 A 
ATOM     15  C   UNL     1      -0.224  12.030  21.665  0.00  0.00    +0.000 A 
ATOM     16  C   UNL     1       0.420  10.973  20.996  0.00  0.00    +0.000 A 
BRANCH  15  17
ATOM     17  C   UNL     1      -0.200  13.516  21.083  0.00  0.00    +0.000 C 
ATOM     18  C   UNL     1      -0.789  13.789  19.666  0.00  0.00    +0.000 C 
ATOM     19  O   UNL     1      -1.550  14.920  20.178  0.00  0.00    +0.000 OA
ATOM     20  C   UNL     1      -1.417  14.384  21.517  0.00  0.00    +0.000 C 
BRANCH  17  21
ATOM     21  C   UNL     1       1.160  14.198  21.308  0.00  0.00    +0.000 C 
BRANCH  21  22
ATOM     22  C   UNL     1       1.978  14.315  20.059  0.00  0.00    +0.000 A 
ATOM     23  N   UNL     1       2.657  13.340  19.486  0.00  0.00    +0.000 NA
ATOM     24  N   UNL     1       3.237  13.832  18.342  0.00  0.00    +0.000 NA
ATOM     25  C   UNL     1       2.905  15.096  18.239  0.00  0.00    +0.000 A 
ATOM     26  N   UNL     1       2.131  15.447  19.305  0.00  0.00    +0.000 N 
ATOM     27  C   UNL     1       1.592  16.756  19.543  0.00  0.00    +0.000 C 
ENDBRANCH  21  22
ENDBRANCH  17  21
ENDBRANCH  15  17
ENDBRANCH   8  11
BRANCH   5  28
ATOM     28  C   UNL     1       2.067   4.216  21.027  0.00  0.00    +0.000 C 
ATOM     29  F   UNL     1       0.736   3.944  21.113  0.00  0.00    +0.000 F 
ATOM     30  F   UNL     1       2.671   3.030  20.741  0.00  0.00    +0.000 F 
ATOM     31  F   UNL     1       2.461   4.547  22.285  0.00  0.00    +0.000 F 
ENDBRANCH   5  28
BRANCH   1  32
ATOM     32  C   UNL     1       4.498   5.664  16.787  0.00  0.00    +0.000 C 
BRANCH  32  41
ATOM     33  C   UNL     1       7.457   4.570  11.473  0.00  0.00    +0.000 C 
ATOM     34  C   UNL     1       7.074   4.482  12.895  0.00  0.00    +0.000 A 
ATOM     35  N   UNL     1       6.122   3.750  13.456  0.00  0.00    +0.000 NA
ATOM     36  C   UNL     1       6.217   4.071  14.780  0.00  0.00    +0.000 A 
ATOM     37  C   UNL     1       7.227   4.978  14.958  0.00  0.00    +0.000 A 
ATOM     38  O   UNL     1       7.789   5.273  13.765  0.00  0.00    +0.000 OA
ATOM     39  C   UNL     1       7.605   5.637  16.215  0.00  0.00    +0.000 C 
ATOM     40  C   UNL     1       6.824   4.916  17.354  0.00  0.00    +0.000 C 
ATOM     41  N   UNL     1       5.407   4.529  17.055  0.00  0.00    +0.000 NA
ATOM     42  C   UNL     1       5.371   3.571  15.900  0.00  0.00    +0.000 C 
ENDBRANCH  32  41
ENDBRANCH   1  32
TORSDOF 7
ENDMDL
MODEL 4
REMARK VINA RESULT:      -9.6      2.727      9.947
REMARK  Name = 
REMARK  9 active torsions:
REMARK  status: ('A' for Active; 'I' for Inactive)
REMARK    1  A    between atoms: C_1  and  C_2
REMARK    2  A    between atoms: N_9  and  C_10
REMARK    3  A    between atoms: C_10  and  C_11
REMARK    4  A    between atoms: C_15  and  C_16
REMARK    5  A    between atoms: N_22  and  C_23
REMARK    6  A    between atoms: C_27  and  C_28
REMARK    7  A    between atoms: C_28  and  C_29
REMARK    8  A    between atoms: C_29  and  C_30
REMARK    9  A    between atoms: N_34  and  C_35
REMARK                            x       y       z     vdW  Elec       q    Type
REMARK                         _______ _______ _______ _____ _____    ______ ____
ROOT
ATOM      1  C   UNL     1       3.487   5.828  17.903  0.00  0.00    +0.000 A 
ATOM      2  C   UNL     1       2.857   7.070  17.966  0.00  0.00    +0.000 A 
ATOM      3  C   UNL     1       2.140   7.377  19.097  0.00  0.00    +0.000 A 
ATOM      4  C   UNL     1       1.923   6.477  20.128  0.00  0.00    +0.000 A 
ATOM      5  C   UNL     1       2.438   5.187  20.050  0.00  0.00    +0.000 A 
ATOM      6  C   UNL     1       3.258   4.887  18.936  0.00  0.00    +0.000 A 
ATOM      7  C   UNL     1       1.130   7.154  21.196  0.00  0.00    +0.000 C 
ATOM      8  N   UNL     1       0.987   8.521  20.697  0.00  0.00    +0.000 N 
ATOM      9  C   UNL     1       1.559   8.670  19.440  0.00  0.00    +0.000 C 
ATOM     10  O   UNL     1       1.642   9.629  18.694  0.00  0.00    +0.000 OA
ENDROOT
BRANCH   8  11
ATOM     11  C   UNL     1       0.366   9.544  21.452  0.00  0.00    +0.000 A 
ATOM     12  C   UNL     1      -0.447   9.263  22.553  0.00  0.00    +0.000 A 
ATOM     13  C   UNL     1      -1.045  10.289  23.279  0.00  0.00    +0.000 A 
ATOM     14  C   UNL     1      -0.859  11.612  22.891  0.00  0.00    +0.000 A 
ATOM     15  C   UNL     1      -0.088  11.949  21.763  0.00  0.00    +0.000 A 
ATOM     16  C   UNL     1       0.538  10.885  21.087  0.00  0.00    +0.000 A 
BRANCH  15  17
ATOM     17  C   UNL     1       0.025  13.449  21.231  0.00  0.00    +0.000 C 
ATOM     18  C   UNL     1      -0.321  14.626  22.192  0.00  0.00    +0.000 C 
ATOM     19  O   UNL     1       0.909  15.313  21.827  0.00  0.00    +0.000 OA
ATOM     20  C   UNL     1       1.453  14.057  21.355  0.00  0.00    +0.000 C 
BRANCH  17  21
ATOM     21  C   UNL     1      -0.599  13.611  19.835  0.00  0.00    +0.000 C 
BRANCH  21  22
ATOM     22  C   UNL     1      -1.988  13.059  19.738  0.00  0.00    +0.000 A 
ATOM     23  N   UNL     1      -3.029  13.460  20.442  0.00  0.00    +0.000 NA
ATOM     24  N   UNL     1      -4.128  12.743  20.035  0.00  0.00    +0.000 NA
ATOM     25  C   UNL     1      -3.737  11.916  19.094  0.00  0.00    +0.000 A 
ATOM     26  N   UNL     1      -2.398  12.067  18.889  0.00  0.00    +0.000 N 
ATOM     27  C   UNL     1      -1.615  11.320  17.946  0.00  0.00    +0.000 C 
ENDBRANCH  21  22
ENDBRANCH  17  21
ENDBRANCH  15  17
ENDBRANCH   8  11
BRANCH   5  28
ATOM     28  C   UNL     1       2.148   4.133  21.088  0.00  0.00    +0.000 C 
ATOM     29  F   UNL     1       0.829   3.812  21.181  0.00  0.00    +0.000 F 
ATOM     30  F   UNL     1       2.796   2.964  20.826  0.00  0.00    +0.000 F 
ATOM     31  F   UNL     1       2.530   4.506  22.338  0.00  0.00    +0.000 F 
ENDBRANCH   5  28
BRANCH   1  32
ATOM     32  C   UNL     1       4.434   5.546  16.756  0.00  0.00    +0.000 C 
BRANCH  32  41
ATOM     33  C   UNL     1       7.485   4.605  11.465  0.00  0.00    +0.000 C 
ATOM     34  C   UNL     1       7.096   4.497  12.884  0.00  0.00    +0.000 A 
ATOM     35  N   UNL     1       6.177   3.718  13.437  0.00  0.00    +0.000 NA
ATOM     36  C   UNL     1       6.245   4.043  14.763  0.00  0.00    +0.000 A 
ATOM     37  C   UNL     1       7.208   4.999  14.948  0.00  0.00    +0.000 A 
ATOM     38  O   UNL     1       7.763   5.322  13.760  0.00  0.00    +0.000 OA
ATOM     39  C   UNL     1       7.543   5.675  16.209  0.00  0.00    +0.000 C 
ATOM     40  C   UNL     1       6.789   4.915  17.341  0.00  0.00    +0.000 C 
ATOM     41  N   UNL     1       5.396   4.458  17.030  0.00  0.00    +0.000 NA
ATOM     42  C   UNL     1       5.417   3.500  15.875  0.00  0.00    +0.000 C 
ENDBRANCH  32  41
ENDBRANCH   1  32
TORSDOF 7
ENDMDL
MODEL 5
REMARK VINA RESULT:      -9.5      1.672      2.468
REMARK  Name = 
REMARK  9 active torsions:
REMARK  status: ('A' for Active; 'I' for Inactive)
REMARK    1  A    between atoms: C_1  and  C_2
REMARK    2  A    between atoms: N_9  and  C_10
REMARK    3  A    between atoms: C_10  and  C_11
REMARK    4  A    between atoms: C_15  and  C_16
REMARK    5  A    between atoms: N_22  and  C_23
REMARK    6  A    between atoms: C_27  and  C_28
REMARK    7  A    between atoms: C_28  and  C_29
REMARK    8  A    between atoms: C_29  and  C_30
REMARK    9  A    between atoms: N_34  and  C_35
REMARK                            x       y       z     vdW  Elec       q    Type
REMARK                         _______ _______ _______ _____ _____    ______ ____
ROOT
ATOM      1  C   UNL     1       0.321  11.669  19.436  0.00  0.00    +0.000 A 
ATOM      2  C   UNL     1       1.157  10.905  18.622  0.00  0.00    +0.000 A 
ATOM      3  C   UNL     1       1.457   9.626  19.020  0.00  0.00    +0.000 A 
ATOM      4  C   UNL     1       1.058   9.094  20.236  0.00  0.00    +0.000 A 
ATOM      5  C   UNL     1       0.320   9.865  21.127  0.00  0.00    +0.000 A 
ATOM      6  C   UNL     1      -0.077  11.152  20.692  0.00  0.00    +0.000 A 
ATOM      7  C   UNL     1       1.536   7.681  20.321  0.00  0.00    +0.000 C 
ATOM      8  N   UNL     1       2.171   7.460  19.022  0.00  0.00    +0.000 N 
ATOM      9  C   UNL     1       2.157   8.609  18.242  0.00  0.00    +0.000 C 
ATOM     10  O   UNL     1       2.584   8.837  17.124  0.00  0.00    +0.000 OA
ENDROOT
BRANCH   8  11
ATOM     11  C   UNL     1       2.691   6.202  18.637  0.00  0.00    +0.000 A 
ATOM     12  C   UNL     1       2.314   5.017  19.274  0.00  0.00    +0.000 A 
ATOM     13  C   UNL     1       2.841   3.793  18.874  0.00  0.00    +0.000 A 
ATOM     14  C   UNL     1       3.778   3.744  17.846  0.00  0.00    +0.000 A 
ATOM     15  C   UNL     1       4.227   4.911  17.202  0.00  0.00    +0.000 A 
ATOM     16  C   UNL     1       3.633   6.122  17.604  0.00  0.00    +0.000 A 
BRANCH  15  17
ATOM     17  C   UNL     1       5.395   4.883  16.114  0.00  0.00    +0.000 C 
ATOM     18  C   UNL     1       6.067   3.523  15.754  0.00  0.00    +0.000 C 
ATOM     19  O   UNL     1       5.919   3.804  14.333  0.00  0.00    +0.000 OA
ATOM     20  C   UNL     1       4.889   4.772  14.646  0.00  0.00    +0.000 C 
BRANCH  17  21
ATOM     21  C   UNL     1       6.412   6.014  16.335  0.00  0.00    +0.000 C 
BRANCH  21  22
ATOM     22  C   UNL     1       7.128   5.920  17.648  0.00  0.00    +0.000 A 
ATOM     23  N   UNL     1       7.241   4.835  18.389  0.00  0.00    +0.000 NA
ATOM     24  N   UNL     1       8.004   5.142  19.490  0.00  0.00    +0.000 NA
ATOM     25  C   UNL     1       8.340   6.407  19.402  0.00  0.00    +0.000 A 
ATOM     26  N   UNL     1       7.796   6.939  18.271  0.00  0.00    +0.000 N 
ATOM     27  C   UNL     1       7.935   8.304  17.848  0.00  0.00    +0.000 C 
ENDBRANCH  21  22
ENDBRANCH  17  21
ENDBRANCH  15  17
ENDBRANCH   8  11
BRANCH   5  28
ATOM     28  C   UNL     1      -0.051   9.380  22.506  0.00  0.00    +0.000 C 
ATOM     29  F   UNL     1      -0.703  10.312  23.252  0.00  0.00    +0.000 F 
ATOM     30  F   UNL     1      -0.875   8.296  22.463  0.00  0.00    +0.000 F 
ATOM     31  F   UNL     1       1.030   9.004  23.239  0.00  0.00    +0.000 F 
ENDBRANCH   5  28
BRANCH   1  32
ATOM     32  C   UNL     1      -0.172  13.007  18.925  0.00  0.00    +0.000 C 
BRANCH  32  41
ATOM     33  C   UNL     1       4.870  16.575  18.794  0.00  0.00    +0.000 C 
ATOM     34  C   UNL     1       3.533  16.071  19.160  0.00  0.00    +0.000 A 
ATOM     35  N   UNL     1       3.208  15.166  20.071  0.00  0.00    +0.000 NA
ATOM     36  C   UNL     1       1.847  15.092  19.969  0.00  0.00    +0.000 A 
ATOM     37  C   UNL     1       1.415  15.963  19.005  0.00  0.00    +0.000 A 
ATOM     38  O   UNL     1       2.474  16.597  18.457  0.00  0.00    +0.000 OA
ATOM     39  C   UNL     1       0.035  16.135  18.531  0.00  0.00    +0.000 C 
ATOM     40  C   UNL     1      -0.879  15.341  19.511  0.00  0.00    +0.000 C 
ATOM     41  N   UNL     1      -0.362  14.017  19.988  0.00  0.00    +0.000 NA
ATOM     42  C   UNL     1       0.924  14.209  20.736  0.00  0.00    +0.000 C 
ENDBRANCH  32  41
ENDBRANCH   1  32
TORSDOF 7
ENDMDL
MODEL 6
REMARK VINA RESULT:      -9.3      2.417      9.951
REMARK  Name = 
REMARK  9 active torsions:
REMARK  status: ('A' for Active; 'I' for Inactive)
REMARK    1  A    between atoms: C_1  and  C_2
REMARK    2  A    between atoms: N_9  and  C_10
REMARK    3  A    between atoms: C_10  and  C_11
REMARK    4  A    between atoms: C_15  and  C_16
REMARK    5  A    between atoms: N_22  and  C_23
REMARK    6  A    between atoms: C_27  and  C_28
REMARK    7  A    between atoms: C_28  and  C_29
REMARK    8  A    between atoms: C_29  and  C_30
REMARK    9  A    between atoms: N_34  and  C_35
REMARK                            x       y       z     vdW  Elec       q    Type
REMARK                         _______ _______ _______ _____ _____    ______ ____
ROOT
ATOM      1  C   UNL     1       3.582   6.082  17.884  0.00  0.00    +0.000 A 
ATOM      2  C   UNL     1       2.978   7.337  17.954  0.00  0.00    +0.000 A 
ATOM      3  C   UNL     1       2.200   7.621  19.050  0.00  0.00    +0.000 A 
ATOM      4  C   UNL     1       1.900   6.691  20.032  0.00  0.00    +0.000 A 
ATOM      5  C   UNL     1       2.390   5.393  19.938  0.00  0.00    +0.000 A 
ATOM      6  C   UNL     1       3.270   5.112  18.866  0.00  0.00    +0.000 A 
ATOM      7  C   UNL     1       1.058   7.351  21.075  0.00  0.00    +0.000 C 
ATOM      8  N   UNL     1       0.978   8.737  20.619  0.00  0.00    +0.000 N 
ATOM      9  C   UNL     1       1.629   8.916  19.405  0.00  0.00    +0.000 C 
ATOM     10  O   UNL     1       1.780   9.898  18.701  0.00  0.00    +0.000 OA
ENDROOT
BRANCH   8  11
ATOM     11  C   UNL     1       0.336   9.748  21.372  0.00  0.00    +0.000 A 
ATOM     12  C   UNL     1      -0.441   9.454  22.495  0.00  0.00    +0.000 A 
ATOM     13  C   UNL     1      -1.062  10.468  23.219  0.00  0.00    +0.000 A 
ATOM     14  C   UNL     1      -0.936  11.791  22.806  0.00  0.00    +0.000 A 
ATOM     15  C   UNL     1      -0.204  12.138  21.656  0.00  0.00    +0.000 A 
ATOM     16  C   UNL     1       0.447  11.088  20.982  0.00  0.00    +0.000 A 
BRANCH  15  17
ATOM     17  C   UNL     1      -0.160  13.633  21.098  0.00  0.00    +0.000 C 
ATOM     18  C   UNL     1       0.149  13.874  19.590  0.00  0.00    +0.000 C 
ATOM     19  O   UNL     1      -0.986  14.781  19.482  0.00  0.00    +0.000 OA
ATOM     20  C   UNL     1      -1.551  14.192  20.679  0.00  0.00    +0.000 C 
BRANCH  17  21
ATOM     21  C   UNL     1       0.630  14.569  22.029  0.00  0.00    +0.000 C 
BRANCH  21  22
ATOM     22  C   UNL     1       2.051  14.769  21.601  0.00  0.00    +0.000 A 
ATOM     23  N   UNL     1       3.030  13.896  21.740  0.00  0.00    +0.000 NA
ATOM     24  N   UNL     1       4.168  14.431  21.187  0.00  0.00    +0.000 NA
ATOM     25  C   UNL     1       3.865  15.620  20.723  0.00  0.00    +0.000 A 
ATOM     26  N   UNL     1       2.551  15.881  20.979  0.00  0.00    +0.000 N 
ATOM     27  C   UNL     1       1.865  17.094  20.632  0.00  0.00    +0.000 C 
ENDBRANCH  21  22
ENDBRANCH  17  21
ENDBRANCH  15  17
ENDBRANCH   8  11
BRANCH   5  28
ATOM     28  C   UNL     1       2.012   4.310  20.917  0.00  0.00    +0.000 C 
ATOM     29  F   UNL     1       2.546   3.095  20.615  0.00  0.00    +0.000 F 
ATOM     30  F   UNL     1       2.429   4.595  22.181  0.00  0.00    +0.000 F 
ATOM     31  F   UNL     1       0.669   4.118  20.996  0.00  0.00    +0.000 F 
ENDBRANCH   5  28
BRANCH   1  32
ATOM     32  C   UNL     1       4.591   5.818  16.786  0.00  0.00    +0.000 C 
BRANCH  32  41
ATOM     33  C   UNL     1       7.227   4.351  11.393  0.00  0.00    +0.000 C 
ATOM     34  C   UNL     1       6.926   4.358  12.837  0.00  0.00    +0.000 A 
ATOM     35  N   UNL     1       6.001   3.675  13.497  0.00  0.00    +0.000 NA
ATOM     36  C   UNL     1       6.175   4.079  14.791  0.00  0.00    +0.000 A 
ATOM     37  C   UNL     1       7.203   4.981  14.852  0.00  0.00    +0.000 A 
ATOM     38  O   UNL     1       7.698   5.192  13.612  0.00  0.00    +0.000 OA
ATOM     39  C   UNL     1       7.660   5.714  16.041  0.00  0.00    +0.000 C 
ATOM     40  C   UNL     1       6.939   5.076  17.266  0.00  0.00    +0.000 C 
ATOM     41  N   UNL     1       5.503   4.690  17.074  0.00  0.00    +0.000 NA
ATOM     42  C   UNL     1       5.391   3.662  15.986  0.00  0.00    +0.000 C 
ENDBRANCH  32  41
ENDBRANCH   1  32
TORSDOF 7
ENDMDL
MODEL 7
REMARK VINA RESULT:      -9.3      2.040      3.390
REMARK  Name = 
REMARK  9 active torsions:
REMARK  status: ('A' for Active; 'I' for Inactive)
REMARK    1  A    between atoms: C_1  and  C_2
REMARK    2  A    between atoms: N_9  and  C_10
REMARK    3  A    between atoms: C_10  and  C_11
REMARK    4  A    between atoms: C_15  and  C_16
REMARK    5  A    between atoms: N_22  and  C_23
REMARK    6  A    between atoms: C_27  and  C_28
REMARK    7  A    between atoms: C_28  and  C_29
REMARK    8  A    between atoms: C_29  and  C_30
REMARK    9  A    between atoms: N_34  and  C_35
REMARK                            x       y       z     vdW  Elec       q    Type
REMARK                         _______ _______ _______ _____ _____    ______ ____
ROOT
ATOM      1  C   UNL     1       0.419  11.747  19.492  0.00  0.00    +0.000 A 
ATOM      2  C   UNL     1       1.196  10.975  18.628  0.00  0.00    +0.000 A 
ATOM      3  C   UNL     1       1.481   9.682  18.992  0.00  0.00    +0.000 A 
ATOM      4  C   UNL     1       1.127   9.141  20.217  0.00  0.00    +0.000 A 
ATOM      5  C   UNL     1       0.451   9.915  21.154  0.00  0.00    +0.000 A 
ATOM      6  C   UNL     1       0.067  11.218  20.758  0.00  0.00    +0.000 A 
ATOM      7  C   UNL     1       1.572   7.716  20.258  0.00  0.00    +0.000 C 
ATOM      8  N   UNL     1       2.139   7.500  18.928  0.00  0.00    +0.000 N 
ATOM      9  C   UNL     1       2.118   8.662  18.166  0.00  0.00    +0.000 C 
ATOM     10  O   UNL     1       2.498   8.898  17.034  0.00  0.00    +0.000 OA
ENDROOT
BRANCH   8  11
ATOM     11  C   UNL     1       2.608   6.236  18.499  0.00  0.00    +0.000 A 
ATOM     12  C   UNL     1       2.110   5.042  19.027  0.00  0.00    +0.000 A 
ATOM     13  C   UNL     1       2.589   3.812  18.587  0.00  0.00    +0.000 A 
ATOM     14  C   UNL     1       3.599   3.763  17.630  0.00  0.00    +0.000 A 
ATOM     15  C   UNL     1       4.168   4.935  17.099  0.00  0.00    +0.000 A 
ATOM     16  C   UNL     1       3.621   6.156  17.535  0.00  0.00    +0.000 A 
BRANCH  15  17
ATOM     17  C   UNL     1       5.413   4.895  16.101  0.00  0.00    +0.000 C 
ATOM     18  C   UNL     1       6.147   3.543  15.853  0.00  0.00    +0.000 C 
ATOM     19  O   UNL     1       6.096   3.756  14.413  0.00  0.00    +0.000 OA
ATOM     20  C   UNL     1       5.019   4.704  14.607  0.00  0.00    +0.000 C 
BRANCH  17  21
ATOM     21  C   UNL     1       6.379   6.067  16.342  0.00  0.00    +0.000 C 
BRANCH  21  22
ATOM     22  C   UNL     1       7.099   5.982  17.653  0.00  0.00    +0.000 A 
ATOM     23  N   UNL     1       7.194   4.908  18.413  0.00  0.00    +0.000 NA
ATOM     24  N   UNL     1       7.967   5.219  19.505  0.00  0.00    +0.000 NA
ATOM     25  C   UNL     1       8.328   6.475  19.393  0.00  0.00    +0.000 A 
ATOM     26  N   UNL     1       7.790   6.998  18.255  0.00  0.00    +0.000 N 
ATOM     27  C   UNL     1       7.953   8.353  17.808  0.00  0.00    +0.000 C 
ENDBRANCH  21  22
ENDBRANCH  17  21
ENDBRANCH  15  17
ENDBRANCH   8  11
BRANCH   5  28
ATOM     28  C   UNL     1       0.132   9.417  22.541  0.00  0.00    +0.000 C 
ATOM     29  F   UNL     1      -0.688   8.331  22.553  0.00  0.00    +0.000 F 
ATOM     30  F   UNL     1       1.252   9.043  23.220  0.00  0.00    +0.000 F 
ATOM     31  F   UNL     1      -0.480  10.356  23.310  0.00  0.00    +0.000 F 
ENDBRANCH   5  28
BRANCH   1  32
ATOM     32  C   UNL     1      -0.064  13.104  19.026  0.00  0.00    +0.000 C 
BRANCH  32  41
ATOM     33  C   UNL     1      -2.457  17.940  22.038  0.00  0.00    +0.000 C 
ATOM     34  C   UNL     1      -1.483  17.082  21.336  0.00  0.00    +0.000 A 
ATOM     35  N   UNL     1      -1.262  16.970  20.034  0.00  0.00    +0.000 NA
ATOM     36  C   UNL     1      -0.267  16.036  19.963  0.00  0.00    +0.000 A 
ATOM     37  C   UNL     1       0.070  15.633  21.228  0.00  0.00    +0.000 A 
ATOM     38  O   UNL     1      -0.701  16.276  22.131  0.00  0.00    +0.000 OA
ATOM     39  C   UNL     1       1.038  14.588  21.588  0.00  0.00    +0.000 C 
ATOM     40  C   UNL     1       1.802  14.213  20.283  0.00  0.00    +0.000 C 
ATOM     41  N   UNL     1       0.988  14.143  19.026  0.00  0.00    +0.000 NA
ATOM     42  C   UNL     1       0.374  15.481  18.738  0.00  0.00    +0.000 C 
ENDBRANCH  32  41
ENDBRANCH   1  32
TORSDOF 7
ENDMDL
MODEL 8
REMARK VINA RESULT:      -9.3      2.617     10.544
REMARK  Name = 
REMARK  9 active torsions:
REMARK  status: ('A' for Active; 'I' for Inactive)
REMARK    1  A    between atoms: C_1  and  C_2
REMARK    2  A    between atoms: N_9  and  C_10
REMARK    3  A    between atoms: C_10  and  C_11
REMARK    4  A    between atoms: C_15  and  C_16
REMARK    5  A    between atoms: N_22  and  C_23
REMARK    6  A    between atoms: C_27  and  C_28
REMARK    7  A    between atoms: C_28  and  C_29
REMARK    8  A    between atoms: C_29  and  C_30
REMARK    9  A    between atoms: N_34  and  C_35
REMARK                            x       y       z     vdW  Elec       q    Type
REMARK                         _______ _______ _______ _____ _____    ______ ____
ROOT
ATOM      1  C   UNL     1       3.580   5.978  17.915  0.00  0.00    +0.000 A 
ATOM      2  C   UNL     1       2.946   7.219  17.970  0.00  0.00    +0.000 A 
ATOM      3  C   UNL     1       2.166   7.501  19.064  0.00  0.00    +0.000 A 
ATOM      4  C   UNL     1       1.894   6.579  20.063  0.00  0.00    +0.000 A 
ATOM      5  C   UNL     1       2.415   5.292  19.986  0.00  0.00    +0.000 A 
ATOM      6  C   UNL     1       3.296   5.015  18.914  0.00  0.00    +0.000 A 
ATOM      7  C   UNL     1       1.041   7.234  21.100  0.00  0.00    +0.000 C 
ATOM      8  N   UNL     1       0.924   8.611  20.623  0.00  0.00    +0.000 N 
ATOM      9  C   UNL     1       1.565   8.787  19.402  0.00  0.00    +0.000 C 
ATOM     10  O   UNL     1       1.688   9.761  18.682  0.00  0.00    +0.000 OA
ENDROOT
BRANCH   8  11
ATOM     11  C   UNL     1       0.262   9.617  21.363  0.00  0.00    +0.000 A 
ATOM     12  C   UNL     1      -0.343   9.354  22.595  0.00  0.00    +0.000 A 
ATOM     13  C   UNL     1      -0.989  10.363  23.304  0.00  0.00    +0.000 A 
ATOM     14  C   UNL     1      -1.063  11.646  22.770  0.00  0.00    +0.000 A 
ATOM     15  C   UNL     1      -0.512  11.955  21.513  0.00  0.00    +0.000 A 
ATOM     16  C   UNL     1       0.174  10.918  20.853  0.00  0.00    +0.000 A 
BRANCH  15  17
ATOM     17  C   UNL     1      -0.703  13.385  20.832  0.00  0.00    +0.000 C 
ATOM     18  C   UNL     1       0.547  14.150  20.302  0.00  0.00    +0.000 C 
ATOM     19  O   UNL     1      -0.124  14.412  19.037  0.00  0.00    +0.000 OA
ATOM     20  C   UNL     1      -1.038  13.323  19.313  0.00  0.00    +0.000 C 
BRANCH  17  21
ATOM     21  C   UNL     1      -1.656  14.282  21.640  0.00  0.00    +0.000 C 
BRANCH  21  22
ATOM     22  C   UNL     1      -0.943  15.277  22.505  0.00  0.00    +0.000 A 
ATOM     23  N   UNL     1      -0.291  15.004  23.619  0.00  0.00    +0.000 NA
ATOM     24  N   UNL     1       0.259  16.170  24.093  0.00  0.00    +0.000 NA
ATOM     25  C   UNL     1      -0.068  17.132  23.264  0.00  0.00    +0.000 A 
ATOM     26  N   UNL     1      -0.839  16.620  22.262  0.00  0.00    +0.000 N 
ATOM     27  C   UNL     1      -1.398  17.376  21.178  0.00  0.00    +0.000 C 
ENDBRANCH  21  22
ENDBRANCH  17  21
ENDBRANCH  15  17
ENDBRANCH   8  11
BRANCH   5  28
ATOM     28  C   UNL     1       2.069   4.216  20.984  0.00  0.00    +0.000 C 
ATOM     29  F   UNL     1       2.430   4.522  22.260  0.00  0.00    +0.000 F 
ATOM     30  F   UNL     1       0.730   3.968  21.026  0.00  0.00    +0.000 F 
ATOM     31  F   UNL     1       2.665   3.027  20.703  0.00  0.00    +0.000 F 
ENDBRANCH   5  28
BRANCH   1  32
ATOM     32  C   UNL     1       4.590   5.721  16.816  0.00  0.00    +0.000 C 
BRANCH  32  41
ATOM     33  C   UNL     1       7.399   4.524  11.445  0.00  0.00    +0.000 C 
ATOM     34  C   UNL     1       7.040   4.446  12.873  0.00  0.00    +0.000 A 
ATOM     35  N   UNL     1       6.067   3.754  13.448  0.00  0.00    +0.000 NA
ATOM     36  C   UNL     1       6.200   4.065  14.773  0.00  0.00    +0.000 A 
ATOM     37  C   UNL     1       7.252   4.926  14.935  0.00  0.00    +0.000 A 
ATOM     38  O   UNL     1       7.804   5.201  13.732  0.00  0.00    +0.000 OA
ATOM     39  C   UNL     1       7.682   5.562  16.187  0.00  0.00    +0.000 C 
ATOM     40  C   UNL     1       6.891   4.870  17.337  0.00  0.00    +0.000 C 
ATOM     41  N   UNL     1       5.453   4.546  17.063  0.00  0.00    +0.000 NA
ATOM     42  C   UNL     1       5.354   3.597  15.905  0.00  0.00    +0.000 C 
ENDBRANCH  32  41
ENDBRANCH   1  32
TORSDOF 7
ENDMDL
MODEL 9
REMARK VINA RESULT:      -9.2      2.914     10.507
REMARK  Name = 
REMARK  9 active torsions:
REMARK  status: ('A' for Active; 'I' for Inactive)
REMARK    1  A    between atoms: C_1  and  C_2
REMARK    2  A    between atoms: N_9  and  C_10
REMARK    3  A    between atoms: C_10  and  C_11
REMARK    4  A    between atoms: C_15  and  C_16
REMARK    5  A    between atoms: N_22  and  C_23
REMARK    6  A    between atoms: C_27  and  C_28
REMARK    7  A    between atoms: C_28  and  C_29
REMARK    8  A    between atoms: C_29  and  C_30
REMARK    9  A    between atoms: N_34  and  C_35
REMARK                            x       y       z     vdW  Elec       q    Type
REMARK                         _______ _______ _______ _____ _____    ______ ____
ROOT
ATOM      1  C   UNL     1       3.658   5.948  17.896  0.00  0.00    +0.000 A 
ATOM      2  C   UNL     1       3.012   7.180  17.987  0.00  0.00    +0.000 A 
ATOM      3  C   UNL     1       2.198   7.406  19.070  0.00  0.00    +0.000 A 
ATOM      4  C   UNL     1       1.904   6.438  20.017  0.00  0.00    +0.000 A 
ATOM      5  C   UNL     1       2.438   5.160  19.898  0.00  0.00    +0.000 A 
ATOM      6  C   UNL     1       3.353   4.939  18.841  0.00  0.00    +0.000 A 
ATOM      7  C   UNL     1       1.016   7.039  21.056  0.00  0.00    +0.000 C 
ATOM      8  N   UNL     1       0.901   8.436  20.639  0.00  0.00    +0.000 N 
ATOM      9  C   UNL     1       1.576   8.671  19.447  0.00  0.00    +0.000 C 
ATOM     10  O   UNL     1       1.712   9.678  18.776  0.00  0.00    +0.000 OA
ENDROOT
BRANCH   8  11
ATOM     11  C   UNL     1       0.208   9.402  21.404  0.00  0.00    +0.000 A 
ATOM     12  C   UNL     1       0.034   9.269  22.784  0.00  0.00    +0.000 A 
ATOM     13  C   UNL     1      -0.652  10.236  23.514  0.00  0.00    +0.000 A 
ATOM     14  C   UNL     1      -1.200  11.337  22.862  0.00  0.00    +0.000 A 
ATOM     15  C   UNL     1      -1.094  11.496  21.468  0.00  0.00    +0.000 A 
ATOM     16  C   UNL     1      -0.351  10.522  20.776  0.00  0.00    +0.000 A 
BRANCH  15  17
ATOM     17  C   UNL     1      -1.828  12.683  20.693  0.00  0.00    +0.000 C 
ATOM     18  C   UNL     1      -2.886  12.340  19.600  0.00  0.00    +0.000 C 
ATOM     19  O   UNL     1      -3.824  13.289  20.182  0.00  0.00    +0.000 OA
ATOM     20  C   UNL     1      -3.085  13.234  21.426  0.00  0.00    +0.000 C 
BRANCH  17  21
ATOM     21  C   UNL     1      -0.841  13.775  20.248  0.00  0.00    +0.000 C 
BRANCH  21  22
ATOM     22  C   UNL     1      -0.469  14.722  21.349  0.00  0.00    +0.000 A 
ATOM     23  N   UNL     1       0.387  14.477  22.321  0.00  0.00    +0.000 NA
ATOM     24  N   UNL     1       0.488  15.604  23.101  0.00  0.00    +0.000 NA
ATOM     25  C   UNL     1      -0.309  16.513  22.592  0.00  0.00    +0.000 A 
ATOM     26  N   UNL     1      -0.945  15.996  21.503  0.00  0.00    +0.000 N 
ATOM     27  C   UNL     1      -1.906  16.693  20.696  0.00  0.00    +0.000 C 
ENDBRANCH  21  22
ENDBRANCH  17  21
ENDBRANCH  15  17
ENDBRANCH   8  11
BRANCH   5  28
ATOM     28  C   UNL     1       2.072   4.037  20.835  0.00  0.00    +0.000 C 
ATOM     29  F   UNL     1       2.656   2.850  20.515  0.00  0.00    +0.000 F 
ATOM     30  F   UNL     1       2.444   4.299  22.118  0.00  0.00    +0.000 F 
ATOM     31  F   UNL     1       0.735   3.797  20.870  0.00  0.00    +0.000 F 
ENDBRANCH   5  28
BRANCH   1  32
ATOM     32  C   UNL     1       4.702   5.748  16.817  0.00  0.00    +0.000 C 
BRANCH  32  41
ATOM     33  C   UNL     1       7.183   4.382  11.326  0.00  0.00    +0.000 C 
ATOM     34  C   UNL     1       6.912   4.350  12.775  0.00  0.00    +0.000 A 
ATOM     35  N   UNL     1       5.979   3.675  13.431  0.00  0.00    +0.000 NA
ATOM     36  C   UNL     1       6.191   4.029  14.734  0.00  0.00    +0.000 A 
ATOM     37  C   UNL     1       7.248   4.897  14.803  0.00  0.00    +0.000 A 
ATOM     38  O   UNL     1       7.724   5.134  13.561  0.00  0.00    +0.000 OA
ATOM     39  C   UNL     1       7.751   5.575  16.006  0.00  0.00    +0.000 C 
ATOM     40  C   UNL     1       7.034   4.919  17.224  0.00  0.00    +0.000 C 
ATOM     41  N   UNL     1       5.584   4.584  17.049  0.00  0.00    +0.000 NA
ATOM     42  C   UNL     1       5.417   3.597  15.931  0.00  0.00    +0.000 C 
ENDBRANCH  32  41
ENDBRANCH   1  32
TORSDOF 7
ENDMDL
