MODEL 1
REMARK VINA RESULT:      -9.7      0.000      0.000
REMARK  Name = 
REMARK  9 active torsions:
REMARK  status: ('A' for Active; 'I' for Inactive)
REMARK    1  A    between atoms: C_1  and  C_2
REMARK    2  A    between atoms: C_2  and  C_3
REMARK    3  A    between atoms: C_2  and  N_34
REMARK    4  A    between atoms: C_7  and  C_8
REMARK    5  A    between atoms: N_14  and  C_15
REMARK    6  A    between atoms: C_19  and  C_20
REMARK    7  A    between atoms: C_20  and  C_21
REMARK    8  A    between atoms: C_21  and  C_22
REMARK    9  A    between atoms: N_26  and  C_27
REMARK                            x       y       z     vdW  Elec       q    Type
REMARK                         _______ _______ _______ _____ _____    ______ ____
ROOT
ATOM      1  C   UNL     1       3.604   5.255  17.876  0.00  0.00    +0.000 A 
ATOM      2  C   UNL     1       3.301   6.614  17.991  0.00  0.00    +0.000 A 
ATOM      3  C   UNL     1       2.489   6.997  19.038  0.00  0.00    +0.000 A 
ATOM      4  C   UNL     1       2.029   6.116  20.015  0.00  0.00    +0.000 A 
ATOM      5  C   UNL     1       2.303   4.765  19.921  0.00  0.00    +0.000 A 
ATOM      6  C   UNL     1       3.028   4.343  18.793  0.00  0.00    +0.000 A 
ATOM      7  C   UNL     1       1.261   6.867  21.051  0.00  0.00    +0.000 C 
ATOM      8  N   UNL     1       1.291   8.221  20.533  0.00  0.00    +0.000 N 
ATOM      9  C   UNL     1       1.973   8.333  19.327  0.00  0.00    +0.000 C 
ATOM     10  O   UNL     1       2.169   9.284  18.605  0.00  0.00    +0.000 OA
ENDROOT
BRANCH   8  11
ATOM     11  C   UNL     1       0.476   9.212  21.078  0.00  0.00    +0.000 A 
ATOM     12  C   UNL     1       0.036   9.112  22.396  0.00  0.00    +0.000 A 
ATOM     13  C   UNL     1      -0.736  10.121  22.941  0.00  0.00    +0.000 A 
ATOM     14  C   UNL     1      -1.127  11.196  22.148  0.00  0.00    +0.000 A 
ATOM     15  C   UNL     1      -0.751  11.302  20.787  0.00  0.00    +0.000 A 
ATOM     16  C   UNL     1       0.110  10.312  20.299  0.00  0.00    +0.000 A 
BRANCH  15  17
ATOM     17  C   UNL     1      -1.332  12.432  19.825  0.00  0.00    +0.000 C 
ATOM     18  C   UNL     1      -1.160  13.939  20.203  0.00  0.00    +0.000 C 
ATOM     19  O   UNL     1      -0.700  14.237  18.850  0.00  0.00    +0.000 OA
ATOM     20  C   UNL     1      -0.323  12.846  18.703  0.00  0.00    +0.000 C 
BRANCH  17  21
ATOM     21  C   UNL     1      -2.751  12.086  19.331  0.00  0.00    +0.000 C 
BRANCH  21  22
ATOM     22  C   UNL     1      -2.811  11.379  18.006  0.00  0.00    +0.000 A 
ATOM     23  N   UNL     1      -1.860  10.657  17.445  0.00  0.00    +0.000 NA
ATOM     24  N   UNL     1      -2.311  10.209  16.222  0.00  0.00    +0.000 NA
ATOM     25  C   UNL     1      -3.538  10.646  16.070  0.00  0.00    +0.000 A 
ATOM     26  N   UNL     1      -3.902  11.367  17.166  0.00  0.00    +0.000 N 
ATOM     27  C   UNL     1      -5.189  11.979  17.356  0.00  0.00    +0.000 C 
ENDBRANCH  21  22
ENDBRANCH  17  21
ENDBRANCH  15  17
ENDBRANCH   8  11
BRANCH   5  28
ATOM     28  C   UNL     1       1.924   3.766  20.980  0.00  0.00    +0.000 C 
ATOM     29  F   UNL     1       0.586   3.567  21.096  0.00  0.00    +0.000 F 
ATOM     30  F   UNL     1       2.475   2.542  20.771  0.00  0.00    +0.000 F 
ATOM     31  F   UNL     1       2.350   4.166  22.211  0.00  0.00    +0.000 F 
ENDBRANCH   5  28
BRANCH   1  33
ATOM     32  C   UNL     1       4.105   3.405  16.284  0.00  0.00    +0.000 C 
ATOM     33  C   UNL     1       4.556   4.787  16.783  0.00  0.00    +0.000 C 
BRANCH  33  34
ATOM     34  N   UNL     1       5.971   4.839  17.150  0.00  0.00    +0.000 NA
ATOM     35  C   UNL     1       6.877   5.779  16.497  0.00  0.00    +0.000 C 
ATOM     36  C   UNL     1       7.579   6.500  17.642  0.00  0.00    +0.000 C 
ATOM     37  C   UNL     1       7.689   5.418  18.694  0.00  0.00    +0.000 C 
ATOM     38  F   UNL     1       8.761   4.630  18.408  0.00  0.00    +0.000 F 
ATOM     39  C   UNL     1       6.403   4.614  18.525  0.00  0.00    +0.000 C 
ENDBRANCH  33  34
ENDBRANCH   1  33
TORSDOF 7
ENDMDL
MODEL 2
REMARK VINA RESULT:      -9.7      3.299      8.919
REMARK  Name = 
REMARK  9 active torsions:
REMARK  status: ('A' for Active; 'I' for Inactive)
REMARK    1  A    between atoms: C_1  and  C_2
REMARK    2  A    between atoms: C_2  and  C_3
REMARK    3  A    between atoms: C_2  and  N_34
REMARK    4  A    between atoms: C_7  and  C_8
REMARK    5  A    between atoms: N_14  and  C_15
REMARK    6  A    between atoms: C_19  and  C_20
REMARK    7  A    between atoms: C_20  and  C_21
REMARK    8  A    between atoms: C_21  and  C_22
REMARK    9  A    between atoms: N_26  and  C_27
REMARK                            x       y       z     vdW  Elec       q    Type
REMARK                         _______ _______ _______ _____ _____    ______ ____
ROOT
ATOM      1  C   UNL     1       0.153  11.505  19.593  0.00  0.00    +0.000 A 
ATOM      2  C   UNL     1       0.856  10.626  18.765  0.00  0.00    +0.000 A 
ATOM      3  C   UNL     1       1.279   9.436  19.317  0.00  0.00    +0.000 A 
ATOM      4  C   UNL     1       0.975   9.042  20.619  0.00  0.00    +0.000 A 
ATOM      5  C   UNL     1       0.292   9.895  21.465  0.00  0.00    +0.000 A 
ATOM      6  C   UNL     1      -0.040  11.161  20.953  0.00  0.00    +0.000 A 
ATOM      7  C   UNL     1       1.498   7.666  20.866  0.00  0.00    +0.000 C 
ATOM      8  N   UNL     1       2.161   7.361  19.613  0.00  0.00    +0.000 N 
ATOM      9  C   UNL     1       2.087   8.394  18.687  0.00  0.00    +0.000 C 
ATOM     10  O   UNL     1       2.543   8.501  17.571  0.00  0.00    +0.000 OA
ENDROOT
BRANCH   8  11
ATOM     11  C   UNL     1       3.000   6.253  19.501  0.00  0.00    +0.000 A 
ATOM     12  C   UNL     1       2.577   5.005  19.952  0.00  0.00    +0.000 A 
ATOM     13  C   UNL     1       3.400   3.904  19.795  0.00  0.00    +0.000 A 
ATOM     14  C   UNL     1       4.672   4.063  19.254  0.00  0.00    +0.000 A 
ATOM     15  C   UNL     1       5.160   5.326  18.841  0.00  0.00    +0.000 A 
ATOM     16  C   UNL     1       4.264   6.399  18.924  0.00  0.00    +0.000 A 
BRANCH  15  17
ATOM     17  C   UNL     1       6.669   5.551  18.383  0.00  0.00    +0.000 C 
ATOM     18  C   UNL     1       7.136   6.966  17.909  0.00  0.00    +0.000 C 
ATOM     19  O   UNL     1       8.317   6.874  18.762  0.00  0.00    +0.000 OA
ATOM     20  C   UNL     1       7.617   5.902  19.577  0.00  0.00    +0.000 C 
BRANCH  17  21
ATOM     21  C   UNL     1       7.164   4.411  17.471  0.00  0.00    +0.000 C 
BRANCH  21  22
ATOM     22  C   UNL     1       6.884   4.596  16.006  0.00  0.00    +0.000 A 
ATOM     23  N   UNL     1       7.664   5.179  15.114  0.00  0.00    +0.000 NA
ATOM     24  N   UNL     1       7.024   5.163  13.894  0.00  0.00    +0.000 NA
ATOM     25  C   UNL     1       5.877   4.550  14.057  0.00  0.00    +0.000 A 
ATOM     26  N   UNL     1       5.751   4.161  15.356  0.00  0.00    +0.000 N 
ATOM     27  C   UNL     1       4.628   3.441  15.893  0.00  0.00    +0.000 C 
ENDBRANCH  21  22
ENDBRANCH  17  21
ENDBRANCH  15  17
ENDBRANCH   8  11
BRANCH   5  28
ATOM     28  C   UNL     1      -0.155   9.510  22.847  0.00  0.00    +0.000 C 
ATOM     29  F   UNL     1      -0.942   8.404  22.884  0.00  0.00    +0.000 F 
ATOM     30  F   UNL     1       0.884   9.266  23.689  0.00  0.00    +0.000 F 
ATOM     31  F   UNL     1      -0.884  10.505  23.428  0.00  0.00    +0.000 F 
ENDBRANCH   5  28
BRANCH   1  33
ATOM     32  C   UNL     1      -1.065  12.501  17.660  0.00  0.00    +0.000 C 
ATOM     33  C   UNL     1      -0.402  12.800  19.015  0.00  0.00    +0.000 C 
BRANCH  33  34
ATOM     34  N   UNL     1       0.561  13.900  18.960  0.00  0.00    +0.000 NA
ATOM     35  C   UNL     1       0.707  14.821  20.083  0.00  0.00    +0.000 C 
ATOM     36  C   UNL     1       2.203  14.844  20.373  0.00  0.00    +0.000 C 
ATOM     37  C   UNL     1       2.807  14.687  18.994  0.00  0.00    +0.000 C 
ATOM     38  F   UNL     1       2.813  15.898  18.373  0.00  0.00    +0.000 F 
ATOM     39  C   UNL     1       1.841  13.749  18.278  0.00  0.00    +0.000 C 
ENDBRANCH  33  34
ENDBRANCH   1  33
TORSDOF 7
ENDMDL
MODEL 3
REMARK VINA RESULT:      -9.5      3.035      9.399
REMARK  Name = 
REMARK  9 active torsions:
REMARK  status: ('A' for Active; 'I' for Inactive)
REMARK    1  A    between atoms: C_1  and  C_2
REMARK    2  A    between atoms: C_2  and  C_3
REMARK    3  A    between atoms: C_2  and  N_34
REMARK    4  A    between atoms: C_7  and  C_8
REMARK    5  A    between atoms: N_14  and  C_15
REMARK    6  A    between atoms: C_19  and  C_20
REMARK    7  A    between atoms: C_20  and  C_21
REMARK    8  A    between atoms: C_21  and  C_22
REMARK    9  A    between atoms: N_26  and  C_27
REMARK                            x       y       z     vdW  Elec       q    Type
REMARK                         _______ _______ _______ _____ _____    ______ ____
ROOT
ATOM      1  C   UNL     1       0.426  11.362  19.321  0.00  0.00    +0.000 A 
ATOM      2  C   UNL     1       1.028  10.451  18.450  0.00  0.00    +0.000 A 
ATOM      3  C   UNL     1       1.456   9.253  18.982  0.00  0.00    +0.000 A 
ATOM      4  C   UNL     1       1.248   8.885  20.310  0.00  0.00    +0.000 A 
ATOM      5  C   UNL     1       0.668   9.770  21.197  0.00  0.00    +0.000 A 
ATOM      6  C   UNL     1       0.335  11.041  20.697  0.00  0.00    +0.000 A 
ATOM      7  C   UNL     1       1.744   7.494  20.532  0.00  0.00    +0.000 C 
ATOM      8  N   UNL     1       2.289   7.152  19.233  0.00  0.00    +0.000 N 
ATOM      9  C   UNL     1       2.173   8.177  18.301  0.00  0.00    +0.000 C 
ATOM     10  O   UNL     1       2.537   8.255  17.150  0.00  0.00    +0.000 OA
ENDROOT
BRANCH   8  11
ATOM     11  C   UNL     1       3.079   6.015  19.066  0.00  0.00    +0.000 A 
ATOM     12  C   UNL     1       3.105   5.030  20.051  0.00  0.00    +0.000 A 
ATOM     13  C   UNL     1       3.857   3.886  19.857  0.00  0.00    +0.000 A 
ATOM     14  C   UNL     1       4.638   3.758  18.712  0.00  0.00    +0.000 A 
ATOM     15  C   UNL     1       4.686   4.765  17.718  0.00  0.00    +0.000 A 
ATOM     16  C   UNL     1       3.836   5.864  17.903  0.00  0.00    +0.000 A 
BRANCH  15  17
ATOM     17  C   UNL     1       5.703   4.711  16.493  0.00  0.00    +0.000 C 
ATOM     18  C   UNL     1       5.507   3.646  15.366  0.00  0.00    +0.000 C 
ATOM     19  O   UNL     1       5.682   4.676  14.347  0.00  0.00    +0.000 OA
ATOM     20  C   UNL     1       5.294   5.671  15.327  0.00  0.00    +0.000 C 
BRANCH  17  21
ATOM     21  C   UNL     1       7.166   4.839  16.962  0.00  0.00    +0.000 C 
BRANCH  21  22
ATOM     22  C   UNL     1       7.571   6.212  17.423  0.00  0.00    +0.000 A 
ATOM     23  N   UNL     1       7.594   7.318  16.704  0.00  0.00    +0.000 NA
ATOM     24  N   UNL     1       8.051   8.348  17.498  0.00  0.00    +0.000 NA
ATOM     25  C   UNL     1       8.275   7.857  18.692  0.00  0.00    +0.000 A 
ATOM     26  N   UNL     1       7.973   6.529  18.701  0.00  0.00    +0.000 N 
ATOM     27  C   UNL     1       8.076   5.670  19.850  0.00  0.00    +0.000 C 
ENDBRANCH  21  22
ENDBRANCH  17  21
ENDBRANCH  15  17
ENDBRANCH   8  11
BRANCH   5  28
ATOM     28  C   UNL     1       0.325   9.416  22.618  0.00  0.00    +0.000 C 
ATOM     29  F   UNL     1      -0.291  10.415  23.302  0.00  0.00    +0.000 F 
ATOM     30  F   UNL     1      -0.490   8.332  22.709  0.00  0.00    +0.000 F 
ATOM     31  F   UNL     1       1.442   9.107  23.334  0.00  0.00    +0.000 F 
ENDBRANCH   5  28
BRANCH   1  33
ATOM     32  C   UNL     1       0.357  13.831  19.652  0.00  0.00    +0.000 C 
ATOM     33  C   UNL     1      -0.132  12.669  18.773  0.00  0.00    +0.000 C 
BRANCH  33  34
ATOM     34  N   UNL     1      -1.580  12.668  18.564  0.00  0.00    +0.000 NA
ATOM     35  C   UNL     1      -2.181  11.861  17.506  0.00  0.00    +0.000 C 
ATOM     36  C   UNL     1      -3.283  11.070  18.201  0.00  0.00    +0.000 C 
ATOM     37  C   UNL     1      -3.770  12.041  19.254  0.00  0.00    +0.000 C 
ATOM     38  F   UNL     1      -4.635  12.920  18.679  0.00  0.00    +0.000 F 
ATOM     39  C   UNL     1      -2.505  12.775  19.686  0.00  0.00    +0.000 C 
ENDBRANCH  33  34
ENDBRANCH   1  33
TORSDOF 7
ENDMDL
MODEL 4
REMARK VINA RESULT:      -9.4      1.642      2.667
REMARK  Name = 
REMARK  9 active torsions:
REMARK  status: ('A' for Active; 'I' for Inactive)
REMARK    1  A    between atoms: C_1  and  C_2
REMARK    2  A    between atoms: C_2  and  C_3
REMARK    3  A    between atoms: C_2  and  N_34
REMARK    4  A    between atoms: C_7  and  C_8
REMARK    5  A    between atoms: N_14  and  C_15
REMARK    6  A    between atoms: C_19  and  C_20
REMARK    7  A    between atoms: C_20  and  C_21
REMARK    8  A    between atoms: C_21  and  C_22
REMARK    9  A    between atoms: N_26  and  C_27
REMARK                            x       y       z     vdW  Elec       q    Type
REMARK                         _______ _______ _______ _____ _____    ______ ____
ROOT
ATOM      1  C   UNL     1       3.615   5.286  17.873  0.00  0.00    +0.000 A 
ATOM      2  C   UNL     1       3.316   6.646  17.994  0.00  0.00    +0.000 A 
ATOM      3  C   UNL     1       2.504   7.026  19.042  0.00  0.00    +0.000 A 
ATOM      4  C   UNL     1       2.039   6.141  20.013  0.00  0.00    +0.000 A 
ATOM      5  C   UNL     1       2.307   4.790  19.912  0.00  0.00    +0.000 A 
ATOM      6  C   UNL     1       3.033   4.371  18.783  0.00  0.00    +0.000 A 
ATOM      7  C   UNL     1       1.272   6.889  21.052  0.00  0.00    +0.000 C 
ATOM      8  N   UNL     1       1.308   8.247  20.542  0.00  0.00    +0.000 N 
ATOM      9  C   UNL     1       1.993   8.362  19.338  0.00  0.00    +0.000 C 
ATOM     10  O   UNL     1       2.193   9.317  18.622  0.00  0.00    +0.000 OA
ENDROOT
BRANCH   8  11
ATOM     11  C   UNL     1       0.495   9.238  21.091  0.00  0.00    +0.000 A 
ATOM     12  C   UNL     1       0.265   9.274  22.465  0.00  0.00    +0.000 A 
ATOM     13  C   UNL     1      -0.506  10.287  23.004  0.00  0.00    +0.000 A 
ATOM     14  C   UNL     1      -1.105  11.221  22.165  0.00  0.00    +0.000 A 
ATOM     15  C   UNL     1      -0.945  11.180  20.759  0.00  0.00    +0.000 A 
ATOM     16  C   UNL     1      -0.078  10.200  20.258  0.00  0.00    +0.000 A 
BRANCH  15  17
ATOM     17  C   UNL     1      -1.760  12.134  19.777  0.00  0.00    +0.000 C 
ATOM     18  C   UNL     1      -2.277  11.584  18.409  0.00  0.00    +0.000 C 
ATOM     19  O   UNL     1      -3.595  12.157  18.664  0.00  0.00    +0.000 OA
ATOM     20  C   UNL     1      -3.295  12.143  20.081  0.00  0.00    +0.000 C 
BRANCH  17  21
ATOM     21  C   UNL     1      -1.109  13.527  19.666  0.00  0.00    +0.000 C 
BRANCH  21  22
ATOM     22  C   UNL     1       0.378  13.522  19.445  0.00  0.00    +0.000 A 
ATOM     23  N   UNL     1       1.018  13.178  18.342  0.00  0.00    +0.000 NA
ATOM     24  N   UNL     1       2.372  13.289  18.567  0.00  0.00    +0.000 NA
ATOM     25  C   UNL     1       2.535  13.723  19.794  0.00  0.00    +0.000 A 
ATOM     26  N   UNL     1       1.317  13.901  20.377  0.00  0.00    +0.000 N 
ATOM     27  C   UNL     1       1.109  14.389  21.714  0.00  0.00    +0.000 C 
ENDBRANCH  21  22
ENDBRANCH  17  21
ENDBRANCH  15  17
ENDBRANCH   8  11
BRANCH   5  28
ATOM     28  C   UNL     1       1.923   3.787  20.964  0.00  0.00    +0.000 C 
ATOM     29  F   UNL     1       0.583   3.665  21.146  0.00  0.00    +0.000 F 
ATOM     30  F   UNL     1       2.388   2.538  20.697  0.00  0.00    +0.000 F 
ATOM     31  F   UNL     1       2.434   4.126  22.182  0.00  0.00    +0.000 F 
ENDBRANCH   5  28
BRANCH   1  33
ATOM     32  C   UNL     1       4.112   3.443  16.272  0.00  0.00    +0.000 C 
ATOM     33  C   UNL     1       4.567   4.821  16.779  0.00  0.00    +0.000 C 
BRANCH  33  34
ATOM     34  N   UNL     1       5.981   4.867  17.148  0.00  0.00    +0.000 NA
ATOM     35  C   UNL     1       6.899   5.781  16.475  0.00  0.00    +0.000 C 
ATOM     36  C   UNL     1       7.606   6.522  17.604  0.00  0.00    +0.000 C 
ATOM     37  C   UNL     1       7.701   5.464  18.682  0.00  0.00    +0.000 C 
ATOM     38  F   UNL     1       8.766   4.658  18.419  0.00  0.00    +0.000 F 
ATOM     39  C   UNL     1       6.408   4.671  18.529  0.00  0.00    +0.000 C 
ENDBRANCH  33  34
ENDBRANCH   1  33
TORSDOF 7
ENDMDL
MODEL 5
REMARK VINA RESULT:      -9.4      3.302      9.476
REMARK  Name = 
REMARK  9 active torsions:
REMARK  status: ('A' for Active; 'I' for Inactive)
REMARK    1  A    between atoms: C_1  and  C_2
REMARK    2  A    between atoms: C_2  and  C_3
REMARK    3  A    between atoms: C_2  and  N_34
REMARK    4  A    between atoms: C_7  and  C_8
REMARK    5  A    between atoms: N_14  and  C_15
REMARK    6  A    between atoms: C_19  and  C_20
REMARK    7  A    between atoms: C_20  and  C_21
REMARK    8  A    between atoms: C_21  and  C_22
REMARK    9  A    between atoms: N_26  and  C_27
REMARK                            x       y       z     vdW  Elec       q    Type
REMARK                         _______ _______ _______ _____ _____    ______ ____
ROOT
ATOM      1  C   UNL     1       0.110  11.539  19.674  0.00  0.00    +0.000 A 
ATOM      2  C   UNL     1       0.799  10.684  18.810  0.00  0.00    +0.000 A 
ATOM      3  C   UNL     1       1.236   9.481  19.323  0.00  0.00    +0.000 A 
ATOM      4  C   UNL     1       0.959   9.053  20.620  0.00  0.00    +0.000 A 
ATOM      5  C   UNL     1       0.291   9.882  21.500  0.00  0.00    +0.000 A 
ATOM      6  C   UNL     1      -0.055  11.160  21.028  0.00  0.00    +0.000 A 
ATOM      7  C   UNL     1       1.490   7.673  20.821  0.00  0.00    +0.000 C 
ATOM      8  N   UNL     1       2.129   7.402  19.547  0.00  0.00    +0.000 N 
ATOM      9  C   UNL     1       2.034   8.459  18.650  0.00  0.00    +0.000 C 
ATOM     10  O   UNL     1       2.467   8.595  17.528  0.00  0.00    +0.000 OA
ENDROOT
BRANCH   8  11
ATOM     11  C   UNL     1       2.969   6.300  19.390  0.00  0.00    +0.000 A 
ATOM     12  C   UNL     1       2.540   5.032  19.776  0.00  0.00    +0.000 A 
ATOM     13  C   UNL     1       3.364   3.939  19.575  0.00  0.00    +0.000 A 
ATOM     14  C   UNL     1       4.641   4.124  19.054  0.00  0.00    +0.000 A 
ATOM     15  C   UNL     1       5.134   5.404  18.708  0.00  0.00    +0.000 A 
ATOM     16  C   UNL     1       4.238   6.473  18.833  0.00  0.00    +0.000 A 
BRANCH  15  17
ATOM     17  C   UNL     1       6.648   5.650  18.275  0.00  0.00    +0.000 C 
ATOM     18  C   UNL     1       7.093   7.058  17.764  0.00  0.00    +0.000 C 
ATOM     19  O   UNL     1       8.256   7.023  18.646  0.00  0.00    +0.000 OA
ATOM     20  C   UNL     1       7.560   6.063  19.478  0.00  0.00    +0.000 C 
BRANCH  17  21
ATOM     21  C   UNL     1       7.189   4.491  17.414  0.00  0.00    +0.000 C 
BRANCH  21  22
ATOM     22  C   UNL     1       6.921   4.612  15.939  0.00  0.00    +0.000 A 
ATOM     23  N   UNL     1       7.673   5.220  15.041  0.00  0.00    +0.000 NA
ATOM     24  N   UNL     1       7.056   5.122  13.813  0.00  0.00    +0.000 NA
ATOM     25  C   UNL     1       5.952   4.434  13.979  0.00  0.00    +0.000 A 
ATOM     26  N   UNL     1       5.833   4.077  15.288  0.00  0.00    +0.000 N 
ATOM     27  C   UNL     1       4.755   3.296  15.832  0.00  0.00    +0.000 C 
ENDBRANCH  21  22
ENDBRANCH  17  21
ENDBRANCH  15  17
ENDBRANCH   8  11
BRANCH   5  28
ATOM     28  C   UNL     1      -0.128   9.460  22.882  0.00  0.00    +0.000 C 
ATOM     29  F   UNL     1       0.910   9.164  23.706  0.00  0.00    +0.000 F 
ATOM     30  F   UNL     1      -0.865  10.405  23.521  0.00  0.00    +0.000 F 
ATOM     31  F   UNL     1      -0.903   8.340  22.843  0.00  0.00    +0.000 F 
ENDBRANCH   5  28
BRANCH   1  33
ATOM     32  C   UNL     1       0.590  13.522  18.243  0.00  0.00    +0.000 C 
ATOM     33  C   UNL     1      -0.460  12.847  19.140  0.00  0.00    +0.000 C 
BRANCH  33  34
ATOM     34  N   UNL     1      -1.003  13.734  20.169  0.00  0.00    +0.000 NA
ATOM     35  C   UNL     1      -0.382  15.027  20.442  0.00  0.00    +0.000 C 
ATOM     36  C   UNL     1      -1.530  16.028  20.383  0.00  0.00    +0.000 C 
ATOM     37  C   UNL     1      -2.692  15.228  20.931  0.00  0.00    +0.000 C 
ATOM     38  F   UNL     1      -2.633  15.235  22.290  0.00  0.00    +0.000 F 
ATOM     39  C   UNL     1      -2.438  13.816  20.414  0.00  0.00    +0.000 C 
ENDBRANCH  33  34
ENDBRANCH   1  33
TORSDOF 7
ENDMDL
MODEL 6
REMARK VINA RESULT:      -9.4      1.723      2.269
REMARK  Name = 
REMARK  9 active torsions:
REMARK  status: ('A' for Active; 'I' for Inactive)
REMARK    1  A    between atoms: C_1  and  C_2
REMARK    2  A    between atoms: C_2  and  C_3
REMARK    3  A    between atoms: C_2  and  N_34
REMARK    4  A    between atoms: C_7  and  C_8
REMARK    5  A    between atoms: N_14  and  C_15
REMARK    6  A    between atoms: C_19  and  C_20
REMARK    7  A    between atoms: C_20  and  C_21
REMARK    8  A    between atoms: C_21  and  C_22
REMARK    9  A    between atoms: N_26  and  C_27
REMARK                            x       y       z     vdW  Elec       q    Type
REMARK                         _______ _______ _______ _____ _____    ______ ____
ROOT
ATOM      1  C   UNL     1       3.667   5.271  17.943  0.00  0.00    +0.000 A 
ATOM      2  C   UNL     1       3.365   6.632  18.047  0.00  0.00    +0.000 A 
ATOM      3  C   UNL     1       2.518   7.017  19.065  0.00  0.00    +0.000 A 
ATOM      4  C   UNL     1       2.019   6.137  20.024  0.00  0.00    +0.000 A 
ATOM      5  C   UNL     1       2.290   4.785  19.939  0.00  0.00    +0.000 A 
ATOM      6  C   UNL     1       3.054   4.361  18.838  0.00  0.00    +0.000 A 
ATOM      7  C   UNL     1       1.217   6.891  21.032  0.00  0.00    +0.000 C 
ATOM      8  N   UNL     1       1.271   8.245  20.516  0.00  0.00    +0.000 N 
ATOM      9  C   UNL     1       1.997   8.355  19.336  0.00  0.00    +0.000 C 
ATOM     10  O   UNL     1       2.222   9.306  18.622  0.00  0.00    +0.000 OA
ENDROOT
BRANCH   8  11
ATOM     11  C   UNL     1       0.440   9.240  21.032  0.00  0.00    +0.000 A 
ATOM     12  C   UNL     1       0.274   9.369  22.409  0.00  0.00    +0.000 A 
ATOM     13  C   UNL     1      -0.517  10.386  22.911  0.00  0.00    +0.000 A 
ATOM     14  C   UNL     1      -1.198  11.228  22.037  0.00  0.00    +0.000 A 
ATOM     15  C   UNL     1      -1.103  11.088  20.631  0.00  0.00    +0.000 A 
ATOM     16  C   UNL     1      -0.217  10.111  20.160  0.00  0.00    +0.000 A 
BRANCH  15  17
ATOM     17  C   UNL     1      -2.008  11.929  19.625  0.00  0.00    +0.000 C 
ATOM     18  C   UNL     1      -1.471  12.273  18.198  0.00  0.00    +0.000 C 
ATOM     19  O   UNL     1      -2.733  11.839  17.607  0.00  0.00    +0.000 OA
ATOM     20  C   UNL     1      -2.972  11.029  18.784  0.00  0.00    +0.000 C 
BRANCH  17  21
ATOM     21  C   UNL     1      -2.679  13.126  20.328  0.00  0.00    +0.000 C 
BRANCH  21  22
ATOM     22  C   UNL     1      -3.996  12.823  20.987  0.00  0.00    +0.000 A 
ATOM     23  N   UNL     1      -4.190  12.426  22.231  0.00  0.00    +0.000 NA
ATOM     24  N   UNL     1      -5.541  12.235  22.426  0.00  0.00    +0.000 NA
ATOM     25  C   UNL     1      -6.148  12.543  21.306  0.00  0.00    +0.000 A 
ATOM     26  N   UNL     1      -5.228  12.934  20.382  0.00  0.00    +0.000 N 
ATOM     27  C   UNL     1      -5.536  13.364  19.045  0.00  0.00    +0.000 C 
ENDBRANCH  21  22
ENDBRANCH  17  21
ENDBRANCH  15  17
ENDBRANCH   8  11
BRANCH   5  28
ATOM     28  C   UNL     1       1.869   3.788  20.982  0.00  0.00    +0.000 C 
ATOM     29  F   UNL     1       2.262   4.110  22.242  0.00  0.00    +0.000 F 
ATOM     30  F   UNL     1       0.522   3.617  21.035  0.00  0.00    +0.000 F 
ATOM     31  F   UNL     1       2.396   2.557  20.731  0.00  0.00    +0.000 F 
ENDBRANCH   5  28
BRANCH   1  33
ATOM     32  C   UNL     1       4.265   3.386  16.427  0.00  0.00    +0.000 C 
ATOM     33  C   UNL     1       4.657   4.800  16.885  0.00  0.00    +0.000 C 
BRANCH  33  34
ATOM     34  N   UNL     1       6.062   4.916  17.276  0.00  0.00    +0.000 NA
ATOM     35  C   UNL     1       6.946   5.866  16.608  0.00  0.00    +0.000 C 
ATOM     36  C   UNL     1       7.599   6.650  17.740  0.00  0.00    +0.000 C 
ATOM     37  C   UNL     1       7.726   5.609  18.830  0.00  0.00    +0.000 C 
ATOM     38  F   UNL     1       8.832   4.851  18.592  0.00  0.00    +0.000 F 
ATOM     39  C   UNL     1       6.474   4.754  18.666  0.00  0.00    +0.000 C 
ENDBRANCH  33  34
ENDBRANCH   1  33
TORSDOF 7
ENDMDL
MODEL 7
REMARK VINA RESULT:      -9.3      2.471      3.504
REMARK  Name = 
REMARK  9 active torsions:
REMARK  status: ('A' for Active; 'I' for Inactive)
REMARK    1  A    between atoms: C_1  and  C_2
REMARK    2  A    between atoms: C_2  and  C_3
REMARK    3  A    between atoms: C_2  and  N_34
REMARK    4  A    between atoms: C_7  and  C_8
REMARK    5  A    between atoms: N_14  and  C_15
REMARK    6  A    between atoms: C_19  and  C_20
REMARK    7  A    between atoms: C_20  and  C_21
REMARK    8  A    between atoms: C_21  and  C_22
REMARK    9  A    between atoms: N_26  and  C_27
REMARK                            x       y       z     vdW  Elec       q    Type
REMARK                         _______ _______ _______ _____ _____    ______ ____
ROOT
ATOM      1  C   UNL     1       4.064   5.970  17.600  0.00  0.00    +0.000 A 
ATOM      2  C   UNL     1       3.656   7.286  17.371  0.00  0.00    +0.000 A 
ATOM      3  C   UNL     1       2.628   7.776  18.149  0.00  0.00    +0.000 A 
ATOM      4  C   UNL     1       2.040   7.056  19.187  0.00  0.00    +0.000 A 
ATOM      5  C   UNL     1       2.414   5.748  19.428  0.00  0.00    +0.000 A 
ATOM      6  C   UNL     1       3.376   5.196  18.566  0.00  0.00    +0.000 A 
ATOM      7  C   UNL     1       1.033   7.908  19.886  0.00  0.00    +0.000 C 
ATOM      8  N   UNL     1       1.078   9.134  19.111  0.00  0.00    +0.000 N 
ATOM      9  C   UNL     1       1.979   9.082  18.053  0.00  0.00    +0.000 C 
ATOM     10  O   UNL     1       2.253   9.892  17.197  0.00  0.00    +0.000 OA
ENDROOT
BRANCH   8  11
ATOM     11  C   UNL     1       0.108  10.121  19.278  0.00  0.00    +0.000 A 
ATOM     12  C   UNL     1      -0.953  10.220  18.381  0.00  0.00    +0.000 A 
ATOM     13  C   UNL     1      -1.934  11.174  18.582  0.00  0.00    +0.000 A 
ATOM     14  C   UNL     1      -1.817  12.074  19.637  0.00  0.00    +0.000 A 
ATOM     15  C   UNL     1      -0.722  12.044  20.533  0.00  0.00    +0.000 A 
ATOM     16  C   UNL     1       0.199  11.003  20.357  0.00  0.00    +0.000 A 
BRANCH  15  17
ATOM     17  C   UNL     1      -0.487  13.170  21.634  0.00  0.00    +0.000 C 
ATOM     18  C   UNL     1       0.843  13.990  21.638  0.00  0.00    +0.000 C 
ATOM     19  O   UNL     1       0.090  15.233  21.772  0.00  0.00    +0.000 OA
ATOM     20  C   UNL     1      -1.063  14.561  21.208  0.00  0.00    +0.000 C 
BRANCH  17  21
ATOM     21  C   UNL     1      -0.910  12.691  23.037  0.00  0.00    +0.000 C 
BRANCH  21  22
ATOM     22  C   UNL     1      -2.370  12.859  23.356  0.00  0.00    +0.000 A 
ATOM     23  N   UNL     1      -3.359  12.062  22.997  0.00  0.00    +0.000 NA
ATOM     24  N   UNL     1      -4.542  12.588  23.471  0.00  0.00    +0.000 NA
ATOM     25  C   UNL     1      -4.250  13.683  24.131  0.00  0.00    +0.000 A 
ATOM     26  N   UNL     1      -2.903  13.885  24.103  0.00  0.00    +0.000 N 
ATOM     27  C   UNL     1      -2.223  14.978  24.743  0.00  0.00    +0.000 C 
ENDBRANCH  21  22
ENDBRANCH  17  21
ENDBRANCH  15  17
ENDBRANCH   8  11
BRANCH   5  28
ATOM     28  C   UNL     1       1.897   4.938  20.585  0.00  0.00    +0.000 C 
ATOM     29  F   UNL     1       2.418   3.686  20.657  0.00  0.00    +0.000 F 
ATOM     30  F   UNL     1       2.139   5.523  21.788  0.00  0.00    +0.000 F 
ATOM     31  F   UNL     1       0.546   4.776  20.511  0.00  0.00    +0.000 F 
ENDBRANCH   5  28
BRANCH   1  33
ATOM     32  C   UNL     1       4.871   4.008  16.293  0.00  0.00    +0.000 C 
ATOM     33  C   UNL     1       5.244   5.402  16.822  0.00  0.00    +0.000 C 
BRANCH  33  34
ATOM     34  N   UNL     1       6.515   5.429  17.545  0.00  0.00    +0.000 NA
ATOM     35  C   UNL     1       7.558   6.386  17.186  0.00  0.00    +0.000 C 
ATOM     36  C   UNL     1       7.936   7.057  18.501  0.00  0.00    +0.000 C 
ATOM     37  C   UNL     1       7.772   5.934  19.502  0.00  0.00    +0.000 C 
ATOM     38  F   UNL     1       8.883   5.150  19.475  0.00  0.00    +0.000 F 
ATOM     39  C   UNL     1       6.576   5.148  18.974  0.00  0.00    +0.000 C 
ENDBRANCH  33  34
ENDBRANCH   1  33
TORSDOF 7
ENDMDL
MODEL 8
REMARK VINA RESULT:      -9.3      1.911      2.900
REMARK  Name = 
REMARK  9 active torsions:
REMARK  status: ('A' for Active; 'I' for Inactive)
REMARK    1  A    between atoms: C_1  and  C_2
REMARK    2  A    between atoms: C_2  and  C_3
REMARK    3  A    between atoms: C_2  and  N_34
REMARK    4  A    between atoms: C_7  and  C_8
REMARK    5  A    between atoms: N_14  and  C_15
REMARK    6  A    between atoms: C_19  and  C_20
REMARK    7  A    between atoms: C_20  and  C_21
REMARK    8  A    between atoms: C_21  and  C_22
REMARK    9  A    between atoms: N_26  and  C_27
REMARK                            x       y       z     vdW  Elec       q    Type
REMARK                         _______ _______ _______ _____ _____    ______ ____
ROOT
ATOM      1  C   UNL     1       3.625   5.409  17.892  0.00  0.00    +0.000 A 
ATOM      2  C   UNL     1       3.326   6.761  18.084  0.00  0.00    +0.000 A 
ATOM      3  C   UNL     1       2.485   7.082  19.129  0.00  0.00    +0.000 A 
ATOM      4  C   UNL     1       1.990   6.144  20.033  0.00  0.00    +0.000 A 
ATOM      5  C   UNL     1       2.258   4.800  19.860  0.00  0.00    +0.000 A 
ATOM      6  C   UNL     1       3.015   4.445  18.730  0.00  0.00    +0.000 A 
ATOM      7  C   UNL     1       1.195   6.833  21.092  0.00  0.00    +0.000 C 
ATOM      8  N   UNL     1       1.249   8.218  20.663  0.00  0.00    +0.000 N 
ATOM      9  C   UNL     1       1.969   8.401  19.487  0.00  0.00    +0.000 C 
ATOM     10  O   UNL     1       2.192   9.395  18.834  0.00  0.00    +0.000 OA
ENDROOT
BRANCH   8  11
ATOM     11  C   UNL     1       0.423   9.179  21.245  0.00  0.00    +0.000 A 
ATOM     12  C   UNL     1       0.119   9.111  22.603  0.00  0.00    +0.000 A 
ATOM     13  C   UNL     1      -0.665  10.093  23.180  0.00  0.00    +0.000 A 
ATOM     14  C   UNL     1      -1.202  11.103  22.387  0.00  0.00    +0.000 A 
ATOM     15  C   UNL     1      -0.966  11.170  20.993  0.00  0.00    +0.000 A 
ATOM     16  C   UNL     1      -0.089  10.215  20.462  0.00  0.00    +0.000 A 
BRANCH  15  17
ATOM     17  C   UNL     1      -1.712  12.214  20.049  0.00  0.00    +0.000 C 
ATOM     18  C   UNL     1      -2.655  11.701  18.914  0.00  0.00    +0.000 C 
ATOM     19  O   UNL     1      -3.685  12.650  19.325  0.00  0.00    +0.000 OA
ATOM     20  C   UNL     1      -3.079  12.693  20.640  0.00  0.00    +0.000 C 
BRANCH  17  21
ATOM     21  C   UNL     1      -0.767  13.343  19.591  0.00  0.00    +0.000 C 
BRANCH  21  22
ATOM     22  C   UNL     1       0.010  14.012  20.691  0.00  0.00    +0.000 A 
ATOM     23  N   UNL     1       1.169  13.629  21.193  0.00  0.00    +0.000 NA
ATOM     24  N   UNL     1       1.521  14.500  22.201  0.00  0.00    +0.000 NA
ATOM     25  C   UNL     1       0.583  15.413  22.279  0.00  0.00    +0.000 A 
ATOM     26  N   UNL     1      -0.374  15.161  21.344  0.00  0.00    +0.000 N 
ATOM     27  C   UNL     1      -1.543  15.970  21.127  0.00  0.00    +0.000 C 
ENDBRANCH  21  22
ENDBRANCH  17  21
ENDBRANCH  15  17
ENDBRANCH   8  11
BRANCH   5  28
ATOM     28  C   UNL     1       1.841   3.739  20.841  0.00  0.00    +0.000 C 
ATOM     29  F   UNL     1       0.496   3.591  20.955  0.00  0.00    +0.000 F 
ATOM     30  F   UNL     1       2.335   2.511  20.531  0.00  0.00    +0.000 F 
ATOM     31  F   UNL     1       2.292   4.020  22.096  0.00  0.00    +0.000 F 
ENDBRANCH   5  28
BRANCH   1  33
ATOM     32  C   UNL     1       4.180   3.646  16.221  0.00  0.00    +0.000 C 
ATOM     33  C   UNL     1       4.607   5.005  16.800  0.00  0.00    +0.000 C 
BRANCH  33  34
ATOM     34  N   UNL     1       6.012   5.049  17.204  0.00  0.00    +0.000 NA
ATOM     35  C   UNL     1       6.921   6.038  16.632  0.00  0.00    +0.000 C 
ATOM     36  C   UNL     1       7.587   6.694  17.837  0.00  0.00    +0.000 C 
ATOM     37  C   UNL     1       7.685   5.549  18.821  0.00  0.00    +0.000 C 
ATOM     38  F   UNL     1       8.774   4.793  18.514  0.00  0.00    +0.000 F 
ATOM     39  C   UNL     1       6.414   4.744  18.572  0.00  0.00    +0.000 C 
ENDBRANCH  33  34
ENDBRANCH   1  33
TORSDOF 7
ENDMDL
MODEL 9
REMARK VINA RESULT:      -9.3      0.735      1.293
REMARK  Name = 
REMARK  9 active torsions:
REMARK  status: ('A' for Active; 'I' for Inactive)
REMARK    1  A    between atoms: C_1  and  C_2
REMARK    2  A    between atoms: C_2  and  C_3
REMARK    3  A    between atoms: C_2  and  N_34
REMARK    4  A    between atoms: C_7  and  C_8
REMARK    5  A    between atoms: N_14  and  C_15
REMARK    6  A    between atoms: C_19  and  C_20
REMARK    7  A    between atoms: C_20  and  C_21
REMARK    8  A    between atoms: C_21  and  C_22
REMARK    9  A    between atoms: N_26  and  C_27
REMARK                            x       y       z     vdW  Elec       q    Type
REMARK                         _______ _______ _______ _____ _____    ______ ____
ROOT
ATOM      1  C   UNL     1       3.610   5.437  17.846  0.00  0.00    +0.000 A 
ATOM      2  C   UNL     1       3.319   6.795  17.996  0.00  0.00    +0.000 A 
ATOM      3  C   UNL     1       2.490   7.155  19.038  0.00  0.00    +0.000 A 
ATOM      4  C   UNL     1       2.000   6.249  19.978  0.00  0.00    +0.000 A 
ATOM      5  C   UNL     1       2.261   4.899  19.847  0.00  0.00    +0.000 A 
ATOM      6  C   UNL     1       3.005   4.503  18.723  0.00  0.00    +0.000 A 
ATOM      7  C   UNL     1       1.218   6.977  21.021  0.00  0.00    +0.000 C 
ATOM      8  N   UNL     1       1.274   8.346  20.545  0.00  0.00    +0.000 N 
ATOM      9  C   UNL     1       1.982   8.487  19.358  0.00  0.00    +0.000 C 
ATOM     10  O   UNL     1       2.203   9.458  18.670  0.00  0.00    +0.000 OA
ENDROOT
BRANCH   8  11
ATOM     11  C   UNL     1       0.458   9.330  21.104  0.00  0.00    +0.000 A 
ATOM     12  C   UNL     1      -0.091   9.148  22.371  0.00  0.00    +0.000 A 
ATOM     13  C   UNL     1      -0.863  10.148  22.934  0.00  0.00    +0.000 A 
ATOM     14  C   UNL     1      -1.144  11.298  22.202  0.00  0.00    +0.000 A 
ATOM     15  C   UNL     1      -0.655  11.492  20.888  0.00  0.00    +0.000 A 
ATOM     16  C   UNL     1       0.202  10.503  20.390  0.00  0.00    +0.000 A 
BRANCH  15  17
ATOM     17  C   UNL     1      -1.108  12.719  19.978  0.00  0.00    +0.000 C 
ATOM     18  C   UNL     1      -1.986  13.858  20.590  0.00  0.00    +0.000 C 
ATOM     19  O   UNL     1      -1.107  14.865  20.003  0.00  0.00    +0.000 OA
ATOM     20  C   UNL     1      -0.053  13.873  19.952  0.00  0.00    +0.000 C 
BRANCH  17  21
ATOM     21  C   UNL     1      -1.598  12.250  18.593  0.00  0.00    +0.000 C 
BRANCH  21  22
ATOM     22  C   UNL     1      -3.026  11.785  18.544  0.00  0.00    +0.000 A 
ATOM     23  N   UNL     1      -4.021  12.187  19.312  0.00  0.00    +0.000 NA
ATOM     24  N   UNL     1      -5.158  11.494  18.958  0.00  0.00    +0.000 NA
ATOM     25  C   UNL     1      -4.842  10.699  17.964  0.00  0.00    +0.000 A 
ATOM     26  N   UNL     1      -3.525  10.858  17.656  0.00  0.00    +0.000 N 
ATOM     27  C   UNL     1      -2.837  10.163  16.603  0.00  0.00    +0.000 C 
ENDBRANCH  21  22
ENDBRANCH  17  21
ENDBRANCH  15  17
ENDBRANCH   8  11
BRANCH   5  28
ATOM     28  C   UNL     1       1.849   3.873  20.867  0.00  0.00    +0.000 C 
ATOM     29  F   UNL     1       2.256   2.611  20.574  0.00  0.00    +0.000 F 
ATOM     30  F   UNL     1       2.322   4.148  22.111  0.00  0.00    +0.000 F 
ATOM     31  F   UNL     1       0.493   3.809  20.986  0.00  0.00    +0.000 F 
ENDBRANCH   5  28
BRANCH   1  33
ATOM     32  C   UNL     1       4.122   3.633  16.205  0.00  0.00    +0.000 C 
ATOM     33  C   UNL     1       4.580   4.991  16.760  0.00  0.00    +0.000 C 
BRANCH  33  34
ATOM     34  N   UNL     1       5.987   5.012  17.159  0.00  0.00    +0.000 NA
ATOM     35  C   UNL     1       6.905   6.002  16.604  0.00  0.00    +0.000 C 
ATOM     36  C   UNL     1       7.583   6.625  17.818  0.00  0.00    +0.000 C 
ATOM     37  C   UNL     1       7.672   5.460  18.779  0.00  0.00    +0.000 C 
ATOM     38  F   UNL     1       8.751   4.697  18.452  0.00  0.00    +0.000 F 
ATOM     39  C   UNL     1       6.391   4.674  18.518  0.00  0.00    +0.000 C 
ENDBRANCH  33  34
ENDBRANCH   1  33
TORSDOF 7
ENDMDL
