MODEL 1
REMARK VINA RESULT:      -8.3      0.000      0.000
REMARK  Name = 
REMARK  7 active torsions:
REMARK  status: ('A' for Active; 'I' for Inactive)
REMARK    1  A    between atoms: C_1  and  C_2
REMARK    2  A    between atoms: C_2  and  S_3
REMARK    3  A    between atoms: C_2  and  C_10
REMARK    4  A    between atoms: S_3  and  C_4
REMARK    5  A    between atoms: N_8  and  C_9
REMARK    6  A    between atoms: C_16  and  C_18
REMARK    7  A    between atoms: C_23  and  C_24
REMARK                            x       y       z     vdW  Elec       q    Type
REMARK                         _______ _______ _______ _____ _____    ______ ____
ROOT
ATOM      1  C   UNL     1       6.494   5.994  17.266  0.00  0.00    +0.000 A 
ATOM      2  C   UNL     1       7.102   5.253  18.287  0.00  0.00    +0.000 A 
ATOM      3  C   UNL     1       7.990   5.881  19.143  0.00  0.00    +0.000 A 
ATOM      4  N   UNL     1       8.336   7.174  19.031  0.00  0.00    +0.000 NA
ATOM      5  C   UNL     1       7.785   7.895  18.045  0.00  0.00    +0.000 A 
ATOM      6  N   UNL     1       8.155   9.234  17.872  0.00  0.00    +0.000 N 
ATOM      7  C   UNL     1       9.038   9.916  18.685  0.00  0.00    +0.000 C 
ATOM      8  O   UNL     1       9.591   9.516  19.707  0.00  0.00    +0.000 OA
ATOM      9  C   UNL     1       6.859   7.347  17.154  0.00  0.00    +0.000 A 
ATOM     10  H   UNL     1       7.782   9.747  17.085  0.00  0.00    +0.000 HD
ENDROOT
BRANCH   7  11
ATOM     11  C   UNL     1       9.327  11.309  18.228  0.00  0.00    +0.000 A 
ATOM     12  C   UNL     1      10.584  11.619  17.742  0.00  0.00    +0.000 A 
ATOM     13  C   UNL     1      10.796  12.912  17.301  0.00  0.00    +0.000 A 
ATOM     14 CL   UNL     1      12.333  13.359  16.672  0.00  0.00    +0.000 Cl
ATOM     15  C   UNL     1       9.774  13.854  17.352  0.00  0.00    +0.000 A 
ATOM     16  C   UNL     1       8.532  13.470  17.855  0.00  0.00    +0.000 A 
ATOM     17  N   UNL     1       8.299  12.202  18.305  0.00  0.00    +0.000 NA
BRANCH  16  18
ATOM     18  C   UNL     1       7.390  14.480  17.901  0.00  0.00    +0.000 C 
ATOM     19  F   UNL     1       7.051  14.859  19.166  0.00  0.00    +0.000 F 
ATOM     20  F   UNL     1       7.682  15.630  17.235  0.00  0.00    +0.000 F 
ATOM     21  F   UNL     1       6.243  13.999  17.340  0.00  0.00    +0.000 F 
ENDBRANCH  16  18
ENDBRANCH   7  11
BRANCH   1  23
ATOM     22  C   UNL     1       4.278   4.738  17.095  0.00  0.00    +0.000 C 
ATOM     23  C   UNL     1       5.491   5.312  16.347  0.00  0.00    +0.000 C 
BRANCH  23  24
ATOM     24  S   UNL     1       6.190   3.899  15.424  0.00  0.00    +0.000 S 
BRANCH  24  25
ATOM     25  C   UNL     1       6.934   4.621  14.047  0.00  0.00    +0.000 A 
ATOM     26  N   UNL     1       7.798   5.606  14.008  0.00  0.00    +0.000 NA
ATOM     27  N   UNL     1       8.215   5.744  12.699  0.00  0.00    +0.000 NA
ATOM     28  C   UNL     1       7.551   4.868  11.978  0.00  0.00    +0.000 A 
ATOM     29  N   UNL     1       6.680   4.191  12.777  0.00  0.00    +0.000 N 
ATOM     30  C   UNL     1       5.695   3.235  12.351  0.00  0.00    +0.000 C 
ENDBRANCH  24  25
ENDBRANCH  23  24
ENDBRANCH   1  23
TORSDOF 5
ENDMDL
MODEL 2
REMARK VINA RESULT:      -8.1      8.104     10.431
REMARK  Name = 
REMARK  7 active torsions:
REMARK  status: ('A' for Active; 'I' for Inactive)
REMARK    1  A    between atoms: C_1  and  C_2
REMARK    2  A    between atoms: C_2  and  S_3
REMARK    3  A    between atoms: C_2  and  C_10
REMARK    4  A    between atoms: S_3  and  C_4
REMARK    5  A    between atoms: N_8  and  C_9
REMARK    6  A    between atoms: C_16  and  C_18
REMARK    7  A    between atoms: C_23  and  C_24
REMARK                            x       y       z     vdW  Elec       q    Type
REMARK                         _______ _______ _______ _____ _____    ______ ____
ROOT
ATOM      1  C   UNL     1       0.371  10.503  19.784  0.00  0.00    +0.000 A 
ATOM      2  C   UNL     1      -0.080  10.231  21.082  0.00  0.00    +0.000 A 
ATOM      3  C   UNL     1       0.279   9.041  21.688  0.00  0.00    +0.000 A 
ATOM      4  N   UNL     1       1.022   8.098  21.084  0.00  0.00    +0.000 NA
ATOM      5  C   UNL     1       1.442   8.327  19.832  0.00  0.00    +0.000 A 
ATOM      6  N   UNL     1       2.181   7.349  19.157  0.00  0.00    +0.000 N 
ATOM      7  C   UNL     1       2.567   6.140  19.701  0.00  0.00    +0.000 C 
ATOM      8  O   UNL     1       2.400   5.739  20.851  0.00  0.00    +0.000 OA
ATOM      9  C   UNL     1       1.148   9.515  19.157  0.00  0.00    +0.000 A 
ATOM     10  H   UNL     1       2.436   7.508  18.192  0.00  0.00    +0.000 HD
ENDROOT
BRANCH   7  11
ATOM     11  C   UNL     1       3.272   5.242  18.738  0.00  0.00    +0.000 A 
ATOM     12  C   UNL     1       3.157   3.870  18.878  0.00  0.00    +0.000 A 
ATOM     13  C   UNL     1       3.800   3.079  17.945  0.00  0.00    +0.000 A 
ATOM     14 CL   UNL     1       3.687   1.366  18.054  0.00  0.00    +0.000 Cl
ATOM     15  C   UNL     1       4.533   3.654  16.911  0.00  0.00    +0.000 A 
ATOM     16  C   UNL     1       4.605   5.044  16.834  0.00  0.00    +0.000 A 
ATOM     17  N   UNL     1       3.985   5.849  17.747  0.00  0.00    +0.000 NA
BRANCH  16  18
ATOM     18  C   UNL     1       5.383   5.698  15.697  0.00  0.00    +0.000 C 
ATOM     19  F   UNL     1       4.921   6.937  15.366  0.00  0.00    +0.000 F 
ATOM     20  F   UNL     1       6.702   5.861  15.991  0.00  0.00    +0.000 F 
ATOM     21  F   UNL     1       5.341   4.969  14.545  0.00  0.00    +0.000 F 
ENDBRANCH  16  18
ENDBRANCH   7  11
BRANCH   1  23
ATOM     22  C   UNL     1       0.893  12.995  19.588  0.00  0.00    +0.000 C 
ATOM     23  C   UNL     1       0.003  11.828  19.131  0.00  0.00    +0.000 C 
BRANCH  23  24
ATOM     24  S   UNL     1      -1.705  12.368  19.484  0.00  0.00    +0.000 S 
BRANCH  24  25
ATOM     25  C   UNL     1      -2.622  11.762  18.157  0.00  0.00    +0.000 A 
ATOM     26  N   UNL     1      -2.191  11.304  17.008  0.00  0.00    +0.000 NA
ATOM     27  N   UNL     1      -3.279  10.803  16.322  0.00  0.00    +0.000 NA
ATOM     28  C   UNL     1      -4.345  11.020  17.060  0.00  0.00    +0.000 A 
ATOM     29  N   UNL     1      -3.984  11.687  18.191  0.00  0.00    +0.000 N 
ATOM     30  C   UNL     1      -4.871  12.210  19.195  0.00  0.00    +0.000 C 
ENDBRANCH  24  25
ENDBRANCH  23  24
ENDBRANCH   1  23
TORSDOF 5
ENDMDL
MODEL 3
REMARK VINA RESULT:      -8.1      6.743     10.106
REMARK  Name = 
REMARK  7 active torsions:
REMARK  status: ('A' for Active; 'I' for Inactive)
REMARK    1  A    between atoms: C_1  and  C_2
REMARK    2  A    between atoms: C_2  and  S_3
REMARK    3  A    between atoms: C_2  and  C_10
REMARK    4  A    between atoms: S_3  and  C_4
REMARK    5  A    between atoms: N_8  and  C_9
REMARK    6  A    between atoms: C_16  and  C_18
REMARK    7  A    between atoms: C_23  and  C_24
REMARK                            x       y       z     vdW  Elec       q    Type
REMARK                         _______ _______ _______ _____ _____    ______ ____
ROOT
ATOM      1  C   UNL     1       0.331  10.820  20.045  0.00  0.00    +0.000 A 
ATOM      2  C   UNL     1      -0.288  10.458  21.248  0.00  0.00    +0.000 A 
ATOM      3  C   UNL     1      -0.063   9.198  21.773  0.00  0.00    +0.000 A 
ATOM      4  N   UNL     1       0.702   8.272  21.171  0.00  0.00    +0.000 NA
ATOM      5  C   UNL     1       1.283   8.589  20.005  0.00  0.00    +0.000 A 
ATOM      6  N   UNL     1       2.051   7.635  19.329  0.00  0.00    +0.000 N 
ATOM      7  C   UNL     1       2.309   6.360  19.794  0.00  0.00    +0.000 C 
ATOM      8  O   UNL     1       1.983   5.866  20.871  0.00  0.00    +0.000 OA
ATOM      9  C   UNL     1       1.131   9.849  19.420  0.00  0.00    +0.000 A 
ATOM     10  H   UNL     1       2.430   7.865  18.421  0.00  0.00    +0.000 HD
ENDROOT
BRANCH   7  11
ATOM     11  C   UNL     1       3.083   5.513  18.837  0.00  0.00    +0.000 A 
ATOM     12  C   UNL     1       2.924   4.139  18.863  0.00  0.00    +0.000 A 
ATOM     13  C   UNL     1       3.636   3.398  17.938  0.00  0.00    +0.000 A 
ATOM     14 CL   UNL     1       3.474   1.686  17.908  0.00  0.00    +0.000 Cl
ATOM     15  C   UNL     1       4.477   4.024  17.023  0.00  0.00    +0.000 A 
ATOM     16  C   UNL     1       4.587   5.414  17.057  0.00  0.00    +0.000 A 
ATOM     17  N   UNL     1       3.901   6.169  17.965  0.00  0.00    +0.000 NA
BRANCH  16  18
ATOM     18  C   UNL     1       5.485   6.124  16.051  0.00  0.00    +0.000 C 
ATOM     19  F   UNL     1       6.140   5.272  15.211  0.00  0.00    +0.000 F 
ATOM     20  F   UNL     1       4.797   6.979  15.247  0.00  0.00    +0.000 F 
ATOM     21  F   UNL     1       6.457   6.871  16.650  0.00  0.00    +0.000 F 
ENDBRANCH  16  18
ENDBRANCH   7  11
BRANCH   1  23
ATOM     22  C   UNL     1      -1.015  12.282  18.443  0.00  0.00    +0.000 C 
ATOM     23  C   UNL     1       0.111  12.219  19.486  0.00  0.00    +0.000 C 
BRANCH  23  24
ATOM     24  S   UNL     1       1.578  12.909  18.645  0.00  0.00    +0.000 S 
BRANCH  24  25
ATOM     25  C   UNL     1       2.536  13.551  19.925  0.00  0.00    +0.000 A 
ATOM     26  N   UNL     1       2.426  13.338  21.213  0.00  0.00    +0.000 NA
ATOM     27  N   UNL     1       3.497  13.952  21.831  0.00  0.00    +0.000 NA
ATOM     28  C   UNL     1       4.196  14.560  20.899  0.00  0.00    +0.000 A 
ATOM     29  N   UNL     1       3.584  14.393  19.693  0.00  0.00    +0.000 N 
ATOM     30  C   UNL     1       3.969  15.000  18.448  0.00  0.00    +0.000 C 
ENDBRANCH  24  25
ENDBRANCH  23  24
ENDBRANCH   1  23
TORSDOF 5
ENDMDL
MODEL 4
REMARK VINA RESULT:      -7.9      8.960     12.113
REMARK  Name = 
REMARK  7 active torsions:
REMARK  status: ('A' for Active; 'I' for Inactive)
REMARK    1  A    between atoms: C_1  and  C_2
REMARK    2  A    between atoms: C_2  and  S_3
REMARK    3  A    between atoms: C_2  and  C_10
REMARK    4  A    between atoms: S_3  and  C_4
REMARK    5  A    between atoms: N_8  and  C_9
REMARK    6  A    between atoms: C_16  and  C_18
REMARK    7  A    between atoms: C_23  and  C_24
REMARK                            x       y       z     vdW  Elec       q    Type
REMARK                         _______ _______ _______ _____ _____    ______ ____
ROOT
ATOM      1  C   UNL     1       0.255  11.139  21.085  0.00  0.00    +0.000 A 
ATOM      2  C   UNL     1       0.484  12.125  20.118  0.00  0.00    +0.000 A 
ATOM      3  C   UNL     1       1.076  11.772  18.919  0.00  0.00    +0.000 A 
ATOM      4  N   UNL     1       1.482  10.523  18.634  0.00  0.00    +0.000 NA
ATOM      5  C   UNL     1       1.296   9.569  19.557  0.00  0.00    +0.000 A 
ATOM      6  N   UNL     1       1.746   8.267  19.312  0.00  0.00    +0.000 N 
ATOM      7  C   UNL     1       2.349   7.851  18.141  0.00  0.00    +0.000 C 
ATOM      8  O   UNL     1       2.537   8.499  17.114  0.00  0.00    +0.000 OA
ATOM      9  C   UNL     1       0.680   9.835  20.783  0.00  0.00    +0.000 A 
ATOM     10  H   UNL     1       1.657   7.573  20.041  0.00  0.00    +0.000 HD
ENDROOT
BRANCH   7  11
ATOM     11  C   UNL     1       2.813   6.432  18.172  0.00  0.00    +0.000 A 
ATOM     12  C   UNL     1       4.063   6.113  17.673  0.00  0.00    +0.000 A 
ATOM     13  C   UNL     1       4.463   4.792  17.751  0.00  0.00    +0.000 A 
ATOM     14 CL   UNL     1       6.011   4.331  17.159  0.00  0.00    +0.000 Cl
ATOM     15  C   UNL     1       3.629   3.831  18.313  0.00  0.00    +0.000 A 
ATOM     16  C   UNL     1       2.382   4.225  18.795  0.00  0.00    +0.000 A 
ATOM     17  N   UNL     1       1.959   5.522  18.723  0.00  0.00    +0.000 NA
BRANCH  16  18
ATOM     18  C   UNL     1       1.459   3.194  19.435  0.00  0.00    +0.000 C 
ATOM     19  F   UNL     1       0.589   2.623  18.554  0.00  0.00    +0.000 F 
ATOM     20  F   UNL     1       2.140   2.162  20.003  0.00  0.00    +0.000 F 
ATOM     21  F   UNL     1       0.685   3.725  20.425  0.00  0.00    +0.000 F 
ENDBRANCH  16  18
ENDBRANCH   7  11
BRANCH   1  23
ATOM     22  C   UNL     1      -0.987  10.313  23.158  0.00  0.00    +0.000 C 
ATOM     23  C   UNL     1      -0.429  11.522  22.391  0.00  0.00    +0.000 C 
BRANCH  23  24
ATOM     24  S   UNL     1      -1.854  12.642  22.168  0.00  0.00    +0.000 S 
BRANCH  24  25
ATOM     25  C   UNL     1      -1.711  13.770  23.463  0.00  0.00    +0.000 A 
ATOM     26  N   UNL     1      -0.666  14.477  23.818  0.00  0.00    +0.000 NA
ATOM     27  N   UNL     1      -1.067  15.340  24.819  0.00  0.00    +0.000 NA
ATOM     28  C   UNL     1      -2.332  15.092  25.072  0.00  0.00    +0.000 A 
ATOM     29  N   UNL     1      -2.756  14.060  24.290  0.00  0.00    +0.000 N 
ATOM     30  C   UNL     1      -4.039  13.414  24.349  0.00  0.00    +0.000 C 
ENDBRANCH  24  25
ENDBRANCH  23  24
ENDBRANCH   1  23
TORSDOF 5
ENDMDL
MODEL 5
REMARK VINA RESULT:      -7.8      8.569     10.740
REMARK  Name = 
REMARK  7 active torsions:
REMARK  status: ('A' for Active; 'I' for Inactive)
REMARK    1  A    between atoms: C_1  and  C_2
REMARK    2  A    between atoms: C_2  and  S_3
REMARK    3  A    between atoms: C_2  and  C_10
REMARK    4  A    between atoms: S_3  and  C_4
REMARK    5  A    between atoms: N_8  and  C_9
REMARK    6  A    between atoms: C_16  and  C_18
REMARK    7  A    between atoms: C_23  and  C_24
REMARK                            x       y       z     vdW  Elec       q    Type
REMARK                         _______ _______ _______ _____ _____    ______ ____
ROOT
ATOM      1  C   UNL     1      -0.066  10.739  19.462  0.00  0.00    +0.000 A 
ATOM      2  C   UNL     1      -0.329  10.623  20.832  0.00  0.00    +0.000 A 
ATOM      3  C   UNL     1       0.213   9.564  21.538  0.00  0.00    +0.000 A 
ATOM      4  N   UNL     1       0.962   8.603  20.971  0.00  0.00    +0.000 NA
ATOM      5  C   UNL     1       1.203   8.680  19.655  0.00  0.00    +0.000 A 
ATOM      6  N   UNL     1       1.943   7.675  19.023  0.00  0.00    +0.000 N 
ATOM      7  C   UNL     1       2.505   6.590  19.667  0.00  0.00    +0.000 C 
ATOM      8  O   UNL     1       2.517   6.347  20.872  0.00  0.00    +0.000 OA
ATOM      9  C   UNL     1       0.718   9.732  18.873  0.00  0.00    +0.000 A 
ATOM     10  H   UNL     1       2.063   7.712  18.020  0.00  0.00    +0.000 HD
ENDROOT
BRANCH   7  11
ATOM     11  C   UNL     1       3.169   5.619  18.747  0.00  0.00    +0.000 A 
ATOM     12  C   UNL     1       3.858   6.089  17.644  0.00  0.00    +0.000 A 
ATOM     13  C   UNL     1       4.484   5.156  16.838  0.00  0.00    +0.000 A 
ATOM     14 CL   UNL     1       5.369   5.676  15.457  0.00  0.00    +0.000 Cl
ATOM     15  C   UNL     1       4.413   3.800  17.137  0.00  0.00    +0.000 A 
ATOM     16  C   UNL     1       3.699   3.398  18.266  0.00  0.00    +0.000 A 
ATOM     17  N   UNL     1       3.065   4.299  19.074  0.00  0.00    +0.000 NA
BRANCH  16  18
ATOM     18  C   UNL     1       3.626   1.919  18.627  0.00  0.00    +0.000 C 
ATOM     19  F   UNL     1       4.454   1.569  19.652  0.00  0.00    +0.000 F 
ATOM     20  F   UNL     1       2.378   1.535  19.011  0.00  0.00    +0.000 F 
ATOM     21  F   UNL     1       3.966   1.107  17.585  0.00  0.00    +0.000 F 
ENDBRANCH  16  18
ENDBRANCH   7  11
BRANCH   1  23
ATOM     22  C   UNL     1      -0.239  13.281  19.296  0.00  0.00    +0.000 C 
ATOM     23  C   UNL     1      -0.634  11.924  18.693  0.00  0.00    +0.000 C 
BRANCH  23  24
ATOM     24  S   UNL     1      -2.459  11.946  18.628  0.00  0.00    +0.000 S 
BRANCH  24  25
ATOM     25  C   UNL     1      -2.837  11.223  17.110  0.00  0.00    +0.000 A 
ATOM     26  N   UNL     1      -2.051  10.542  16.312  0.00  0.00    +0.000 NA
ATOM     27  N   UNL     1      -2.829  10.044  15.286  0.00  0.00    +0.000 NA
ATOM     28  C   UNL     1      -4.054  10.482  15.470  0.00  0.00    +0.000 A 
ATOM     29  N   UNL     1      -4.087  11.288  16.568  0.00  0.00    +0.000 N 
ATOM     30  C   UNL     1      -5.211  12.053  17.033  0.00  0.00    +0.000 C 
ENDBRANCH  24  25
ENDBRANCH  23  24
ENDBRANCH   1  23
TORSDOF 5
ENDMDL
MODEL 6
REMARK VINA RESULT:      -7.8      7.683     11.052
REMARK  Name = 
REMARK  7 active torsions:
REMARK  status: ('A' for Active; 'I' for Inactive)
REMARK    1  A    between atoms: C_1  and  C_2
REMARK    2  A    between atoms: C_2  and  S_3
REMARK    3  A    between atoms: C_2  and  C_10
REMARK    4  A    between atoms: S_3  and  C_4
REMARK    5  A    between atoms: N_8  and  C_9
REMARK    6  A    between atoms: C_16  and  C_18
REMARK    7  A    between atoms: C_23  and  C_24
REMARK                            x       y       z     vdW  Elec       q    Type
REMARK                         _______ _______ _______ _____ _____    ______ ____
ROOT
ATOM      1  C   UNL     1       0.277  11.171  20.223  0.00  0.00    +0.000 A 
ATOM      2  C   UNL     1      -0.402  10.819  21.396  0.00  0.00    +0.000 A 
ATOM      3  C   UNL     1      -0.250   9.542  21.908  0.00  0.00    +0.000 A 
ATOM      4  N   UNL     1       0.496   8.593  21.319  0.00  0.00    +0.000 NA
ATOM      5  C   UNL     1       1.132   8.901  20.181  0.00  0.00    +0.000 A 
ATOM      6  N   UNL     1       1.883   7.925  19.517  0.00  0.00    +0.000 N 
ATOM      7  C   UNL     1       2.069   6.633  19.970  0.00  0.00    +0.000 C 
ATOM      8  O   UNL     1       1.682   6.138  21.027  0.00  0.00    +0.000 OA
ATOM      9  C   UNL     1       1.056  10.175  19.611  0.00  0.00    +0.000 A 
ATOM     10  H   UNL     1       2.305   8.152  18.628  0.00  0.00    +0.000 HD
ENDROOT
BRANCH   7  11
ATOM     11  C   UNL     1       2.840   5.768  19.029  0.00  0.00    +0.000 A 
ATOM     12  C   UNL     1       3.544   6.351  17.990  0.00  0.00    +0.000 A 
ATOM     13  C   UNL     1       4.269   5.514  17.163  0.00  0.00    +0.000 A 
ATOM     14 CL   UNL     1       5.177   6.177  15.860  0.00  0.00    +0.000 Cl
ATOM     15  C   UNL     1       4.280   4.140  17.378  0.00  0.00    +0.000 A 
ATOM     16  C   UNL     1       3.546   3.623  18.445  0.00  0.00    +0.000 A 
ATOM     17  N   UNL     1       2.815   4.427  19.272  0.00  0.00    +0.000 NA
BRANCH  16  18
ATOM     18  C   UNL     1       3.561   2.122  18.714  0.00  0.00    +0.000 C 
ATOM     19  F   UNL     1       4.495   1.745  19.634  0.00  0.00    +0.000 F 
ATOM     20  F   UNL     1       2.371   1.664  19.188  0.00  0.00    +0.000 F 
ATOM     21  F   UNL     1       3.829   1.391  17.595  0.00  0.00    +0.000 F 
ENDBRANCH  16  18
ENDBRANCH   7  11
BRANCH   1  23
ATOM     22  C   UNL     1      -0.749  12.668  18.427  0.00  0.00    +0.000 C 
ATOM     23  C   UNL     1       0.137  12.586  19.680  0.00  0.00    +0.000 C 
BRANCH  23  24
ATOM     24  S   UNL     1       1.726  13.340  19.187  0.00  0.00    +0.000 S 
BRANCH  24  25
ATOM     25  C   UNL     1       2.315  14.067  20.635  0.00  0.00    +0.000 A 
ATOM     26  N   UNL     1       3.138  13.567  21.523  0.00  0.00    +0.000 NA
ATOM     27  N   UNL     1       3.428  14.565  22.432  0.00  0.00    +0.000 NA
ATOM     28  C   UNL     1       2.730  15.625  22.092  0.00  0.00    +0.000 A 
ATOM     29  N   UNL     1       1.960  15.330  21.007  0.00  0.00    +0.000 N 
ATOM     30  C   UNL     1       0.972  16.182  20.403  0.00  0.00    +0.000 C 
ENDBRANCH  24  25
ENDBRANCH  23  24
ENDBRANCH   1  23
TORSDOF 5
ENDMDL
MODEL 7
REMARK VINA RESULT:      -7.8      6.994     10.570
REMARK  Name = 
REMARK  7 active torsions:
REMARK  status: ('A' for Active; 'I' for Inactive)
REMARK    1  A    between atoms: C_1  and  C_2
REMARK    2  A    between atoms: C_2  and  S_3
REMARK    3  A    between atoms: C_2  and  C_10
REMARK    4  A    between atoms: S_3  and  C_4
REMARK    5  A    between atoms: N_8  and  C_9
REMARK    6  A    between atoms: C_16  and  C_18
REMARK    7  A    between atoms: C_23  and  C_24
REMARK                            x       y       z     vdW  Elec       q    Type
REMARK                         _______ _______ _______ _____ _____    ______ ____
ROOT
ATOM      1  C   UNL     1       0.781  11.167  19.241  0.00  0.00    +0.000 A 
ATOM      2  C   UNL     1       0.048  10.947  20.413  0.00  0.00    +0.000 A 
ATOM      3  C   UNL     1       0.113   9.710  21.029  0.00  0.00    +0.000 A 
ATOM      4  N   UNL     1       0.824   8.678  20.544  0.00  0.00    +0.000 NA
ATOM      5  C   UNL     1       1.512   8.860  19.408  0.00  0.00    +0.000 A 
ATOM      6  N   UNL     1       2.228   7.796  18.851  0.00  0.00    +0.000 N 
ATOM      7  C   UNL     1       2.328   6.537  19.410  0.00  0.00    +0.000 C 
ATOM      8  O   UNL     1       1.883   6.149  20.488  0.00  0.00    +0.000 OA
ATOM      9  C   UNL     1       1.523  10.086  18.738  0.00  0.00    +0.000 A 
ATOM     10  H   UNL     1       2.690   7.928  17.961  0.00  0.00    +0.000 HD
ENDROOT
BRANCH   7  11
ATOM     11  C   UNL     1       3.080   5.559  18.568  0.00  0.00    +0.000 A 
ATOM     12  C   UNL     1       2.932   4.204  18.803  0.00  0.00    +0.000 A 
ATOM     13  C   UNL     1       3.623   3.335  17.977  0.00  0.00    +0.000 A 
ATOM     14 CL   UNL     1       3.473   1.637  18.208  0.00  0.00    +0.000 Cl
ATOM     15  C   UNL     1       4.431   3.821  16.955  0.00  0.00    +0.000 A 
ATOM     16  C   UNL     1       4.532   5.200  16.778  0.00  0.00    +0.000 A 
ATOM     17  N   UNL     1       3.867   6.080  17.584  0.00  0.00    +0.000 NA
BRANCH  16  18
ATOM     18  C   UNL     1       5.395   5.756  15.650  0.00  0.00    +0.000 C 
ATOM     19  F   UNL     1       6.702   5.928  16.001  0.00  0.00    +0.000 F 
ATOM     20  F   UNL     1       5.409   4.948  14.555  0.00  0.00    +0.000 F 
ATOM     21  F   UNL     1       4.967   6.975  15.214  0.00  0.00    +0.000 F 
ENDBRANCH  16  18
ENDBRANCH   7  11
BRANCH   1  23
ATOM     22  C   UNL     1       2.129  13.091  18.239  0.00  0.00    +0.000 C 
ATOM     23  C   UNL     1       0.736  12.540  18.583  0.00  0.00    +0.000 C 
BRANCH  23  24
ATOM     24  S   UNL     1      -0.038  13.824  19.624  0.00  0.00    +0.000 S 
BRANCH  24  25
ATOM     25  C   UNL     1       1.240  14.371  20.642  0.00  0.00    +0.000 A 
ATOM     26  N   UNL     1       1.811  13.746  21.643  0.00  0.00    +0.000 NA
ATOM     27  N   UNL     1       2.876  14.517  22.064  0.00  0.00    +0.000 NA
ATOM     28  C   UNL     1       2.885  15.610  21.335  0.00  0.00    +0.000 A 
ATOM     29  N   UNL     1       1.828  15.591  20.476  0.00  0.00    +0.000 N 
ATOM     30  C   UNL     1       1.422  16.652  19.596  0.00  0.00    +0.000 C 
ENDBRANCH  24  25
ENDBRANCH  23  24
ENDBRANCH   1  23
TORSDOF 5
ENDMDL
MODEL 8
REMARK VINA RESULT:      -7.7      8.926     12.091
REMARK  Name = 
REMARK  7 active torsions:
REMARK  status: ('A' for Active; 'I' for Inactive)
REMARK    1  A    between atoms: C_1  and  C_2
REMARK    2  A    between atoms: C_2  and  S_3
REMARK    3  A    between atoms: C_2  and  C_10
REMARK    4  A    between atoms: S_3  and  C_4
REMARK    5  A    between atoms: N_8  and  C_9
REMARK    6  A    between atoms: C_16  and  C_18
REMARK    7  A    between atoms: C_23  and  C_24
REMARK                            x       y       z     vdW  Elec       q    Type
REMARK                         _______ _______ _______ _____ _____    ______ ____
ROOT
ATOM      1  C   UNL     1       0.073  11.371  21.022  0.00  0.00    +0.000 A 
ATOM      2  C   UNL     1       0.369  12.328  20.044  0.00  0.00    +0.000 A 
ATOM      3  C   UNL     1       1.029  11.937  18.892  0.00  0.00    +0.000 A 
ATOM      4  N   UNL     1       1.439  10.678  18.666  0.00  0.00    +0.000 NA
ATOM      5  C   UNL     1       1.189   9.752  19.602  0.00  0.00    +0.000 A 
ATOM      6  N   UNL     1       1.640   8.440  19.420  0.00  0.00    +0.000 N 
ATOM      7  C   UNL     1       2.309   7.987  18.299  0.00  0.00    +0.000 C 
ATOM      8  O   UNL     1       2.564   8.605  17.268  0.00  0.00    +0.000 OA
ATOM      9  C   UNL     1       0.504  10.056  20.781  0.00  0.00    +0.000 A 
ATOM     10  H   UNL     1       1.502   7.767  20.161  0.00  0.00    +0.000 HD
ENDROOT
BRANCH   7  11
ATOM     11  C   UNL     1       2.756   6.565  18.396  0.00  0.00    +0.000 A 
ATOM     12  C   UNL     1       3.730   6.098  17.532  0.00  0.00    +0.000 A 
ATOM     13  C   UNL     1       4.136   4.784  17.680  0.00  0.00    +0.000 A 
ATOM     14 CL   UNL     1       5.352   4.145  16.645  0.00  0.00    +0.000 Cl
ATOM     15  C   UNL     1       3.577   3.976  18.664  0.00  0.00    +0.000 A 
ATOM     16  C   UNL     1       2.599   4.515  19.499  0.00  0.00    +0.000 A 
ATOM     17  N   UNL     1       2.175   5.807  19.369  0.00  0.00    +0.000 NA
BRANCH  16  18
ATOM     18  C   UNL     1       1.987   3.655  20.599  0.00  0.00    +0.000 C 
ATOM     19  F   UNL     1       2.437   3.971  21.847  0.00  0.00    +0.000 F 
ATOM     20  F   UNL     1       0.632   3.763  20.655  0.00  0.00    +0.000 F 
ATOM     21  F   UNL     1       2.254   2.327  20.436  0.00  0.00    +0.000 F 
ENDBRANCH  16  18
ENDBRANCH   7  11
BRANCH   1  23
ATOM     22  C   UNL     1      -1.124  10.609  23.145  0.00  0.00    +0.000 C 
ATOM     23  C   UNL     1      -0.683  11.796  22.273  0.00  0.00    +0.000 C 
BRANCH  23  24
ATOM     24  S   UNL     1      -2.218  12.721  21.920  0.00  0.00    +0.000 S 
BRANCH  24  25
ATOM     25  C   UNL     1      -2.399  13.770  23.276  0.00  0.00    +0.000 A 
ATOM     26  N   UNL     1      -3.275  13.703  24.248  0.00  0.00    +0.000 NA
ATOM     27  N   UNL     1      -2.944  14.671  25.175  0.00  0.00    +0.000 NA
ATOM     28  C   UNL     1      -1.906  15.327  24.709  0.00  0.00    +0.000 A 
ATOM     29  N   UNL     1      -1.576  14.838  23.481  0.00  0.00    +0.000 N 
ATOM     30  C   UNL     1      -0.575  15.363  22.592  0.00  0.00    +0.000 C 
ENDBRANCH  24  25
ENDBRANCH  23  24
ENDBRANCH   1  23
TORSDOF 5
ENDMDL
MODEL 9
REMARK VINA RESULT:      -7.7      7.530     10.792
REMARK  Name = 
REMARK  7 active torsions:
REMARK  status: ('A' for Active; 'I' for Inactive)
REMARK    1  A    between atoms: C_1  and  C_2
REMARK    2  A    between atoms: C_2  and  S_3
REMARK    3  A    between atoms: C_2  and  C_10
REMARK    4  A    between atoms: S_3  and  C_4
REMARK    5  A    between atoms: N_8  and  C_9
REMARK    6  A    between atoms: C_16  and  C_18
REMARK    7  A    between atoms: C_23  and  C_24
REMARK                            x       y       z     vdW  Elec       q    Type
REMARK                         _______ _______ _______ _____ _____    ______ ____
ROOT
ATOM      1  C   UNL     1       0.011  10.908  20.535  0.00  0.00    +0.000 A 
ATOM      2  C   UNL     1      -0.376  10.536  21.828  0.00  0.00    +0.000 A 
ATOM      3  C   UNL     1       0.012   9.303  22.322  0.00  0.00    +0.000 A 
ATOM      4  N   UNL     1       0.723   8.411  21.610  0.00  0.00    +0.000 NA
ATOM      5  C   UNL     1       1.080   8.738  20.360  0.00  0.00    +0.000 A 
ATOM      6  N   UNL     1       1.783   7.818  19.575  0.00  0.00    +0.000 N 
ATOM      7  C   UNL     1       2.194   6.571  20.003  0.00  0.00    +0.000 C 
ATOM      8  O   UNL     1       2.084   6.081  21.125  0.00  0.00    +0.000 OA
ATOM      9  C   UNL     1       0.754   9.974  19.795  0.00  0.00    +0.000 A 
ATOM     10  H   UNL     1       1.990   8.051  18.613  0.00  0.00    +0.000 HD
ENDROOT
BRANCH   7  11
ATOM     11  C   UNL     1       2.848   5.752  18.940  0.00  0.00    +0.000 A 
ATOM     12  C   UNL     1       3.649   6.374  17.998  0.00  0.00    +0.000 A 
ATOM     13  C   UNL     1       4.260   5.572  17.052  0.00  0.00    +0.000 A 
ATOM     14 CL   UNL     1       5.278   6.282  15.860  0.00  0.00    +0.000 Cl
ATOM     15  C   UNL     1       4.067   4.195  17.058  0.00  0.00    +0.000 A 
ATOM     16  C   UNL     1       3.246   3.637  18.038  0.00  0.00    +0.000 A 
ATOM     17  N   UNL     1       2.624   4.407  18.979  0.00  0.00    +0.000 NA
BRANCH  16  18
ATOM     18  C   UNL     1       3.037   2.128  18.079  0.00  0.00    +0.000 C 
ATOM     19  F   UNL     1       4.177   1.416  17.846  0.00  0.00    +0.000 F 
ATOM     20  F   UNL     1       2.571   1.696  19.282  0.00  0.00    +0.000 F 
ATOM     21  F   UNL     1       2.137   1.697  17.148  0.00  0.00    +0.000 F 
ENDBRANCH  16  18
ENDBRANCH   7  11
BRANCH   1  23
ATOM     22  C   UNL     1      -1.604  12.236  19.068  0.00  0.00    +0.000 C 
ATOM     23  C   UNL     1      -0.387  12.280  20.006  0.00  0.00    +0.000 C 
BRANCH  23  24
ATOM     24  S   UNL     1       0.928  13.100  19.040  0.00  0.00    +0.000 S 
BRANCH  24  25
ATOM     25  C   UNL     1       1.999  13.730  20.235  0.00  0.00    +0.000 A 
ATOM     26  N   UNL     1       1.808  13.839  21.526  0.00  0.00    +0.000 NA
ATOM     27  N   UNL     1       2.993  14.268  22.089  0.00  0.00    +0.000 NA
ATOM     28  C   UNL     1       3.851  14.453  21.111  0.00  0.00    +0.000 A 
ATOM     29  N   UNL     1       3.242  14.194  19.920  0.00  0.00    +0.000 N 
ATOM     30  C   UNL     1       3.805  14.392  18.612  0.00  0.00    +0.000 C 
ENDBRANCH  24  25
ENDBRANCH  23  24
ENDBRANCH   1  23
TORSDOF 5
ENDMDL
