MODEL 1
REMARK VINA RESULT:      -9.5      0.000      0.000
REMARK  Name = 
REMARK  7 active torsions:
REMARK  status: ('A' for Active; 'I' for Inactive)
REMARK    1  A    between atoms: C_1  and  C_2
REMARK    2  A    between atoms: C_2  and  C_3
REMARK    3  A    between atoms: C_2  and  C_23
REMARK    4  A    between atoms: C_7  and  N_8
REMARK    5  A    between atoms: C_15  and  C_16
REMARK    6  A    between atoms: C_23  and  C_25
REMARK    7  A    between atoms: N_29  and  C_30
REMARK                            x       y       z     vdW  Elec       q    Type
REMARK                         _______ _______ _______ _____ _____    ______ ____
ROOT
ATOM      1  C   UNL     1       4.198   5.188  17.745  0.00  0.00    +0.000 A 
ATOM      2  C   UNL     1       3.941   4.077  18.556  0.00  0.00    +0.000 A 
ATOM      3  C   UNL     1       3.098   4.191  19.670  0.00  0.00    +0.000 A 
ATOM      4  C   UNL     1       2.510   5.418  19.999  0.00  0.00    +0.000 A 
ATOM      5  C   UNL     1       2.711   6.515  19.169  0.00  0.00    +0.000 A 
ATOM      6  C   UNL     1       3.546   6.389  18.052  0.00  0.00    +0.000 A 
ENDROOT
BRANCH   5   7
ATOM      7  N   UNL     1       2.052   7.735  19.377  0.00  0.00    +0.000 N 
ATOM      8  C   UNL     1       1.481   8.040  20.672  0.00  0.00    +0.000 C 
ATOM      9  C   UNL     1       0.813   9.353  20.444  0.00  0.00    +0.000 A 
ATOM     10  C   UNL     1       1.083   9.796  19.147  0.00  0.00    +0.000 A 
ATOM     11  C   UNL     1       0.603  11.001  18.672  0.00  0.00    +0.000 A 
ATOM     12  C   UNL     1      -0.146  11.788  19.550  0.00  0.00    +0.000 A 
ATOM     13  C   UNL     1      -0.427  11.344  20.857  0.00  0.00    +0.000 A 
ATOM     14  C   UNL     1       0.037  10.102  21.321  0.00  0.00    +0.000 A 
ATOM     15  C   UNL     1       1.893   8.768  18.458  0.00  0.00    +0.000 C 
ATOM     16  O   UNL     1       2.251   8.849  17.302  0.00  0.00    +0.000 OA
BRANCH  14  17
ATOM     17  C   UNL     1      -0.312   9.620  22.708  0.00  0.00    +0.000 C 
ATOM     18  F   UNL     1      -0.967   8.425  22.728  0.00  0.00    +0.000 F 
ATOM     19  F   UNL     1       0.784   9.451  23.494  0.00  0.00    +0.000 F 
ATOM     20  F   UNL     1      -1.121  10.491  23.370  0.00  0.00    +0.000 F 
ENDBRANCH  14  17
ENDBRANCH   5   7
BRANCH   1  22
ATOM     21  C   UNL     1       4.795   3.983  15.629  0.00  0.00    +0.000 C 
ATOM     22  C   UNL     1       5.192   5.122  16.586  0.00  0.00    +0.000 C 
BRANCH  22  23
ATOM     23  C   UNL     1       6.652   4.973  17.081  0.00  0.00    +0.000 C 
ATOM     24  F   UNL     1       7.400   4.372  16.106  0.00  0.00    +0.000 F 
BRANCH  23  25
ATOM     25  C   UNL     1       7.256   6.282  17.480  0.00  0.00    +0.000 A 
ATOM     26  N   UNL     1       7.261   7.387  16.756  0.00  0.00    +0.000 NA
ATOM     27  N   UNL     1       7.927   8.363  17.455  0.00  0.00    +0.000 NA
ATOM     28  C   UNL     1       8.309   7.840  18.596  0.00  0.00    +0.000 A 
ATOM     29  N   UNL     1       7.903   6.545  18.663  0.00  0.00    +0.000 N 
ATOM     30  C   UNL     1       8.140   5.652  19.767  0.00  0.00    +0.000 C 
ENDBRANCH  23  25
ENDBRANCH  22  23
ENDBRANCH   1  22
TORSDOF 5
ENDMDL
MODEL 2
REMARK VINA RESULT:      -8.7      3.112      8.815
REMARK  Name = 
REMARK  7 active torsions:
REMARK  status: ('A' for Active; 'I' for Inactive)
REMARK    1  A    between atoms: C_1  and  C_2
REMARK    2  A    between atoms: C_2  and  C_3
REMARK    3  A    between atoms: C_2  and  C_23
REMARK    4  A    between atoms: C_7  and  N_8
REMARK    5  A    between atoms: C_15  and  C_16
REMARK    6  A    between atoms: C_23  and  C_25
REMARK    7  A    between atoms: N_29  and  C_30
REMARK                            x       y       z     vdW  Elec       q    Type
REMARK                         _______ _______ _______ _____ _____    ______ ____
ROOT
ATOM      1  C   UNL     1       0.535  10.249  19.646  0.00  0.00    +0.000 A 
ATOM      2  C   UNL     1       0.500  10.405  21.036  0.00  0.00    +0.000 A 
ATOM      3  C   UNL     1       1.007   9.403  21.875  0.00  0.00    +0.000 A 
ATOM      4  C   UNL     1       1.544   8.227  21.341  0.00  0.00    +0.000 A 
ATOM      5  C   UNL     1       1.637   8.085  19.962  0.00  0.00    +0.000 A 
ATOM      6  C   UNL     1       1.138   9.094  19.130  0.00  0.00    +0.000 A 
ENDROOT
BRANCH   5   7
ATOM      7  N   UNL     1       2.275   6.986  19.369  0.00  0.00    +0.000 N 
ATOM      8  C   UNL     1       3.299   7.195  18.366  0.00  0.00    +0.000 C 
ATOM      9  C   UNL     1       3.643   5.809  17.941  0.00  0.00    +0.000 A 
ATOM     10  C   UNL     1       2.938   4.892  18.725  0.00  0.00    +0.000 A 
ATOM     11  C   UNL     1       3.081   3.528  18.559  0.00  0.00    +0.000 A 
ATOM     12  C   UNL     1       3.987   3.087  17.592  0.00  0.00    +0.000 A 
ATOM     13  C   UNL     1       4.696   4.007  16.795  0.00  0.00    +0.000 A 
ATOM     14  C   UNL     1       4.520   5.392  16.946  0.00  0.00    +0.000 A 
ATOM     15  C   UNL     1       2.067   5.641  19.657  0.00  0.00    +0.000 C 
ATOM     16  O   UNL     1       1.301   5.117  20.439  0.00  0.00    +0.000 OA
BRANCH  14  17
ATOM     17  C   UNL     1       5.252   6.364  16.053  0.00  0.00    +0.000 C 
ATOM     18  F   UNL     1       4.435   7.244  15.409  0.00  0.00    +0.000 F 
ATOM     19  F   UNL     1       6.148   7.126  16.733  0.00  0.00    +0.000 F 
ATOM     20  F   UNL     1       5.956   5.735  15.073  0.00  0.00    +0.000 F 
ENDBRANCH  14  17
ENDBRANCH   5   7
BRANCH   1  22
ATOM     21  C   UNL     1       0.755  12.551  18.679  0.00  0.00    +0.000 C 
ATOM     22  C   UNL     1      -0.102  11.273  18.708  0.00  0.00    +0.000 C 
BRANCH  22  23
ATOM     23  C   UNL     1      -1.572  11.577  19.091  0.00  0.00    +0.000 C 
ATOM     24  F   UNL     1      -1.654  12.846  19.596  0.00  0.00    +0.000 F 
BRANCH  23  25
ATOM     25  C   UNL     1      -2.510  11.406  17.938  0.00  0.00    +0.000 A 
ATOM     26  N   UNL     1      -2.179  11.021  16.719  0.00  0.00    +0.000 NA
ATOM     27  N   UNL     1      -3.311  11.005  15.944  0.00  0.00    +0.000 NA
ATOM     28  C   UNL     1      -4.315  11.371  16.705  0.00  0.00    +0.000 A 
ATOM     29  N   UNL     1      -3.866  11.621  17.963  0.00  0.00    +0.000 N 
ATOM     30  C   UNL     1      -4.682  12.044  19.071  0.00  0.00    +0.000 C 
ENDBRANCH  23  25
ENDBRANCH  22  23
ENDBRANCH   1  22
TORSDOF 5
ENDMDL
MODEL 3
REMARK VINA RESULT:      -8.7      1.803      2.655
REMARK  Name = 
REMARK  7 active torsions:
REMARK  status: ('A' for Active; 'I' for Inactive)
REMARK    1  A    between atoms: C_1  and  C_2
REMARK    2  A    between atoms: C_2  and  C_3
REMARK    3  A    between atoms: C_2  and  C_23
REMARK    4  A    between atoms: C_7  and  N_8
REMARK    5  A    between atoms: C_15  and  C_16
REMARK    6  A    between atoms: C_23  and  C_25
REMARK    7  A    between atoms: N_29  and  C_30
REMARK                            x       y       z     vdW  Elec       q    Type
REMARK                         _______ _______ _______ _____ _____    ______ ____
ROOT
ATOM      1  C   UNL     1       4.358   5.844  17.585  0.00  0.00    +0.000 A 
ATOM      2  C   UNL     1       4.103   4.629  18.231  0.00  0.00    +0.000 A 
ATOM      3  C   UNL     1       3.163   4.560  19.268  0.00  0.00    +0.000 A 
ATOM      4  C   UNL     1       2.473   5.704  19.684  0.00  0.00    +0.000 A 
ATOM      5  C   UNL     1       2.674   6.904  19.013  0.00  0.00    +0.000 A 
ATOM      6  C   UNL     1       3.608   6.962  17.971  0.00  0.00    +0.000 A 
ENDROOT
BRANCH   5   7
ATOM      7  N   UNL     1       1.924   8.053  19.302  0.00  0.00    +0.000 N 
ATOM      8  C   UNL     1       1.383   8.251  20.631  0.00  0.00    +0.000 C 
ATOM      9  C   UNL     1       0.599   9.510  20.491  0.00  0.00    +0.000 A 
ATOM     10  C   UNL     1       0.776  10.031  19.206  0.00  0.00    +0.000 A 
ATOM     11  C   UNL     1       0.177  11.210  18.807  0.00  0.00    +0.000 A 
ATOM     12  C   UNL     1      -0.599  11.890  19.749  0.00  0.00    +0.000 A 
ATOM     13  C   UNL     1      -0.786  11.368  21.043  0.00  0.00    +0.000 A 
ATOM     14  C   UNL     1      -0.201  10.151  21.431  0.00  0.00    +0.000 A 
ATOM     15  C   UNL     1       1.641   9.108  18.440  0.00  0.00    +0.000 C 
ATOM     16  O   UNL     1       1.942   9.269  17.276  0.00  0.00    +0.000 OA
BRANCH  14  17
ATOM     17  C   UNL     1      -0.450   9.581  22.806  0.00  0.00    +0.000 C 
ATOM     18  F   UNL     1      -1.007   8.337  22.794  0.00  0.00    +0.000 F 
ATOM     19  F   UNL     1       0.690   9.466  23.538  0.00  0.00    +0.000 F 
ATOM     20  F   UNL     1      -1.295  10.353  23.541  0.00  0.00    +0.000 F 
ENDBRANCH  14  17
ENDBRANCH   5   7
BRANCH   1  22
ATOM     21  C   UNL     1       5.096   7.120  15.557  0.00  0.00    +0.000 C 
ATOM     22  C   UNL     1       5.450   5.975  16.524  0.00  0.00    +0.000 C 
BRANCH  22  23
ATOM     23  C   UNL     1       5.691   4.643  15.770  0.00  0.00    +0.000 C 
ATOM     24  F   UNL     1       4.492   4.143  15.341  0.00  0.00    +0.000 F 
BRANCH  23  25
ATOM     25  C   UNL     1       6.639   4.799  14.624  0.00  0.00    +0.000 A 
ATOM     26  N   UNL     1       7.757   5.503  14.631  0.00  0.00    +0.000 NA
ATOM     27  N   UNL     1       8.335   5.416  13.390  0.00  0.00    +0.000 NA
ATOM     28  C   UNL     1       7.566   4.654  12.649  0.00  0.00    +0.000 A 
ATOM     29  N   UNL     1       6.500   4.235  13.379  0.00  0.00    +0.000 N 
ATOM     30  C   UNL     1       5.444   3.382  12.900  0.00  0.00    +0.000 C 
ENDBRANCH  23  25
ENDBRANCH  22  23
ENDBRANCH   1  22
TORSDOF 5
ENDMDL
MODEL 4
REMARK VINA RESULT:      -8.7      0.766      1.447
REMARK  Name = 
REMARK  7 active torsions:
REMARK  status: ('A' for Active; 'I' for Inactive)
REMARK    1  A    between atoms: C_1  and  C_2
REMARK    2  A    between atoms: C_2  and  C_3
REMARK    3  A    between atoms: C_2  and  C_23
REMARK    4  A    between atoms: C_7  and  N_8
REMARK    5  A    between atoms: C_15  and  C_16
REMARK    6  A    between atoms: C_23  and  C_25
REMARK    7  A    between atoms: N_29  and  C_30
REMARK                            x       y       z     vdW  Elec       q    Type
REMARK                         _______ _______ _______ _____ _____    ______ ____
ROOT
ATOM      1  C   UNL     1       4.177   5.330  17.304  0.00  0.00    +0.000 A 
ATOM      2  C   UNL     1       3.735   4.139  17.892  0.00  0.00    +0.000 A 
ATOM      3  C   UNL     1       2.776   4.165  18.913  0.00  0.00    +0.000 A 
ATOM      4  C   UNL     1       2.253   5.379  19.373  0.00  0.00    +0.000 A 
ATOM      5  C   UNL     1       2.641   6.564  18.759  0.00  0.00    +0.000 A 
ATOM      6  C   UNL     1       3.591   6.529  17.732  0.00  0.00    +0.000 A 
ENDROOT
BRANCH   5   7
ATOM      7  N   UNL     1       2.061   7.798  19.091  0.00  0.00    +0.000 N 
ATOM      8  C   UNL     1       1.528   8.015  20.420  0.00  0.00    +0.000 C 
ATOM      9  C   UNL     1       0.940   9.381  20.328  0.00  0.00    +0.000 A 
ATOM     10  C   UNL     1       1.220   9.926  19.072  0.00  0.00    +0.000 A 
ATOM     11  C   UNL     1       0.809  11.197  18.719  0.00  0.00    +0.000 A 
ATOM     12  C   UNL     1       0.122  11.942  19.681  0.00  0.00    +0.000 A 
ATOM     13  C   UNL     1      -0.167  11.396  20.946  0.00  0.00    +0.000 A 
ATOM     14  C   UNL     1       0.224  10.091  21.285  0.00  0.00    +0.000 A 
ATOM     15  C   UNL     1       1.955   8.920  18.275  0.00  0.00    +0.000 C 
ATOM     16  O   UNL     1       2.301   9.086  17.124  0.00  0.00    +0.000 OA
BRANCH  14  17
ATOM     17  C   UNL     1      -0.134   9.504  22.628  0.00  0.00    +0.000 C 
ATOM     18  F   UNL     1       0.945   9.193  23.401  0.00  0.00    +0.000 F 
ATOM     19  F   UNL     1      -0.895  10.343  23.380  0.00  0.00    +0.000 F 
ATOM     20  F   UNL     1      -0.845   8.349  22.514  0.00  0.00    +0.000 F 
ENDBRANCH  14  17
ENDBRANCH   5   7
BRANCH   1  22
ATOM     21  C   UNL     1       4.766   4.789  14.929  0.00  0.00    +0.000 C 
ATOM     22  C   UNL     1       5.295   5.345  16.263  0.00  0.00    +0.000 C 
BRANCH  22  23
ATOM     23  C   UNL     1       6.550   4.576  16.747  0.00  0.00    +0.000 C 
ATOM     24  F   UNL     1       7.487   4.569  15.751  0.00  0.00    +0.000 F 
BRANCH  23  25
ATOM     25  C   UNL     1       7.121   5.149  18.005  0.00  0.00    +0.000 A 
ATOM     26  N   UNL     1       7.245   4.518  19.159  0.00  0.00    +0.000 NA
ATOM     27  N   UNL     1       7.792   5.383  20.073  0.00  0.00    +0.000 NA
ATOM     28  C   UNL     1       8.001   6.524  19.460  0.00  0.00    +0.000 A 
ATOM     29  N   UNL     1       7.608   6.423  18.163  0.00  0.00    +0.000 N 
ATOM     30  C   UNL     1       7.687   7.475  17.183  0.00  0.00    +0.000 C 
ENDBRANCH  23  25
ENDBRANCH  22  23
ENDBRANCH   1  22
TORSDOF 5
ENDMDL
MODEL 5
REMARK VINA RESULT:      -8.6      2.258      2.826
REMARK  Name = 
REMARK  7 active torsions:
REMARK  status: ('A' for Active; 'I' for Inactive)
REMARK    1  A    between atoms: C_1  and  C_2
REMARK    2  A    between atoms: C_2  and  C_3
REMARK    3  A    between atoms: C_2  and  C_23
REMARK    4  A    between atoms: C_7  and  N_8
REMARK    5  A    between atoms: C_15  and  C_16
REMARK    6  A    between atoms: C_23  and  C_25
REMARK    7  A    between atoms: N_29  and  C_30
REMARK                            x       y       z     vdW  Elec       q    Type
REMARK                         _______ _______ _______ _____ _____    ______ ____
ROOT
ATOM      1  C   UNL     1       4.356   4.612  16.774  0.00  0.00    +0.000 A 
ATOM      2  C   UNL     1       3.624   3.431  16.611  0.00  0.00    +0.000 A 
ATOM      3  C   UNL     1       2.428   3.235  17.315  0.00  0.00    +0.000 A 
ATOM      4  C   UNL     1       1.951   4.209  18.200  0.00  0.00    +0.000 A 
ATOM      5  C   UNL     1       2.639   5.410  18.327  0.00  0.00    +0.000 A 
ATOM      6  C   UNL     1       3.827   5.602  17.612  0.00  0.00    +0.000 A 
ENDROOT
BRANCH   5   7
ATOM      7  N   UNL     1       2.147   6.471  19.102  0.00  0.00    +0.000 N 
ATOM      8  C   UNL     1       1.844   7.744  18.482  0.00  0.00    +0.000 C 
ATOM      9  C   UNL     1       1.447   8.595  19.638  0.00  0.00    +0.000 A 
ATOM     10  C   UNL     1       1.428   7.823  20.803  0.00  0.00    +0.000 A 
ATOM     11  C   UNL     1       1.073   8.356  22.027  0.00  0.00    +0.000 A 
ATOM     12  C   UNL     1       0.700   9.702  22.061  0.00  0.00    +0.000 A 
ATOM     13  C   UNL     1       0.722  10.487  20.891  0.00  0.00    +0.000 A 
ATOM     14  C   UNL     1       1.117   9.946  19.657  0.00  0.00    +0.000 A 
ATOM     15  C   UNL     1       1.862   6.451  20.464  0.00  0.00    +0.000 C 
ATOM     16  O   UNL     1       1.987   5.558  21.276  0.00  0.00    +0.000 OA
BRANCH  14  17
ATOM     17  C   UNL     1       1.181  10.812  18.422  0.00  0.00    +0.000 C 
ATOM     18  F   UNL     1       0.326  10.426  17.433  0.00  0.00    +0.000 F 
ATOM     19  F   UNL     1       0.881  12.112  18.679  0.00  0.00    +0.000 F 
ATOM     20  F   UNL     1       2.418  10.814  17.856  0.00  0.00    +0.000 F 
ENDBRANCH  14  17
ENDBRANCH   5   7
BRANCH   1  22
ATOM     21  C   UNL     1       5.901   3.764  14.991  0.00  0.00    +0.000 C 
ATOM     22  C   UNL     1       5.714   4.813  16.103  0.00  0.00    +0.000 C 
BRANCH  22  23
ATOM     23  C   UNL     1       6.878   4.778  17.124  0.00  0.00    +0.000 C 
ATOM     24  F   UNL     1       7.904   4.030  16.615  0.00  0.00    +0.000 F 
BRANCH  23  25
ATOM     25  C   UNL     1       7.355   6.147  17.492  0.00  0.00    +0.000 A 
ATOM     26  N   UNL     1       7.303   7.220  16.723  0.00  0.00    +0.000 NA
ATOM     27  N   UNL     1       7.855   8.274  17.407  0.00  0.00    +0.000 NA
ATOM     28  C   UNL     1       8.225   7.830  18.585  0.00  0.00    +0.000 A 
ATOM     29  N   UNL     1       7.923   6.509  18.689  0.00  0.00    +0.000 N 
ATOM     30  C   UNL     1       8.181   5.683  19.839  0.00  0.00    +0.000 C 
ENDBRANCH  23  25
ENDBRANCH  22  23
ENDBRANCH   1  22
TORSDOF 5
ENDMDL
MODEL 6
REMARK VINA RESULT:      -8.5      0.900      1.506
REMARK  Name = 
REMARK  7 active torsions:
REMARK  status: ('A' for Active; 'I' for Inactive)
REMARK    1  A    between atoms: C_1  and  C_2
REMARK    2  A    between atoms: C_2  and  C_3
REMARK    3  A    between atoms: C_2  and  C_23
REMARK    4  A    between atoms: C_7  and  N_8
REMARK    5  A    between atoms: C_15  and  C_16
REMARK    6  A    between atoms: C_23  and  C_25
REMARK    7  A    between atoms: N_29  and  C_30
REMARK                            x       y       z     vdW  Elec       q    Type
REMARK                         _______ _______ _______ _____ _____    ______ ____
ROOT
ATOM      1  C   UNL     1       3.933   5.098  17.664  0.00  0.00    +0.000 A 
ATOM      2  C   UNL     1       3.764   4.031  18.554  0.00  0.00    +0.000 A 
ATOM      3  C   UNL     1       3.063   4.212  19.754  0.00  0.00    +0.000 A 
ATOM      4  C   UNL     1       2.531   5.461  20.090  0.00  0.00    +0.000 A 
ATOM      5  C   UNL     1       2.642   6.514  19.190  0.00  0.00    +0.000 A 
ATOM      6  C   UNL     1       3.335   6.323  17.989  0.00  0.00    +0.000 A 
ENDROOT
BRANCH   5   7
ATOM      7  N   UNL     1       2.025   7.754  19.415  0.00  0.00    +0.000 N 
ATOM      8  C   UNL     1       1.473   8.063  20.718  0.00  0.00    +0.000 C 
ATOM      9  C   UNL     1       0.848   9.400  20.509  0.00  0.00    +0.000 A 
ATOM     10  C   UNL     1       1.124   9.848  19.214  0.00  0.00    +0.000 A 
ATOM     11  C   UNL     1       0.680  11.073  18.755  0.00  0.00    +0.000 A 
ATOM     12  C   UNL     1      -0.037  11.875  19.647  0.00  0.00    +0.000 A 
ATOM     13  C   UNL     1      -0.322  11.426  20.952  0.00  0.00    +0.000 A 
ATOM     14  C   UNL     1       0.103  10.165  21.400  0.00  0.00    +0.000 A 
ATOM     15  C   UNL     1       1.894   8.801  18.509  0.00  0.00    +0.000 C 
ATOM     16  O   UNL     1       2.246   8.882  17.351  0.00  0.00    +0.000 OA
BRANCH  14  17
ATOM     17  C   UNL     1      -0.252   9.680  22.784  0.00  0.00    +0.000 C 
ATOM     18  F   UNL     1      -1.067  10.527  23.474  0.00  0.00    +0.000 F 
ATOM     19  F   UNL     1      -0.895   8.482  22.769  0.00  0.00    +0.000 F 
ATOM     20  F   UNL     1       0.846   9.509  23.569  0.00  0.00    +0.000 F 
ENDBRANCH  14  17
ENDBRANCH   5   7
BRANCH   1  22
ATOM     21  C   UNL     1       5.257   3.506  16.252  0.00  0.00    +0.000 C 
ATOM     22  C   UNL     1       4.780   4.962  16.400  0.00  0.00    +0.000 C 
BRANCH  22  23
ATOM     23  C   UNL     1       5.966   5.958  16.384  0.00  0.00    +0.000 C 
ATOM     24  F   UNL     1       5.485   7.231  16.250  0.00  0.00    +0.000 F 
BRANCH  23  25
ATOM     25  C   UNL     1       6.824   5.844  17.604  0.00  0.00    +0.000 A 
ATOM     26  N   UNL     1       6.971   4.765  18.352  0.00  0.00    +0.000 NA
ATOM     27  N   UNL     1       7.820   5.063  19.387  0.00  0.00    +0.000 NA
ATOM     28  C   UNL     1       8.185   6.316  19.250  0.00  0.00    +0.000 A 
ATOM     29  N   UNL     1       7.597   6.843  18.143  0.00  0.00    +0.000 N 
ATOM     30  C   UNL     1       7.764   8.193  17.673  0.00  0.00    +0.000 C 
ENDBRANCH  23  25
ENDBRANCH  22  23
ENDBRANCH   1  22
TORSDOF 5
ENDMDL
MODEL 7
REMARK VINA RESULT:      -8.5      1.505      2.515
REMARK  Name = 
REMARK  7 active torsions:
REMARK  status: ('A' for Active; 'I' for Inactive)
REMARK    1  A    between atoms: C_1  and  C_2
REMARK    2  A    between atoms: C_2  and  C_3
REMARK    3  A    between atoms: C_2  and  C_23
REMARK    4  A    between atoms: C_7  and  N_8
REMARK    5  A    between atoms: C_15  and  C_16
REMARK    6  A    between atoms: C_23  and  C_25
REMARK    7  A    between atoms: N_29  and  C_30
REMARK                            x       y       z     vdW  Elec       q    Type
REMARK                         _______ _______ _______ _____ _____    ______ ____
ROOT
ATOM      1  C   UNL     1       5.067   5.035  19.079  0.00  0.00    +0.000 A 
ATOM      2  C   UNL     1       4.438   3.813  19.342  0.00  0.00    +0.000 A 
ATOM      3  C   UNL     1       3.099   3.778  19.754  0.00  0.00    +0.000 A 
ATOM      4  C   UNL     1       2.371   4.961  19.920  0.00  0.00    +0.000 A 
ATOM      5  C   UNL     1       2.966   6.178  19.606  0.00  0.00    +0.000 A 
ATOM      6  C   UNL     1       4.301   6.203  19.186  0.00  0.00    +0.000 A 
ENDROOT
BRANCH   5   7
ATOM      7  N   UNL     1       2.251   7.385  19.634  0.00  0.00    +0.000 N 
ATOM      8  C   UNL     1       1.618   7.824  20.860  0.00  0.00    +0.000 C 
ATOM      9  C   UNL     1       0.908   9.067  20.445  0.00  0.00    +0.000 A 
ATOM     10  C   UNL     1       1.212   9.356  19.112  0.00  0.00    +0.000 A 
ATOM     11  C   UNL     1       0.704  10.469  18.471  0.00  0.00    +0.000 A 
ATOM     12  C   UNL     1      -0.110  11.326  19.216  0.00  0.00    +0.000 A 
ATOM     13  C   UNL     1      -0.424  11.038  20.559  0.00  0.00    +0.000 A 
ATOM     14  C   UNL     1       0.069   9.886  21.193  0.00  0.00    +0.000 A 
ATOM     15  C   UNL     1       2.088   8.286  18.588  0.00  0.00    +0.000 C 
ATOM     16  O   UNL     1       2.488   8.237  17.443  0.00  0.00    +0.000 OA
BRANCH  14  17
ATOM     17  C   UNL     1      -0.315   9.567  22.617  0.00  0.00    +0.000 C 
ATOM     18  F   UNL     1       0.748   9.449  23.462  0.00  0.00    +0.000 F 
ATOM     19  F   UNL     1      -1.117  10.516  23.167  0.00  0.00    +0.000 F 
ATOM     20  F   UNL     1      -0.993   8.392  22.719  0.00  0.00    +0.000 F 
ENDBRANCH  14  17
ENDBRANCH   5   7
BRANCH   1  22
ATOM     21  C   UNL     1       7.357   5.503  19.984  0.00  0.00    +0.000 C 
ATOM     22  C   UNL     1       6.552   5.114  18.731  0.00  0.00    +0.000 C 
BRANCH  22  23
ATOM     23  C   UNL     1       6.823   6.083  17.553  0.00  0.00    +0.000 C 
ATOM     24  F   UNL     1       8.088   6.589  17.666  0.00  0.00    +0.000 F 
BRANCH  23  25
ATOM     25  C   UNL     1       6.634   5.429  16.221  0.00  0.00    +0.000 A 
ATOM     26  N   UNL     1       7.331   4.411  15.750  0.00  0.00    +0.000 NA
ATOM     27  N   UNL     1       6.873   4.113  14.491  0.00  0.00    +0.000 NA
ATOM     28  C   UNL     1       5.897   4.947  14.219  0.00  0.00    +0.000 A 
ATOM     29  N   UNL     1       5.703   5.781  15.274  0.00  0.00    +0.000 N 
ATOM     30  C   UNL     1       4.717   6.827  15.339  0.00  0.00    +0.000 C 
ENDBRANCH  23  25
ENDBRANCH  22  23
ENDBRANCH   1  22
TORSDOF 5
ENDMDL
MODEL 8
REMARK VINA RESULT:      -8.5      1.577      2.597
REMARK  Name = 
REMARK  7 active torsions:
REMARK  status: ('A' for Active; 'I' for Inactive)
REMARK    1  A    between atoms: C_1  and  C_2
REMARK    2  A    between atoms: C_2  and  C_3
REMARK    3  A    between atoms: C_2  and  C_23
REMARK    4  A    between atoms: C_7  and  N_8
REMARK    5  A    between atoms: C_15  and  C_16
REMARK    6  A    between atoms: C_23  and  C_25
REMARK    7  A    between atoms: N_29  and  C_30
REMARK                            x       y       z     vdW  Elec       q    Type
REMARK                         _______ _______ _______ _____ _____    ______ ____
ROOT
ATOM      1  C   UNL     1       4.235   4.830  18.129  0.00  0.00    +0.000 A 
ATOM      2  C   UNL     1       3.693   3.712  18.774  0.00  0.00    +0.000 A 
ATOM      3  C   UNL     1       2.641   3.863  19.689  0.00  0.00    +0.000 A 
ATOM      4  C   UNL     1       2.124   5.129  19.982  0.00  0.00    +0.000 A 
ATOM      5  C   UNL     1       2.615   6.240  19.305  0.00  0.00    +0.000 A 
ATOM      6  C   UNL     1       3.658   6.080  18.386  0.00  0.00    +0.000 A 
ENDROOT
BRANCH   5   7
ATOM      7  N   UNL     1       2.054   7.516  19.465  0.00  0.00    +0.000 N 
ATOM      8  C   UNL     1       1.490   7.905  20.741  0.00  0.00    +0.000 C 
ATOM      9  C   UNL     1       0.936   9.261  20.463  0.00  0.00    +0.000 A 
ATOM     10  C   UNL     1       1.262   9.640  19.158  0.00  0.00    +0.000 A 
ATOM     11  C   UNL     1       0.889  10.865  18.640  0.00  0.00    +0.000 A 
ATOM     12  C   UNL     1       0.193  11.737  19.481  0.00  0.00    +0.000 A 
ATOM     13  C   UNL     1      -0.143  11.358  20.795  0.00  0.00    +0.000 A 
ATOM     14  C   UNL     1       0.210  10.097  21.304  0.00  0.00    +0.000 A 
ATOM     15  C   UNL     1       1.995   8.529  18.515  0.00  0.00    +0.000 C 
ATOM     16  O   UNL     1       2.376   8.545  17.363  0.00  0.00    +0.000 OA
BRANCH  14  17
ATOM     17  C   UNL     1      -0.199   9.688  22.698  0.00  0.00    +0.000 C 
ATOM     18  F   UNL     1      -0.890  10.647  23.374  0.00  0.00    +0.000 F 
ATOM     19  F   UNL     1      -0.995   8.586  22.706  0.00  0.00    +0.000 F 
ATOM     20  F   UNL     1       0.871   9.387  23.483  0.00  0.00    +0.000 F 
ENDBRANCH  14  17
ENDBRANCH   5   7
BRANCH   1  22
ATOM     21  C   UNL     1       6.732   5.007  18.003  0.00  0.00    +0.000 C 
ATOM     22  C   UNL     1       5.448   4.713  17.207  0.00  0.00    +0.000 C 
BRANCH  22  23
ATOM     23  C   UNL     1       5.323   5.626  15.963  0.00  0.00    +0.000 C 
ATOM     24  F   UNL     1       5.372   6.935  16.357  0.00  0.00    +0.000 F 
BRANCH  23  25
ATOM     25  C   UNL     1       6.376   5.344  14.939  0.00  0.00    +0.000 A 
ATOM     26  N   UNL     1       7.598   5.847  14.922  0.00  0.00    +0.000 NA
ATOM     27  N   UNL     1       8.253   5.365  13.817  0.00  0.00    +0.000 NA
ATOM     28  C   UNL     1       7.424   4.570  13.182  0.00  0.00    +0.000 A 
ATOM     29  N   UNL     1       6.243   4.515  13.851  0.00  0.00    +0.000 N 
ATOM     30  C   UNL     1       5.095   3.743  13.455  0.00  0.00    +0.000 C 
ENDBRANCH  23  25
ENDBRANCH  22  23
ENDBRANCH   1  22
TORSDOF 5
ENDMDL
MODEL 9
REMARK VINA RESULT:      -8.5      3.533      8.416
REMARK  Name = 
REMARK  7 active torsions:
REMARK  status: ('A' for Active; 'I' for Inactive)
REMARK    1  A    between atoms: C_1  and  C_2
REMARK    2  A    between atoms: C_2  and  C_3
REMARK    3  A    between atoms: C_2  and  C_23
REMARK    4  A    between atoms: C_7  and  N_8
REMARK    5  A    between atoms: C_15  and  C_16
REMARK    6  A    between atoms: C_23  and  C_25
REMARK    7  A    between atoms: N_29  and  C_30
REMARK                            x       y       z     vdW  Elec       q    Type
REMARK                         _______ _______ _______ _____ _____    ______ ____
ROOT
ATOM      1  C   UNL     1      -0.073  10.735  19.779  0.00  0.00    +0.000 A 
ATOM      2  C   UNL     1      -0.046  11.065  21.139  0.00  0.00    +0.000 A 
ATOM      3  C   UNL     1       0.545  10.198  22.068  0.00  0.00    +0.000 A 
ATOM      4  C   UNL     1       1.107   8.985  21.657  0.00  0.00    +0.000 A 
ATOM      5  C   UNL     1       1.138   8.671  20.303  0.00  0.00    +0.000 A 
ATOM      6  C   UNL     1       0.555   9.547  19.380  0.00  0.00    +0.000 A 
ENDROOT
BRANCH   5   7
ATOM      7  N   UNL     1       1.795   7.531  19.819  0.00  0.00    +0.000 N 
ATOM      8  C   UNL     1       1.619   6.255  20.482  0.00  0.00    +0.000 C 
ATOM      9  C   UNL     1       2.535   5.355  19.728  0.00  0.00    +0.000 A 
ATOM     10  C   UNL     1       3.101   6.053  18.658  0.00  0.00    +0.000 A 
ATOM     11  C   UNL     1       3.978   5.452  17.776  0.00  0.00    +0.000 A 
ATOM     12  C   UNL     1       4.264   4.099  17.972  0.00  0.00    +0.000 A 
ATOM     13  C   UNL     1       3.702   3.391  19.052  0.00  0.00    +0.000 A 
ATOM     14  C   UNL     1       2.837   4.018  19.964  0.00  0.00    +0.000 A 
ATOM     15  C   UNL     1       2.617   7.450  18.700  0.00  0.00    +0.000 C 
ATOM     16  O   UNL     1       2.966   8.312  17.921  0.00  0.00    +0.000 OA
BRANCH  14  17
ATOM     17  C   UNL     1       2.280   3.258  21.143  0.00  0.00    +0.000 C 
ATOM     18  F   UNL     1       0.948   2.986  21.045  0.00  0.00    +0.000 F 
ATOM     19  F   UNL     1       2.888   2.056  21.325  0.00  0.00    +0.000 F 
ATOM     20  F   UNL     1       2.428   3.938  22.313  0.00  0.00    +0.000 F 
ENDBRANCH  14  17
ENDBRANCH   5   7
BRANCH   1  22
ATOM     21  C   UNL     1      -0.558  13.092  19.077  0.00  0.00    +0.000 C 
ATOM     22  C   UNL     1      -0.800  11.606  18.756  0.00  0.00    +0.000 C 
BRANCH  22  23
ATOM     23  C   UNL     1      -2.311  11.275  18.680  0.00  0.00    +0.000 C 
ATOM     24  F   UNL     1      -3.032  12.348  19.127  0.00  0.00    +0.000 F 
BRANCH  23  25
ATOM     25  C   UNL     1      -2.742  10.887  17.301  0.00  0.00    +0.000 A 
ATOM     26  N   UNL     1      -2.026  10.201  16.428  0.00  0.00    +0.000 NA
ATOM     27  N   UNL     1      -2.757  10.065  15.275  0.00  0.00    +0.000 NA
ATOM     28  C   UNL     1      -3.909  10.663  15.465  0.00  0.00    +0.000 A 
ATOM     29  N   UNL     1      -3.952  11.182  16.721  0.00  0.00    +0.000 N 
ATOM     30  C   UNL     1      -5.059  11.907  17.287  0.00  0.00    +0.000 C 
ENDBRANCH  23  25
ENDBRANCH  22  23
ENDBRANCH   1  22
TORSDOF 5
ENDMDL
