MODEL 1
REMARK VINA RESULT:      -8.4      0.000      0.000
REMARK  Name = 
REMARK  8 active torsions:
REMARK  status: ('A' for Active; 'I' for Inactive)
REMARK    1  A    between atoms: C_1  and  C_2
REMARK    2  A    between atoms: C_2  and  S_3
REMARK    3  A    between atoms: C_2  and  C_10
REMARK    4  A    between atoms: S_3  and  C_4
REMARK    5  A    between atoms: N_8  and  C_9
REMARK    6  A    between atoms: C_14  and  C_15
REMARK    7  A    between atoms: C_17  and  C_18
REMARK    8  A    between atoms: C_22  and  C_23
REMARK                            x       y       z     vdW  Elec       q    Type
REMARK                         _______ _______ _______ _____ _____    ______ ____
ROOT
ATOM      1  C   UNL     1       2.339   7.257  19.525  0.00  0.00    +0.000 A 
ATOM      2  C   UNL     1       2.432   7.819  18.239  0.00  0.00    +0.000 A 
ATOM      3  C   UNL     1       1.768   9.003  17.918  0.00  0.00    +0.000 A 
ATOM      4  C   UNL     1       1.001   9.647  18.878  0.00  0.00    +0.000 A 
ATOM      5  C   UNL     1       0.882   9.108  20.168  0.00  0.00    +0.000 A 
ATOM      6  C   UNL     1       1.530   7.903  20.470  0.00  0.00    +0.000 A 
ENDROOT
BRANCH   5   7
ATOM      7  C   UNL     1       0.216   9.859  21.206  0.00  0.00    +0.000 A 
ATOM      8  C   UNL     1      -0.593  10.963  21.182  0.00  0.00    +0.000 A 
ATOM      9  C   UNL     1      -0.853  11.254  22.541  0.00  0.00    +0.000 A 
ATOM     10  N   UNL     1      -0.225  10.378  23.340  0.00  0.00    +0.000 NA
ATOM     11  O   UNL     1       0.440   9.500  22.499  0.00  0.00    +0.000 OA
BRANCH   9  12
ATOM     12  C   UNL     1      -1.675  12.342  23.053  0.00  0.00    +0.000 A 
ATOM     13  C   UNL     1      -1.082  13.574  23.373  0.00  0.00    +0.000 A 
ATOM     14  C   UNL     1      -1.850  14.625  23.862  0.00  0.00    +0.000 A 
ATOM     15  C   UNL     1      -3.223  14.456  24.040  0.00  0.00    +0.000 A 
ATOM     16  C   UNL     1      -3.824  13.231  23.730  0.00  0.00    +0.000 A 
ATOM     17  C   UNL     1      -3.052  12.175  23.236  0.00  0.00    +0.000 A 
BRANCH  16  18
ATOM     18  C   UNL     1      -5.233  13.058  23.921  0.00  0.00    +0.000 C 
ATOM     19  N   UNL     1      -6.381  12.917  24.066  0.00  0.00    +0.000 NA
ENDBRANCH  16  18
ENDBRANCH   9  12
ENDBRANCH   5   7
BRANCH   1  21
ATOM     20  C   UNL     1       4.210   5.633  18.938  0.00  0.00    +0.000 C 
ATOM     21  C   UNL     1       3.124   6.010  19.951  0.00  0.00    +0.000 C 
BRANCH  21  22
ATOM     22  S   UNL     1       1.939   4.638  20.250  0.00  0.00    +0.000 S 
BRANCH  22  23
ATOM     23  C   UNL     1       2.303   3.483  19.021  0.00  0.00    +0.000 A 
ATOM     24  N   UNL     1       1.735   3.345  17.845  0.00  0.00    +0.000 NA
ATOM     25  N   UNL     1       2.227   2.193  17.271  0.00  0.00    +0.000 NA
ATOM     26  C   UNL     1       3.111   1.686  18.100  0.00  0.00    +0.000 A 
ATOM     27  N   UNL     1       3.230   2.495  19.191  0.00  0.00    +0.000 N 
ATOM     28  C   UNL     1       4.163   2.322  20.270  0.00  0.00    +0.000 C 
ENDBRANCH  22  23
ENDBRANCH  21  22
ENDBRANCH   1  21
TORSDOF 6
ENDMDL
MODEL 2
REMARK VINA RESULT:      -8.4      3.229     10.235
REMARK  Name = 
REMARK  8 active torsions:
REMARK  status: ('A' for Active; 'I' for Inactive)
REMARK    1  A    between atoms: C_1  and  C_2
REMARK    2  A    between atoms: C_2  and  S_3
REMARK    3  A    between atoms: C_2  and  C_10
REMARK    4  A    between atoms: S_3  and  C_4
REMARK    5  A    between atoms: N_8  and  C_9
REMARK    6  A    between atoms: C_14  and  C_15
REMARK    7  A    between atoms: C_17  and  C_18
REMARK    8  A    between atoms: C_22  and  C_23
REMARK                            x       y       z     vdW  Elec       q    Type
REMARK                         _______ _______ _______ _____ _____    ______ ____
ROOT
ATOM      1  C   UNL     1      -1.336  11.817  19.305  0.00  0.00    +0.000 A 
ATOM      2  C   UNL     1      -0.639  12.965  18.889  0.00  0.00    +0.000 A 
ATOM      3  C   UNL     1       0.722  12.915  18.589  0.00  0.00    +0.000 A 
ATOM      4  C   UNL     1       1.410  11.715  18.696  0.00  0.00    +0.000 A 
ATOM      5  C   UNL     1       0.744  10.553  19.115  0.00  0.00    +0.000 A 
ATOM      6  C   UNL     1      -0.616  10.622  19.443  0.00  0.00    +0.000 A 
ENDROOT
BRANCH   5   7
ATOM      7  C   UNL     1       1.422   9.278  19.074  0.00  0.00    +0.000 A 
ATOM      8  C   UNL     1       1.993   8.561  18.058  0.00  0.00    +0.000 A 
ATOM      9  C   UNL     1       2.419   7.354  18.658  0.00  0.00    +0.000 A 
ATOM     10  N   UNL     1       2.111   7.341  19.964  0.00  0.00    +0.000 NA
ATOM     11  O   UNL     1       1.491   8.554  20.223  0.00  0.00    +0.000 OA
BRANCH   9  12
ATOM     12  C   UNL     1       3.095   6.248  17.996  0.00  0.00    +0.000 A 
ATOM     13  C   UNL     1       2.489   4.981  17.958  0.00  0.00    +0.000 A 
ATOM     14  C   UNL     1       3.119   3.912  17.328  0.00  0.00    +0.000 A 
ATOM     15  C   UNL     1       4.366   4.096  16.732  0.00  0.00    +0.000 A 
ATOM     16  C   UNL     1       4.982   5.351  16.769  0.00  0.00    +0.000 A 
ATOM     17  C   UNL     1       4.348   6.426  17.399  0.00  0.00    +0.000 A 
BRANCH  16  18
ATOM     18  C   UNL     1       6.266   5.535  16.162  0.00  0.00    +0.000 C 
ATOM     19  N   UNL     1       7.316   5.684  15.677  0.00  0.00    +0.000 NA
ENDBRANCH  16  18
ENDBRANCH   9  12
ENDBRANCH   5   7
BRANCH   1  21
ATOM     20  C   UNL     1      -3.652  11.619  18.266  0.00  0.00    +0.000 C 
ATOM     21  C   UNL     1      -2.849  11.803  19.557  0.00  0.00    +0.000 C 
BRANCH  21  22
ATOM     22  S   UNL     1      -3.313  13.337  20.457  0.00  0.00    +0.000 S 
BRANCH  22  23
ATOM     23  C   UNL     1      -3.810  12.785  22.014  0.00  0.00    +0.000 A 
ATOM     24  N   UNL     1      -5.025  12.512  22.428  0.00  0.00    +0.000 NA
ATOM     25  N   UNL     1      -4.967  12.271  23.783  0.00  0.00    +0.000 NA
ATOM     26  C   UNL     1      -3.708  12.366  24.146  0.00  0.00    +0.000 A 
ATOM     27  N   UNL     1      -2.937  12.635  23.054  0.00  0.00    +0.000 N 
ATOM     28  C   UNL     1      -1.503  12.719  23.036  0.00  0.00    +0.000 C 
ENDBRANCH  22  23
ENDBRANCH  21  22
ENDBRANCH   1  21
TORSDOF 6
ENDMDL
MODEL 3
REMARK VINA RESULT:      -8.3      3.689      5.472
REMARK  Name = 
REMARK  8 active torsions:
REMARK  status: ('A' for Active; 'I' for Inactive)
REMARK    1  A    between atoms: C_1  and  C_2
REMARK    2  A    between atoms: C_2  and  S_3
REMARK    3  A    between atoms: C_2  and  C_10
REMARK    4  A    between atoms: S_3  and  C_4
REMARK    5  A    between atoms: N_8  and  C_9
REMARK    6  A    between atoms: C_14  and  C_15
REMARK    7  A    between atoms: C_17  and  C_18
REMARK    8  A    between atoms: C_22  and  C_23
REMARK                            x       y       z     vdW  Elec       q    Type
REMARK                         _______ _______ _______ _____ _____    ______ ____
ROOT
ATOM      1  C   UNL     1       4.470   4.726  16.720  0.00  0.00    +0.000 A 
ATOM      2  C   UNL     1       3.697   3.553  16.797  0.00  0.00    +0.000 A 
ATOM      3  C   UNL     1       2.508   3.517  17.527  0.00  0.00    +0.000 A 
ATOM      4  C   UNL     1       2.070   4.654  18.189  0.00  0.00    +0.000 A 
ATOM      5  C   UNL     1       2.821   5.838  18.137  0.00  0.00    +0.000 A 
ATOM      6  C   UNL     1       4.028   5.854  17.426  0.00  0.00    +0.000 A 
ENDROOT
BRANCH   5   7
ATOM      7  C   UNL     1       2.285   7.059  18.693  0.00  0.00    +0.000 A 
ATOM      8  C   UNL     1       1.680   7.351  19.885  0.00  0.00    +0.000 A 
ATOM      9  C   UNL     1       1.314   8.712  19.785  0.00  0.00    +0.000 A 
ATOM     10  N   UNL     1       1.670   9.211  18.591  0.00  0.00    +0.000 NA
ATOM     11  O   UNL     1       2.284   8.171  17.910  0.00  0.00    +0.000 OA
BRANCH   9  12
ATOM     12  C   UNL     1       0.640   9.506  20.802  0.00  0.00    +0.000 A 
ATOM     13  C   UNL     1       0.063   8.872  21.915  0.00  0.00    +0.000 A 
ATOM     14  C   UNL     1      -0.584   9.614  22.898  0.00  0.00    +0.000 A 
ATOM     15  C   UNL     1      -0.666  11.001  22.777  0.00  0.00    +0.000 A 
ATOM     16  C   UNL     1      -0.101  11.643  21.671  0.00  0.00    +0.000 A 
ATOM     17  C   UNL     1       0.552  10.898  20.684  0.00  0.00    +0.000 A 
BRANCH  16  18
ATOM     18  C   UNL     1      -0.193  13.067  21.546  0.00  0.00    +0.000 C 
ATOM     19  N   UNL     1      -0.259  14.227  21.448  0.00  0.00    +0.000 NA
ENDBRANCH  16  18
ENDBRANCH   9  12
ENDBRANCH   5   7
BRANCH   1  21
ATOM     20  C   UNL     1       5.737   3.837  14.699  0.00  0.00    +0.000 C 
ATOM     21  C   UNL     1       5.732   4.839  15.857  0.00  0.00    +0.000 C 
BRANCH  21  22
ATOM     22  S   UNL     1       7.207   4.665  16.940  0.00  0.00    +0.000 S 
BRANCH  22  23
ATOM     23  C   UNL     1       7.552   6.275  17.454  0.00  0.00    +0.000 A 
ATOM     24  N   UNL     1       7.500   7.380  16.748  0.00  0.00    +0.000 NA
ATOM     25  N   UNL     1       8.020   8.398  17.517  0.00  0.00    +0.000 NA
ATOM     26  C   UNL     1       8.336   7.888  18.685  0.00  0.00    +0.000 A 
ATOM     27  N   UNL     1       8.010   6.565  18.708  0.00  0.00    +0.000 N 
ATOM     28  C   UNL     1       8.120   5.690  19.843  0.00  0.00    +0.000 C 
ENDBRANCH  22  23
ENDBRANCH  21  22
ENDBRANCH   1  21
TORSDOF 6
ENDMDL
MODEL 4
REMARK VINA RESULT:      -8.2      0.581      1.133
REMARK  Name = 
REMARK  8 active torsions:
REMARK  status: ('A' for Active; 'I' for Inactive)
REMARK    1  A    between atoms: C_1  and  C_2
REMARK    2  A    between atoms: C_2  and  S_3
REMARK    3  A    between atoms: C_2  and  C_10
REMARK    4  A    between atoms: S_3  and  C_4
REMARK    5  A    between atoms: N_8  and  C_9
REMARK    6  A    between atoms: C_14  and  C_15
REMARK    7  A    between atoms: C_17  and  C_18
REMARK    8  A    between atoms: C_22  and  C_23
REMARK                            x       y       z     vdW  Elec       q    Type
REMARK                         _______ _______ _______ _____ _____    ______ ____
ROOT
ATOM      1  C   UNL     1       2.595   7.084  19.507  0.00  0.00    +0.000 A 
ATOM      2  C   UNL     1       2.625   7.601  18.199  0.00  0.00    +0.000 A 
ATOM      3  C   UNL     1       1.901   8.743  17.856  0.00  0.00    +0.000 A 
ATOM      4  C   UNL     1       1.135   9.389  18.816  0.00  0.00    +0.000 A 
ATOM      5  C   UNL     1       1.079   8.895  20.127  0.00  0.00    +0.000 A 
ATOM      6  C   UNL     1       1.787   7.731  20.453  0.00  0.00    +0.000 A 
ENDROOT
BRANCH   5   7
ATOM      7  C   UNL     1       0.412   9.657  21.158  0.00  0.00    +0.000 A 
ATOM      8  C   UNL     1      -0.428  10.737  21.120  0.00  0.00    +0.000 A 
ATOM      9  C   UNL     1      -0.670  11.058  22.475  0.00  0.00    +0.000 A 
ATOM     10  N   UNL     1      -0.003  10.222  23.285  0.00  0.00    +0.000 NA
ATOM     11  O   UNL     1       0.670   9.339  22.455  0.00  0.00    +0.000 OA
BRANCH   9  12
ATOM     12  C   UNL     1      -1.512  12.136  22.973  0.00  0.00    +0.000 A 
ATOM     13  C   UNL     1      -0.962  13.413  23.179  0.00  0.00    +0.000 A 
ATOM     14  C   UNL     1      -1.751  14.456  23.653  0.00  0.00    +0.000 A 
ATOM     15  C   UNL     1      -3.099  14.235  23.932  0.00  0.00    +0.000 A 
ATOM     16  C   UNL     1      -3.656  12.966  23.737  0.00  0.00    +0.000 A 
ATOM     17  C   UNL     1      -2.864  11.918  23.258  0.00  0.00    +0.000 A 
BRANCH  16  18
ATOM     18  C   UNL     1      -5.039  12.740  24.031  0.00  0.00    +0.000 C 
ATOM     19  N   UNL     1      -6.167  12.554  24.261  0.00  0.00    +0.000 NA
ENDBRANCH  16  18
ENDBRANCH   9  12
ENDBRANCH   5   7
BRANCH   1  21
ATOM     20  C   UNL     1       4.405   5.416  18.856  0.00  0.00    +0.000 C 
ATOM     21  C   UNL     1       3.445   5.889  19.953  0.00  0.00    +0.000 C 
BRANCH  21  22
ATOM     22  S   UNL     1       2.327   4.548  20.528  0.00  0.00    +0.000 S 
BRANCH  22  23
ATOM     23  C   UNL     1       2.659   3.230  19.466  0.00  0.00    +0.000 A 
ATOM     24  N   UNL     1       3.415   2.180  19.689  0.00  0.00    +0.000 NA
ATOM     25  N   UNL     1       3.526   1.480  18.508  0.00  0.00    +0.000 NA
ATOM     26  C   UNL     1       2.798   2.105  17.610  0.00  0.00    +0.000 A 
ATOM     27  N   UNL     1       2.191   3.182  18.184  0.00  0.00    +0.000 N 
ATOM     28  C   UNL     1       1.246   4.056  17.545  0.00  0.00    +0.000 C 
ENDBRANCH  22  23
ENDBRANCH  21  22
ENDBRANCH   1  21
TORSDOF 6
ENDMDL
MODEL 5
REMARK VINA RESULT:      -8.2      6.832      8.982
REMARK  Name = 
REMARK  8 active torsions:
REMARK  status: ('A' for Active; 'I' for Inactive)
REMARK    1  A    between atoms: C_1  and  C_2
REMARK    2  A    between atoms: C_2  and  S_3
REMARK    3  A    between atoms: C_2  and  C_10
REMARK    4  A    between atoms: S_3  and  C_4
REMARK    5  A    between atoms: N_8  and  C_9
REMARK    6  A    between atoms: C_14  and  C_15
REMARK    7  A    between atoms: C_17  and  C_18
REMARK    8  A    between atoms: C_22  and  C_23
REMARK                            x       y       z     vdW  Elec       q    Type
REMARK                         _______ _______ _______ _____ _____    ______ ____
ROOT
ATOM      1  C   UNL     1       4.285   5.253  17.103  0.00  0.00    +0.000 A 
ATOM      2  C   UNL     1       4.841   4.334  16.195  0.00  0.00    +0.000 A 
ATOM      3  C   UNL     1       6.171   4.435  15.788  0.00  0.00    +0.000 A 
ATOM      4  C   UNL     1       6.969   5.456  16.283  0.00  0.00    +0.000 A 
ATOM      5  C   UNL     1       6.443   6.393  17.184  0.00  0.00    +0.000 A 
ATOM      6  C   UNL     1       5.098   6.299  17.563  0.00  0.00    +0.000 A 
ENDROOT
BRANCH   5   7
ATOM      7  C   UNL     1       7.315   7.355  17.817  0.00  0.00    +0.000 A 
ATOM      8  C   UNL     1       7.535   8.690  17.607  0.00  0.00    +0.000 A 
ATOM      9  C   UNL     1       8.571   9.033  18.505  0.00  0.00    +0.000 A 
ATOM     10  N   UNL     1       8.960   7.961  19.210  0.00  0.00    +0.000 NA
ATOM     11  O   UNL     1       8.165   6.910  18.780  0.00  0.00    +0.000 OA
BRANCH   9  12
ATOM     12  C   UNL     1       9.169  10.350  18.676  0.00  0.00    +0.000 A 
ATOM     13  C   UNL     1       9.859  10.947  17.608  0.00  0.00    +0.000 A 
ATOM     14  C   UNL     1      10.436  12.205  17.750  0.00  0.00    +0.000 A 
ATOM     15  C   UNL     1      10.334  12.880  18.966  0.00  0.00    +0.000 A 
ATOM     16  C   UNL     1       9.655  12.292  20.039  0.00  0.00    +0.000 A 
ATOM     17  C   UNL     1       9.073  11.029  19.895  0.00  0.00    +0.000 A 
BRANCH  16  18
ATOM     18  C   UNL     1       9.558  12.985  21.290  0.00  0.00    +0.000 C 
ATOM     19  N   UNL     1       9.476  13.557  22.302  0.00  0.00    +0.000 NA
ENDBRANCH  16  18
ENDBRANCH   9  12
ENDBRANCH   5   7
BRANCH   1  21
ATOM     20  C   UNL     1       2.699   5.793  19.020  0.00  0.00    +0.000 C 
ATOM     21  C   UNL     1       2.858   5.128  17.649  0.00  0.00    +0.000 C 
BRANCH  21  22
ATOM     22  S   UNL     1       2.386   3.352  17.674  0.00  0.00    +0.000 S 
BRANCH  22  23
ATOM     23  C   UNL     1       2.071   3.017  19.336  0.00  0.00    +0.000 A 
ATOM     24  N   UNL     1       0.922   3.065  19.969  0.00  0.00    +0.000 NA
ATOM     25  N   UNL     1       1.171   2.888  21.313  0.00  0.00    +0.000 NA
ATOM     26  C   UNL     1       2.463   2.696  21.452  0.00  0.00    +0.000 A 
ATOM     27  N   UNL     1       3.062   2.716  20.227  0.00  0.00    +0.000 N 
ATOM     28  C   UNL     1       4.450   2.452  19.963  0.00  0.00    +0.000 C 
ENDBRANCH  22  23
ENDBRANCH  21  22
ENDBRANCH   1  21
TORSDOF 6
ENDMDL
MODEL 6
REMARK VINA RESULT:      -8.1      1.333      1.827
REMARK  Name = 
REMARK  8 active torsions:
REMARK  status: ('A' for Active; 'I' for Inactive)
REMARK    1  A    between atoms: C_1  and  C_2
REMARK    2  A    between atoms: C_2  and  S_3
REMARK    3  A    between atoms: C_2  and  C_10
REMARK    4  A    between atoms: S_3  and  C_4
REMARK    5  A    between atoms: N_8  and  C_9
REMARK    6  A    between atoms: C_14  and  C_15
REMARK    7  A    between atoms: C_17  and  C_18
REMARK    8  A    between atoms: C_22  and  C_23
REMARK                            x       y       z     vdW  Elec       q    Type
REMARK                         _______ _______ _______ _____ _____    ______ ____
ROOT
ATOM      1  C   UNL     1       2.360   7.507  19.388  0.00  0.00    +0.000 A 
ATOM      2  C   UNL     1       2.445   8.142  18.135  0.00  0.00    +0.000 A 
ATOM      3  C   UNL     1       1.767   9.334  17.882  0.00  0.00    +0.000 A 
ATOM      4  C   UNL     1       0.995   9.915  18.877  0.00  0.00    +0.000 A 
ATOM      5  C   UNL     1       0.884   9.303  20.135  0.00  0.00    +0.000 A 
ATOM      6  C   UNL     1       1.546   8.091  20.369  0.00  0.00    +0.000 A 
ENDROOT
BRANCH   5   7
ATOM      7  C   UNL     1       0.212   9.988  21.215  0.00  0.00    +0.000 A 
ATOM      8  C   UNL     1      -0.573  11.109  21.259  0.00  0.00    +0.000 A 
ATOM      9  C   UNL     1      -0.856  11.301  22.631  0.00  0.00    +0.000 A 
ATOM     10  N   UNL     1      -0.264  10.353  23.373  0.00  0.00    +0.000 NA
ATOM     11  O   UNL     1       0.401   9.527  22.480  0.00  0.00    +0.000 OA
BRANCH   9  12
ATOM     12  C   UNL     1      -1.665  12.365  23.208  0.00  0.00    +0.000 A 
ATOM     13  C   UNL     1      -2.964  12.085  23.665  0.00  0.00    +0.000 A 
ATOM     14  C   UNL     1      -3.752  13.088  24.222  0.00  0.00    +0.000 A 
ATOM     15  C   UNL     1      -3.251  14.385  24.325  0.00  0.00    +0.000 A 
ATOM     16  C   UNL     1      -1.961  14.677  23.868  0.00  0.00    +0.000 A 
ATOM     17  C   UNL     1      -1.169  13.668  23.311  0.00  0.00    +0.000 A 
BRANCH  16  18
ATOM     18  C   UNL     1      -1.452  16.012  23.968  0.00  0.00    +0.000 C 
ATOM     19  N   UNL     1      -1.039  17.098  24.060  0.00  0.00    +0.000 NA
ENDBRANCH  16  18
ENDBRANCH   9  12
ENDBRANCH   5   7
BRANCH   1  21
ATOM     20  C   UNL     1       4.134   5.845  18.631  0.00  0.00    +0.000 C 
ATOM     21  C   UNL     1       3.159   6.247  19.742  0.00  0.00    +0.000 C 
BRANCH  21  22
ATOM     22  S   UNL     1       1.983   4.899  20.163  0.00  0.00    +0.000 S 
BRANCH  22  23
ATOM     23  C   UNL     1       2.321   3.661  19.010  0.00  0.00    +0.000 A 
ATOM     24  N   UNL     1       1.776   3.482  17.830  0.00  0.00    +0.000 NA
ATOM     25  N   UNL     1       2.226   2.278  17.334  0.00  0.00    +0.000 NA
ATOM     26  C   UNL     1       3.067   1.780  18.212  0.00  0.00    +0.000 A 
ATOM     27  N   UNL     1       3.198   2.643  19.258  0.00  0.00    +0.000 N 
ATOM     28  C   UNL     1       4.096   2.490  20.370  0.00  0.00    +0.000 C 
ENDBRANCH  22  23
ENDBRANCH  21  22
ENDBRANCH   1  21
TORSDOF 6
ENDMDL
MODEL 7
REMARK VINA RESULT:      -8.1      3.036     10.471
REMARK  Name = 
REMARK  8 active torsions:
REMARK  status: ('A' for Active; 'I' for Inactive)
REMARK    1  A    between atoms: C_1  and  C_2
REMARK    2  A    between atoms: C_2  and  S_3
REMARK    3  A    between atoms: C_2  and  C_10
REMARK    4  A    between atoms: S_3  and  C_4
REMARK    5  A    between atoms: N_8  and  C_9
REMARK    6  A    between atoms: C_14  and  C_15
REMARK    7  A    between atoms: C_17  and  C_18
REMARK    8  A    between atoms: C_22  and  C_23
REMARK                            x       y       z     vdW  Elec       q    Type
REMARK                         _______ _______ _______ _____ _____    ______ ____
ROOT
ATOM      1  C   UNL     1      -0.720  11.778  20.616  0.00  0.00    +0.000 A 
ATOM      2  C   UNL     1      -1.520  12.108  19.508  0.00  0.00    +0.000 A 
ATOM      3  C   UNL     1      -1.390  11.432  18.295  0.00  0.00    +0.000 A 
ATOM      4  C   UNL     1      -0.460  10.411  18.170  0.00  0.00    +0.000 A 
ATOM      5  C   UNL     1       0.358  10.061  19.255  0.00  0.00    +0.000 A 
ATOM      6  C   UNL     1       0.239  10.767  20.459  0.00  0.00    +0.000 A 
ENDROOT
BRANCH   5   7
ATOM      7  C   UNL     1       1.211   8.898  19.172  0.00  0.00    +0.000 A 
ATOM      8  C   UNL     1       1.789   8.243  18.119  0.00  0.00    +0.000 A 
ATOM      9  C   UNL     1       2.440   7.129  18.696  0.00  0.00    +0.000 A 
ATOM     10  N   UNL     1       2.254   7.109  20.025  0.00  0.00    +0.000 NA
ATOM     11  O   UNL     1       1.487   8.225  20.321  0.00  0.00    +0.000 OA
BRANCH   9  12
ATOM     12  C   UNL     1       3.212   6.114  17.992  0.00  0.00    +0.000 A 
ATOM     13  C   UNL     1       2.702   4.811  17.868  0.00  0.00    +0.000 A 
ATOM     14  C   UNL     1       3.424   3.828  17.197  0.00  0.00    +0.000 A 
ATOM     15  C   UNL     1       4.667   4.136  16.646  0.00  0.00    +0.000 A 
ATOM     16  C   UNL     1       5.187   5.429  16.768  0.00  0.00    +0.000 A 
ATOM     17  C   UNL     1       4.461   6.417  17.440  0.00  0.00    +0.000 A 
BRANCH  16  18
ATOM     18  C   UNL     1       6.467   5.741  16.207  0.00  0.00    +0.000 C 
ATOM     19  N   UNL     1       7.512   5.984  15.751  0.00  0.00    +0.000 NA
ENDBRANCH  16  18
ENDBRANCH   9  12
ENDBRANCH   5   7
BRANCH   1  21
ATOM     20  C   UNL     1      -1.325  11.424  23.064  0.00  0.00    +0.000 C 
ATOM     21  C   UNL     1      -0.890  12.430  21.994  0.00  0.00    +0.000 C 
BRANCH  21  22
ATOM     22  S   UNL     1      -2.061  13.839  21.841  0.00  0.00    +0.000 S 
BRANCH  22  23
ATOM     23  C   UNL     1      -3.533  13.245  22.517  0.00  0.00    +0.000 A 
ATOM     24  N   UNL     1      -4.425  12.463  21.955  0.00  0.00    +0.000 NA
ATOM     25  N   UNL     1      -5.513  12.389  22.797  0.00  0.00    +0.000 NA
ATOM     26  C   UNL     1      -5.233  13.099  23.866  0.00  0.00    +0.000 A 
ATOM     27  N   UNL     1      -3.975  13.613  23.756  0.00  0.00    +0.000 N 
ATOM     28  C   UNL     1      -3.282  14.366  24.764  0.00  0.00    +0.000 C 
ENDBRANCH  22  23
ENDBRANCH  21  22
ENDBRANCH   1  21
TORSDOF 6
ENDMDL
MODEL 8
REMARK VINA RESULT:      -8.0      1.810      2.257
REMARK  Name = 
REMARK  8 active torsions:
REMARK  status: ('A' for Active; 'I' for Inactive)
REMARK    1  A    between atoms: C_1  and  C_2
REMARK    2  A    between atoms: C_2  and  S_3
REMARK    3  A    between atoms: C_2  and  C_10
REMARK    4  A    between atoms: S_3  and  C_4
REMARK    5  A    between atoms: N_8  and  C_9
REMARK    6  A    between atoms: C_14  and  C_15
REMARK    7  A    between atoms: C_17  and  C_18
REMARK    8  A    between atoms: C_22  and  C_23
REMARK                            x       y       z     vdW  Elec       q    Type
REMARK                         _______ _______ _______ _____ _____    ______ ____
ROOT
ATOM      1  C   UNL     1       2.353   6.957  19.060  0.00  0.00    +0.000 A 
ATOM      2  C   UNL     1       2.697   7.657  17.890  0.00  0.00    +0.000 A 
ATOM      3  C   UNL     1       2.303   8.981  17.697  0.00  0.00    +0.000 A 
ATOM      4  C   UNL     1       1.562   9.630  18.673  0.00  0.00    +0.000 A 
ATOM      5  C   UNL     1       1.197   8.958  19.849  0.00  0.00    +0.000 A 
ATOM      6  C   UNL     1       1.572   7.620  20.018  0.00  0.00    +0.000 A 
ENDROOT
BRANCH   5   7
ATOM      7  C   UNL     1       0.564   9.682  20.928  0.00  0.00    +0.000 A 
ATOM      8  C   UNL     1      -0.304  10.739  20.954  0.00  0.00    +0.000 A 
ATOM      9  C   UNL     1      -0.485  11.028  22.326  0.00  0.00    +0.000 A 
ATOM     10  N   UNL     1       0.244  10.195  23.084  0.00  0.00    +0.000 NA
ATOM     11  O   UNL     1       0.897   9.347  22.203  0.00  0.00    +0.000 OA
BRANCH   9  12
ATOM     12  C   UNL     1      -1.327  12.073  22.889  0.00  0.00    +0.000 A 
ATOM     13  C   UNL     1      -0.809  13.366  23.070  0.00  0.00    +0.000 A 
ATOM     14  C   UNL     1      -1.599  14.379  23.605  0.00  0.00    +0.000 A 
ATOM     15  C   UNL     1      -2.918  14.110  23.969  0.00  0.00    +0.000 A 
ATOM     16  C   UNL     1      -3.444  12.824  23.798  0.00  0.00    +0.000 A 
ATOM     17  C   UNL     1      -2.650  11.807  23.259  0.00  0.00    +0.000 A 
BRANCH  16  18
ATOM     18  C   UNL     1      -4.796  12.549  24.180  0.00  0.00    +0.000 C 
ATOM     19  N   UNL     1      -5.895  12.315  24.492  0.00  0.00    +0.000 NA
ENDBRANCH  16  18
ENDBRANCH   9  12
ENDBRANCH   5   7
BRANCH   1  21
ATOM     20  C   UNL     1       2.291   4.995  20.681  0.00  0.00    +0.000 C 
ATOM     21  C   UNL     1       2.839   5.534  19.357  0.00  0.00    +0.000 C 
BRANCH  21  22
ATOM     22  S   UNL     1       4.677   5.512  19.299  0.00  0.00    +0.000 S 
BRANCH  22  23
ATOM     23  C   UNL     1       5.048   5.055  17.677  0.00  0.00    +0.000 A 
ATOM     24  N   UNL     1       4.546   4.063  16.980  0.00  0.00    +0.000 NA
ATOM     25  N   UNL     1       5.255   3.972  15.802  0.00  0.00    +0.000 NA
ATOM     26  C   UNL     1       6.142   4.940  15.801  0.00  0.00    +0.000 A 
ATOM     27  N   UNL     1       6.012   5.680  16.939  0.00  0.00    +0.000 N 
ATOM     28  C   UNL     1       6.744   6.876  17.255  0.00  0.00    +0.000 C 
ENDBRANCH  22  23
ENDBRANCH  21  22
ENDBRANCH   1  21
TORSDOF 6
ENDMDL
MODEL 9
REMARK VINA RESULT:      -8.0      3.856      5.255
REMARK  Name = 
REMARK  8 active torsions:
REMARK  status: ('A' for Active; 'I' for Inactive)
REMARK    1  A    between atoms: C_1  and  C_2
REMARK    2  A    between atoms: C_2  and  S_3
REMARK    3  A    between atoms: C_2  and  C_10
REMARK    4  A    between atoms: S_3  and  C_4
REMARK    5  A    between atoms: N_8  and  C_9
REMARK    6  A    between atoms: C_14  and  C_15
REMARK    7  A    between atoms: C_17  and  C_18
REMARK    8  A    between atoms: C_22  and  C_23
REMARK                            x       y       z     vdW  Elec       q    Type
REMARK                         _______ _______ _______ _____ _____    ______ ____
ROOT
ATOM      1  C   UNL     1       4.383   5.084  16.875  0.00  0.00    +0.000 A 
ATOM      2  C   UNL     1       3.656   3.984  17.364  0.00  0.00    +0.000 A 
ATOM      3  C   UNL     1       2.531   4.161  18.170  0.00  0.00    +0.000 A 
ATOM      4  C   UNL     1       2.112   5.442  18.498  0.00  0.00    +0.000 A 
ATOM      5  C   UNL     1       2.818   6.560  18.031  0.00  0.00    +0.000 A 
ATOM      6  C   UNL     1       3.964   6.369  17.247  0.00  0.00    +0.000 A 
ENDROOT
BRANCH   5   7
ATOM      7  C   UNL     1       2.290   7.888  18.241  0.00  0.00    +0.000 A 
ATOM      8  C   UNL     1       1.506   8.432  19.222  0.00  0.00    +0.000 A 
ATOM      9  C   UNL     1       1.274   9.763  18.806  0.00  0.00    +0.000 A 
ATOM     10  N   UNL     1       1.877  10.004  17.632  0.00  0.00    +0.000 NA
ATOM     11  O   UNL     1       2.520   8.826  17.283  0.00  0.00    +0.000 OA
BRANCH   9  12
ATOM     12  C   UNL     1       0.493  10.769  19.512  0.00  0.00    +0.000 A 
ATOM     13  C   UNL     1       1.100  11.555  20.505  0.00  0.00    +0.000 A 
ATOM     14  C   UNL     1       0.371  12.522  21.189  0.00  0.00    +0.000 A 
ATOM     15  C   UNL     1      -0.978  12.712  20.891  0.00  0.00    +0.000 A 
ATOM     16  C   UNL     1      -1.596  11.931  19.908  0.00  0.00    +0.000 A 
ATOM     17  C   UNL     1      -0.862  10.961  19.219  0.00  0.00    +0.000 A 
BRANCH  16  18
ATOM     18  C   UNL     1      -2.983  12.124  19.609  0.00  0.00    +0.000 C 
ATOM     19  N   UNL     1      -4.111  12.276  19.357  0.00  0.00    +0.000 NA
ENDBRANCH  16  18
ENDBRANCH   9  12
ENDBRANCH   5   7
BRANCH   1  21
ATOM     20  C   UNL     1       5.365   3.808  14.903  0.00  0.00    +0.000 C 
ATOM     21  C   UNL     1       5.568   4.941  15.913  0.00  0.00    +0.000 C 
BRANCH  21  22
ATOM     22  S   UNL     1       7.108   4.735  16.897  0.00  0.00    +0.000 S 
BRANCH  22  23
ATOM     23  C   UNL     1       7.485   6.329  17.439  0.00  0.00    +0.000 A 
ATOM     24  N   UNL     1       7.427   7.450  16.760  0.00  0.00    +0.000 NA
ATOM     25  N   UNL     1       7.979   8.445  17.538  0.00  0.00    +0.000 NA
ATOM     26  C   UNL     1       8.320   7.904  18.685  0.00  0.00    +0.000 A 
ATOM     27  N   UNL     1       7.978   6.584  18.687  0.00  0.00    +0.000 N 
ATOM     28  C   UNL     1       8.108   5.681  19.797  0.00  0.00    +0.000 C 
ENDBRANCH  22  23
ENDBRANCH  21  22
ENDBRANCH   1  21
TORSDOF 6
ENDMDL
