MODEL 1
REMARK VINA RESULT:      -8.1      0.000      0.000
REMARK  Name = 
REMARK  7 active torsions:
REMARK  status: ('A' for Active; 'I' for Inactive)
REMARK    1  A    between atoms: C_1  and  C_2
REMARK    2  A    between atoms: C_2  and  C_3
REMARK    3  A    between atoms: C_2  and  C_10
REMARK    4  A    between atoms: C_3  and  C_4
REMARK    5  A    between atoms: N_8  and  C_9
REMARK    6  A    between atoms: C_14  and  N_15
REMARK    7  A    between atoms: C_16  and  C_18
REMARK                            x       y       z     vdW  Elec       q    Type
REMARK                         _______ _______ _______ _____ _____    ______ ____
ROOT
ATOM      1  C   UNL     1       4.209   5.706  17.251  0.00  0.00    +0.000 A 
ATOM      2  C   UNL     1       3.693   4.431  17.521  0.00  0.00    +0.000 A 
ATOM      3  C   UNL     1       2.625   4.258  18.398  0.00  0.00    +0.000 A 
ATOM      4  C   UNL     1       2.065   5.355  19.047  0.00  0.00    +0.000 A 
ATOM      5  C   UNL     1       2.565   6.637  18.827  0.00  0.00    +0.000 A 
ATOM      6  C   UNL     1       3.622   6.806  17.915  0.00  0.00    +0.000 A 
ENDROOT
BRANCH   5   7
ATOM      7  N   UNL     1       2.048   7.785  19.467  0.00  0.00    +0.000 N 
ATOM      8  C   UNL     1       1.489   8.893  18.863  0.00  0.00    +0.000 C 
ATOM      9  O   UNL     1       1.294   9.031  17.656  0.00  0.00    +0.000 OA
ATOM     10  H   UNL     1       2.067   7.775  20.490  0.00  0.00    +0.000 HD
BRANCH   8  11
ATOM     11  C   UNL     1       1.068   9.986  19.791  0.00  0.00    +0.000 A 
ATOM     12  C   UNL     1       1.331  11.247  19.396  0.00  0.00    +0.000 A 
ATOM     13  C   UNL     1       0.903  12.322  20.325  0.00  0.00    +0.000 A 
ATOM     14  N   UNL     1       0.300  12.154  21.462  0.00  0.00    +0.000 NA
ATOM     15  C   UNL     1       0.048  10.859  21.816  0.00  0.00    +0.000 A 
ATOM     16  C   UNL     1      -0.577  10.324  22.918  0.00  0.00    +0.000 A 
ATOM     17  C   UNL     1      -0.526   8.937  22.731  0.00  0.00    +0.000 A 
ATOM     18  N   UNL     1       0.075   8.587  21.593  0.00  0.00    +0.000 NA
ATOM     19  N   UNL     1       0.428   9.775  21.014  0.00  0.00    +0.000 N 
ENDBRANCH   8  11
ENDBRANCH   5   7
BRANCH   1  21
ATOM     20  C   UNL     1       5.041   7.010  15.197  0.00  0.00    +0.000 C 
ATOM     21  C   UNL     1       5.355   5.937  16.260  0.00  0.00    +0.000 C 
BRANCH  21  22
ATOM     22  C   UNL     1       5.775   4.605  15.594  0.00  0.00    +0.000 C 
BRANCH  22  23
ATOM     23  C   UNL     1       6.719   4.799  14.454  0.00  0.00    +0.000 A 
ATOM     24  N   UNL     1       7.821   5.522  14.464  0.00  0.00    +0.000 NA
ATOM     25  N   UNL     1       8.375   5.479  13.205  0.00  0.00    +0.000 NA
ATOM     26  C   UNL     1       7.606   4.725  12.458  0.00  0.00    +0.000 A 
ATOM     27  N   UNL     1       6.558   4.273  13.197  0.00  0.00    +0.000 N 
ATOM     28  C   UNL     1       5.497   3.421  12.735  0.00  0.00    +0.000 C 
ENDBRANCH  22  23
ENDBRANCH  21  22
ENDBRANCH   1  21
TORSDOF 5
ENDMDL
MODEL 2
REMARK VINA RESULT:      -7.9      1.241      1.809
REMARK  Name = 
REMARK  7 active torsions:
REMARK  status: ('A' for Active; 'I' for Inactive)
REMARK    1  A    between atoms: C_1  and  C_2
REMARK    2  A    between atoms: C_2  and  C_3
REMARK    3  A    between atoms: C_2  and  C_10
REMARK    4  A    between atoms: C_3  and  C_4
REMARK    5  A    between atoms: N_8  and  C_9
REMARK    6  A    between atoms: C_14  and  N_15
REMARK    7  A    between atoms: C_16  and  C_18
REMARK                            x       y       z     vdW  Elec       q    Type
REMARK                         _______ _______ _______ _____ _____    ______ ____
ROOT
ATOM      1  C   UNL     1       4.545   5.023  17.649  0.00  0.00    +0.000 A 
ATOM      2  C   UNL     1       4.425   3.678  18.025  0.00  0.00    +0.000 A 
ATOM      3  C   UNL     1       3.544   3.288  19.030  0.00  0.00    +0.000 A 
ATOM      4  C   UNL     1       2.780   4.239  19.701  0.00  0.00    +0.000 A 
ATOM      5  C   UNL     1       2.889   5.590  19.377  0.00  0.00    +0.000 A 
ATOM      6  C   UNL     1       3.757   5.971  18.338  0.00  0.00    +0.000 A 
ENDROOT
BRANCH   5   7
ATOM      7  N   UNL     1       2.151   6.600  20.032  0.00  0.00    +0.000 N 
ATOM      8  C   UNL     1       1.946   7.895  19.599  0.00  0.00    +0.000 C 
ATOM      9  O   UNL     1       2.329   8.362  18.527  0.00  0.00    +0.000 OA
ATOM     10  H   UNL     1       1.699   6.329  20.909  0.00  0.00    +0.000 HD
BRANCH   8  11
ATOM     11  C   UNL     1       1.162   8.766  20.525  0.00  0.00    +0.000 A 
ATOM     12  C   UNL     1       1.357   8.574  21.844  0.00  0.00    +0.000 A 
ATOM     13  C   UNL     1       0.576   9.450  22.752  0.00  0.00    +0.000 A 
ATOM     14  N   UNL     1      -0.260  10.374  22.389  0.00  0.00    +0.000 NA
ATOM     15  C   UNL     1      -0.420  10.536  21.042  0.00  0.00    +0.000 A 
ATOM     16  C   UNL     1      -1.191  11.415  20.319  0.00  0.00    +0.000 A 
ATOM     17  C   UNL     1      -0.948  11.097  18.977  0.00  0.00    +0.000 A 
ATOM     18  N   UNL     1      -0.078  10.097  18.828  0.00  0.00    +0.000 NA
ATOM     19  N   UNL     1       0.261   9.747  20.106  0.00  0.00    +0.000 N 
ENDBRANCH   8  11
ENDBRANCH   5   7
BRANCH   1  21
ATOM     20  C   UNL     1       4.943   6.706  15.745  0.00  0.00    +0.000 C 
ATOM     21  C   UNL     1       5.474   5.481  16.519  0.00  0.00    +0.000 C 
BRANCH  21  22
ATOM     22  C   UNL     1       5.781   4.309  15.557  0.00  0.00    +0.000 C 
BRANCH  22  23
ATOM     23  C   UNL     1       6.744   4.681  14.479  0.00  0.00    +0.000 A 
ATOM     24  N   UNL     1       7.781   5.486  14.598  0.00  0.00    +0.000 NA
ATOM     25  N   UNL     1       8.381   5.601  13.366  0.00  0.00    +0.000 NA
ATOM     26  C   UNL     1       7.704   4.857  12.523  0.00  0.00    +0.000 A 
ATOM     27  N   UNL     1       6.673   4.257  13.176  0.00  0.00    +0.000 N 
ATOM     28  C   UNL     1       5.704   3.368  12.596  0.00  0.00    +0.000 C 
ENDBRANCH  22  23
ENDBRANCH  21  22
ENDBRANCH   1  21
TORSDOF 5
ENDMDL
MODEL 3
REMARK VINA RESULT:      -7.8      2.164      3.325
REMARK  Name = 
REMARK  7 active torsions:
REMARK  status: ('A' for Active; 'I' for Inactive)
REMARK    1  A    between atoms: C_1  and  C_2
REMARK    2  A    between atoms: C_2  and  C_3
REMARK    3  A    between atoms: C_2  and  C_10
REMARK    4  A    between atoms: C_3  and  C_4
REMARK    5  A    between atoms: N_8  and  C_9
REMARK    6  A    between atoms: C_14  and  N_15
REMARK    7  A    between atoms: C_16  and  C_18
REMARK                            x       y       z     vdW  Elec       q    Type
REMARK                         _______ _______ _______ _____ _____    ______ ____
ROOT
ATOM      1  C   UNL     1       4.610   5.093  16.715  0.00  0.00    +0.000 A 
ATOM      2  C   UNL     1       4.159   3.769  16.817  0.00  0.00    +0.000 A 
ATOM      3  C   UNL     1       3.138   3.424  17.699  0.00  0.00    +0.000 A 
ATOM      4  C   UNL     1       2.562   4.389  18.519  0.00  0.00    +0.000 A 
ATOM      5  C   UNL     1       2.998   5.712  18.468  0.00  0.00    +0.000 A 
ATOM      6  C   UNL     1       4.007   6.059  17.552  0.00  0.00    +0.000 A 
ENDROOT
BRANCH   5   7
ATOM      7  N   UNL     1       2.462   6.731  19.285  0.00  0.00    +0.000 N 
ATOM      8  C   UNL     1       1.921   7.931  18.870  0.00  0.00    +0.000 C 
ATOM      9  O   UNL     1       1.762   8.281  17.702  0.00  0.00    +0.000 OA
ATOM     10  H   UNL     1       2.451   6.541  20.290  0.00  0.00    +0.000 HD
BRANCH   8  11
ATOM     11  C   UNL     1       1.472   8.846  19.964  0.00  0.00    +0.000 A 
ATOM     12  C   UNL     1       1.338   8.302  21.189  0.00  0.00    +0.000 A 
ATOM     13  C   UNL     1       0.898   9.223  22.265  0.00  0.00    +0.000 A 
ATOM     14  N   UNL     1       0.643  10.488  22.130  0.00  0.00    +0.000 NA
ATOM     15  C   UNL     1       0.799  10.996  20.872  0.00  0.00    +0.000 A 
ATOM     16  C   UNL     1       0.639  12.270  20.381  0.00  0.00    +0.000 A 
ATOM     17  C   UNL     1       0.931  12.176  19.015  0.00  0.00    +0.000 A 
ATOM     18  N   UNL     1       1.267  10.942  18.638  0.00  0.00    +0.000 NA
ATOM     19  N   UNL     1       1.195  10.203  19.787  0.00  0.00    +0.000 N 
ENDBRANCH   8  11
ENDBRANCH   5   7
BRANCH   1  21
ATOM     20  C   UNL     1       5.371   5.167  14.260  0.00  0.00    +0.000 C 
ATOM     21  C   UNL     1       5.701   5.516  15.726  0.00  0.00    +0.000 C 
BRANCH  21  22
ATOM     22  C   UNL     1       7.070   4.926  16.141  0.00  0.00    +0.000 C 
BRANCH  22  23
ATOM     23  C   UNL     1       7.456   5.281  17.539  0.00  0.00    +0.000 A 
ATOM     24  N   UNL     1       7.620   4.443  18.542  0.00  0.00    +0.000 NA
ATOM     25  N   UNL     1       7.926   5.173  19.667  0.00  0.00    +0.000 NA
ATOM     26  C   UNL     1       7.951   6.439  19.325  0.00  0.00    +0.000 A 
ATOM     27  N   UNL     1       7.667   6.555  18.000  0.00  0.00    +0.000 N 
ATOM     28  C   UNL     1       7.597   7.780  17.251  0.00  0.00    +0.000 C 
ENDBRANCH  22  23
ENDBRANCH  21  22
ENDBRANCH   1  21
TORSDOF 5
ENDMDL
MODEL 4
REMARK VINA RESULT:      -7.8      3.436      8.866
REMARK  Name = 
REMARK  7 active torsions:
REMARK  status: ('A' for Active; 'I' for Inactive)
REMARK    1  A    between atoms: C_1  and  C_2
REMARK    2  A    between atoms: C_2  and  C_3
REMARK    3  A    between atoms: C_2  and  C_10
REMARK    4  A    between atoms: C_3  and  C_4
REMARK    5  A    between atoms: N_8  and  C_9
REMARK    6  A    between atoms: C_14  and  N_15
REMARK    7  A    between atoms: C_16  and  C_18
REMARK                            x       y       z     vdW  Elec       q    Type
REMARK                         _______ _______ _______ _____ _____    ______ ____
ROOT
ATOM      1  C   UNL     1       0.225  10.186  19.993  0.00  0.00    +0.000 A 
ATOM      2  C   UNL     1      -0.111  10.431  21.332  0.00  0.00    +0.000 A 
ATOM      3  C   UNL     1       0.361   9.609  22.352  0.00  0.00    +0.000 A 
ATOM      4  C   UNL     1       1.157   8.507  22.055  0.00  0.00    +0.000 A 
ATOM      5  C   UNL     1       1.493   8.213  20.735  0.00  0.00    +0.000 A 
ATOM      6  C   UNL     1       1.040   9.067  19.714  0.00  0.00    +0.000 A 
ENDROOT
BRANCH   5   7
ATOM      7  N   UNL     1       2.285   7.102  20.371  0.00  0.00    +0.000 N 
ATOM      8  C   UNL     1       1.901   5.777  20.353  0.00  0.00    +0.000 C 
ATOM      9  O   UNL     1       0.772   5.353  20.596  0.00  0.00    +0.000 OA
ATOM     10  H   UNL     1       3.238   7.312  20.063  0.00  0.00    +0.000 HD
BRANCH   8  11
ATOM     11  C   UNL     1       2.969   4.803  19.972  0.00  0.00    +0.000 A 
ATOM     12  C   UNL     1       2.903   3.582  20.537  0.00  0.00    +0.000 A 
ATOM     13  C   UNL     1       3.967   2.626  20.144  0.00  0.00    +0.000 A 
ATOM     14  N   UNL     1       4.935   2.859  19.312  0.00  0.00    +0.000 NA
ATOM     15  C   UNL     1       4.957   4.108  18.760  0.00  0.00    +0.000 A 
ATOM     16  C   UNL     1       5.808   4.681  17.845  0.00  0.00    +0.000 A 
ATOM     17  C   UNL     1       5.334   5.987  17.672  0.00  0.00    +0.000 A 
ATOM     18  N   UNL     1       4.252   6.250  18.406  0.00  0.00    +0.000 NA
ATOM     19  N   UNL     1       4.006   5.086  19.080  0.00  0.00    +0.000 N 
ENDBRANCH   8  11
ENDBRANCH   5   7
BRANCH   1  21
ATOM     20  C   UNL     1       0.611  12.370  18.692  0.00  0.00    +0.000 C 
ATOM     21  C   UNL     1      -0.241  11.094  18.849  0.00  0.00    +0.000 C 
BRANCH  21  22
ATOM     22  C   UNL     1      -1.739  11.446  19.009  0.00  0.00    +0.000 C 
BRANCH  22  23
ATOM     23  C   UNL     1      -2.533  11.179  17.774  0.00  0.00    +0.000 A 
ATOM     24  N   UNL     1      -2.079  10.669  16.646  0.00  0.00    +0.000 NA
ATOM     25  N   UNL     1      -3.116  10.629  15.744  0.00  0.00    +0.000 NA
ATOM     26  C   UNL     1      -4.182  11.108  16.340  0.00  0.00    +0.000 A 
ATOM     27  N   UNL     1      -3.866  11.460  17.615  0.00  0.00    +0.000 N 
ATOM     28  C   UNL     1      -4.763  12.025  18.587  0.00  0.00    +0.000 C 
ENDBRANCH  22  23
ENDBRANCH  21  22
ENDBRANCH   1  21
TORSDOF 5
ENDMDL
MODEL 5
REMARK VINA RESULT:      -7.8      1.866      2.566
REMARK  Name = 
REMARK  7 active torsions:
REMARK  status: ('A' for Active; 'I' for Inactive)
REMARK    1  A    between atoms: C_1  and  C_2
REMARK    2  A    between atoms: C_2  and  C_3
REMARK    3  A    between atoms: C_2  and  C_10
REMARK    4  A    between atoms: C_3  and  C_4
REMARK    5  A    between atoms: N_8  and  C_9
REMARK    6  A    between atoms: C_14  and  N_15
REMARK    7  A    between atoms: C_16  and  C_18
REMARK                            x       y       z     vdW  Elec       q    Type
REMARK                         _______ _______ _______ _____ _____    ______ ____
ROOT
ATOM      1  C   UNL     1       5.044   4.708  19.165  0.00  0.00    +0.000 A 
ATOM      2  C   UNL     1       4.611   3.385  19.331  0.00  0.00    +0.000 A 
ATOM      3  C   UNL     1       3.360   3.100  19.874  0.00  0.00    +0.000 A 
ATOM      4  C   UNL     1       2.524   4.133  20.290  0.00  0.00    +0.000 A 
ATOM      5  C   UNL     1       2.927   5.461  20.168  0.00  0.00    +0.000 A 
ATOM      6  C   UNL     1       4.177   5.740  19.588  0.00  0.00    +0.000 A 
ENDROOT
BRANCH   5   7
ATOM      7  N   UNL     1       2.129   6.548  20.584  0.00  0.00    +0.000 N 
ATOM      8  C   UNL     1       1.907   7.727  19.902  0.00  0.00    +0.000 C 
ATOM      9  O   UNL     1       2.328   7.995  18.777  0.00  0.00    +0.000 OA
ATOM     10  H   UNL     1       1.642   6.432  21.477  0.00  0.00    +0.000 HD
BRANCH   8  11
ATOM     11  C   UNL     1       1.052   8.729  20.609  0.00  0.00    +0.000 A 
ATOM     12  C   UNL     1       1.043   8.670  21.955  0.00  0.00    +0.000 A 
ATOM     13  C   UNL     1       0.194   9.674  22.643  0.00  0.00    +0.000 A 
ATOM     14  N   UNL     1      -0.521  10.592  22.070  0.00  0.00    +0.000 NA
ATOM     15  C   UNL     1      -0.474  10.616  20.704  0.00  0.00    +0.000 A 
ATOM     16  C   UNL     1      -1.077  11.447  19.790  0.00  0.00    +0.000 A 
ATOM     17  C   UNL     1      -0.663  10.977  18.538  0.00  0.00    +0.000 A 
ATOM     18  N   UNL     1       0.155   9.927  18.621  0.00  0.00    +0.000 NA
ATOM     19  N   UNL     1       0.284   9.701  19.964  0.00  0.00    +0.000 N 
ENDBRANCH   8  11
ENDBRANCH   5   7
BRANCH   1  21
ATOM     20  C   UNL     1       7.438   5.564  19.551  0.00  0.00    +0.000 C 
ATOM     21  C   UNL     1       6.395   5.057  18.533  0.00  0.00    +0.000 C 
BRANCH  21  22
ATOM     22  C   UNL     1       6.210   6.072  17.379  0.00  0.00    +0.000 C 
BRANCH  22  23
ATOM     23  C   UNL     1       6.546   5.498  16.043  0.00  0.00    +0.000 A 
ATOM     24  N   UNL     1       7.614   5.769  15.320  0.00  0.00    +0.000 NA
ATOM     25  N   UNL     1       7.522   5.071  14.138  0.00  0.00    +0.000 NA
ATOM     26  C   UNL     1       6.406   4.384  14.168  0.00  0.00    +0.000 A 
ATOM     27  N   UNL     1       5.762   4.615  15.343  0.00  0.00    +0.000 N 
ATOM     28  C   UNL     1       4.507   4.046  15.751  0.00  0.00    +0.000 C 
ENDBRANCH  22  23
ENDBRANCH  21  22
ENDBRANCH   1  21
TORSDOF 5
ENDMDL
MODEL 6
REMARK VINA RESULT:      -7.8      2.278      3.460
REMARK  Name = 
REMARK  7 active torsions:
REMARK  status: ('A' for Active; 'I' for Inactive)
REMARK    1  A    between atoms: C_1  and  C_2
REMARK    2  A    between atoms: C_2  and  C_3
REMARK    3  A    between atoms: C_2  and  C_10
REMARK    4  A    between atoms: C_3  and  C_4
REMARK    5  A    between atoms: N_8  and  C_9
REMARK    6  A    between atoms: C_14  and  N_15
REMARK    7  A    between atoms: C_16  and  C_18
REMARK                            x       y       z     vdW  Elec       q    Type
REMARK                         _______ _______ _______ _____ _____    ______ ____
ROOT
ATOM      1  C   UNL     1       4.724   4.973  16.869  0.00  0.00    +0.000 A 
ATOM      2  C   UNL     1       4.406   3.670  17.278  0.00  0.00    +0.000 A 
ATOM      3  C   UNL     1       3.506   3.442  18.316  0.00  0.00    +0.000 A 
ATOM      4  C   UNL     1       2.921   4.513  18.986  0.00  0.00    +0.000 A 
ATOM      5  C   UNL     1       3.230   5.824  18.629  0.00  0.00    +0.000 A 
ATOM      6  C   UNL     1       4.115   6.045  17.559  0.00  0.00    +0.000 A 
ENDROOT
BRANCH   5   7
ATOM      7  N   UNL     1       2.680   6.949  19.281  0.00  0.00    +0.000 N 
ATOM      8  C   UNL     1       1.750   6.947  20.301  0.00  0.00    +0.000 C 
ATOM      9  O   UNL     1       1.293   5.947  20.853  0.00  0.00    +0.000 OA
ATOM     10  H   UNL     1       3.033   7.860  18.979  0.00  0.00    +0.000 HD
BRANCH   8  11
ATOM     11  C   UNL     1       1.307   8.295  20.769  0.00  0.00    +0.000 A 
ATOM     12  C   UNL     1       0.962   8.400  22.067  0.00  0.00    +0.000 A 
ATOM     13  C   UNL     1       0.530   9.746  22.518  0.00  0.00    +0.000 A 
ATOM     14  N   UNL     1       0.464  10.813  21.784  0.00  0.00    +0.000 NA
ATOM     15  C   UNL     1       0.830  10.660  20.476  0.00  0.00    +0.000 A 
ATOM     16  C   UNL     1       0.901  11.562  19.442  0.00  0.00    +0.000 A 
ATOM     17  C   UNL     1       1.332  10.818  18.336  0.00  0.00    +0.000 A 
ATOM     18  N   UNL     1       1.539   9.532  18.623  0.00  0.00    +0.000 NA
ATOM     19  N   UNL     1       1.237   9.426  19.953  0.00  0.00    +0.000 N 
ENDBRANCH   8  11
ENDBRANCH   5   7
BRANCH   1  21
ATOM     20  C   UNL     1       5.253   4.588  14.382  0.00  0.00    +0.000 C 
ATOM     21  C   UNL     1       5.678   5.260  15.704  0.00  0.00    +0.000 C 
BRANCH  21  22
ATOM     22  C   UNL     1       7.128   4.873  16.080  0.00  0.00    +0.000 C 
BRANCH  22  23
ATOM     23  C   UNL     1       7.491   5.265  17.474  0.00  0.00    +0.000 A 
ATOM     24  N   UNL     1       7.703   4.450  18.487  0.00  0.00    +0.000 NA
ATOM     25  N   UNL     1       7.965   5.210  19.604  0.00  0.00    +0.000 NA
ATOM     26  C   UNL     1       7.915   6.471  19.247  0.00  0.00    +0.000 A 
ATOM     27  N   UNL     1       7.626   6.555  17.921  0.00  0.00    +0.000 N 
ATOM     28  C   UNL     1       7.485   7.765  17.158  0.00  0.00    +0.000 C 
ENDBRANCH  22  23
ENDBRANCH  21  22
ENDBRANCH   1  21
TORSDOF 5
ENDMDL
MODEL 7
REMARK VINA RESULT:      -7.8      3.480      8.555
REMARK  Name = 
REMARK  7 active torsions:
REMARK  status: ('A' for Active; 'I' for Inactive)
REMARK    1  A    between atoms: C_1  and  C_2
REMARK    2  A    between atoms: C_2  and  C_3
REMARK    3  A    between atoms: C_2  and  C_10
REMARK    4  A    between atoms: C_3  and  C_4
REMARK    5  A    between atoms: N_8  and  C_9
REMARK    6  A    between atoms: C_14  and  N_15
REMARK    7  A    between atoms: C_16  and  C_18
REMARK                            x       y       z     vdW  Elec       q    Type
REMARK                         _______ _______ _______ _____ _____    ______ ____
ROOT
ATOM      1  C   UNL     1      -0.258  10.316  19.553  0.00  0.00    +0.000 A 
ATOM      2  C   UNL     1      -0.273  10.508  20.942  0.00  0.00    +0.000 A 
ATOM      3  C   UNL     1       0.533   9.743  21.782  0.00  0.00    +0.000 A 
ATOM      4  C   UNL     1       1.353   8.750  21.254  0.00  0.00    +0.000 A 
ATOM      5  C   UNL     1       1.378   8.509  19.882  0.00  0.00    +0.000 A 
ATOM      6  C   UNL     1       0.586   9.307  19.038  0.00  0.00    +0.000 A 
ENDROOT
BRANCH   5   7
ATOM      7  N   UNL     1       2.178   7.507  19.291  0.00  0.00    +0.000 N 
ATOM      8  C   UNL     1       2.839   7.575  18.081  0.00  0.00    +0.000 C 
ATOM      9  O   UNL     1       2.884   8.558  17.343  0.00  0.00    +0.000 OA
ATOM     10  H   UNL     1       2.301   6.650  19.838  0.00  0.00    +0.000 HD
BRANCH   8  11
ATOM     11  C   UNL     1       3.575   6.338  17.681  0.00  0.00    +0.000 A 
ATOM     12  C   UNL     1       4.834   6.504  17.232  0.00  0.00    +0.000 A 
ATOM     13  C   UNL     1       5.555   5.266  16.843  0.00  0.00    +0.000 A 
ATOM     14  N   UNL     1       5.086   4.058  16.905  0.00  0.00    +0.000 NA
ATOM     15  C   UNL     1       3.807   3.939  17.372  0.00  0.00    +0.000 A 
ATOM     16  C   UNL     1       3.018   2.834  17.584  0.00  0.00    +0.000 A 
ATOM     17  C   UNL     1       1.803   3.339  18.064  0.00  0.00    +0.000 A 
ATOM     18  N   UNL     1       1.796   4.668  18.169  0.00  0.00    +0.000 NA
ATOM     19  N   UNL     1       3.041   5.050  17.749  0.00  0.00    +0.000 N 
ENDBRANCH   8  11
ENDBRANCH   5   7
BRANCH   1  21
ATOM     20  C   UNL     1      -1.236  12.639  19.042  0.00  0.00    +0.000 C 
ATOM     21  C   UNL     1      -1.100  11.168  18.597  0.00  0.00    +0.000 C 
BRANCH  21  22
ATOM     22  C   UNL     1      -2.490  10.526  18.376  0.00  0.00    +0.000 C 
BRANCH  22  23
ATOM     23  C   UNL     1      -2.859  10.423  16.933  0.00  0.00    +0.000 A 
ATOM     24  N   UNL     1      -2.207   9.752  16.004  0.00  0.00    +0.000 NA
ATOM     25  N   UNL     1      -2.846   9.951  14.802  0.00  0.00    +0.000 NA
ATOM     26  C   UNL     1      -3.876  10.731  15.023  0.00  0.00    +0.000 A 
ATOM     27  N   UNL     1      -3.928  11.048  16.345  0.00  0.00    +0.000 N 
ATOM     28  C   UNL     1      -4.911  11.884  16.979  0.00  0.00    +0.000 C 
ENDBRANCH  22  23
ENDBRANCH  21  22
ENDBRANCH   1  21
TORSDOF 5
ENDMDL
MODEL 8
REMARK VINA RESULT:      -7.8      1.965      2.786
REMARK  Name = 
REMARK  7 active torsions:
REMARK  status: ('A' for Active; 'I' for Inactive)
REMARK    1  A    between atoms: C_1  and  C_2
REMARK    2  A    between atoms: C_2  and  C_3
REMARK    3  A    between atoms: C_2  and  C_10
REMARK    4  A    between atoms: C_3  and  C_4
REMARK    5  A    between atoms: N_8  and  C_9
REMARK    6  A    between atoms: C_14  and  N_15
REMARK    7  A    between atoms: C_16  and  C_18
REMARK                            x       y       z     vdW  Elec       q    Type
REMARK                         _______ _______ _______ _____ _____    ______ ____
ROOT
ATOM      1  C   UNL     1       4.456   5.656  16.918  0.00  0.00    +0.000 A 
ATOM      2  C   UNL     1       3.944   4.383  17.203  0.00  0.00    +0.000 A 
ATOM      3  C   UNL     1       2.867   4.219  18.071  0.00  0.00    +0.000 A 
ATOM      4  C   UNL     1       2.294   5.323  18.695  0.00  0.00    +0.000 A 
ATOM      5  C   UNL     1       2.789   6.604  18.460  0.00  0.00    +0.000 A 
ATOM      6  C   UNL     1       3.856   6.764  17.558  0.00  0.00    +0.000 A 
ENDROOT
BRANCH   5   7
ATOM      7  N   UNL     1       2.258   7.759  19.075  0.00  0.00    +0.000 N 
ATOM      8  C   UNL     1       1.717   8.862  18.446  0.00  0.00    +0.000 C 
ATOM      9  O   UNL     1       1.553   8.988  17.233  0.00  0.00    +0.000 OA
ATOM     10  H   UNL     1       2.252   7.760  20.098  0.00  0.00    +0.000 HD
BRANCH   8  11
ATOM     11  C   UNL     1       1.275   9.965  19.351  0.00  0.00    +0.000 A 
ATOM     12  C   UNL     1       1.491  11.223  18.920  0.00  0.00    +0.000 A 
ATOM     13  C   UNL     1       1.043  12.308  19.827  0.00  0.00    +0.000 A 
ATOM     14  N   UNL     1       0.463  12.151  20.977  0.00  0.00    +0.000 NA
ATOM     15  C   UNL     1       0.259  10.858  21.370  0.00  0.00    +0.000 A 
ATOM     16  C   UNL     1      -0.331  10.333  22.495  0.00  0.00    +0.000 A 
ATOM     17  C   UNL     1      -0.238   8.944  22.343  0.00  0.00    +0.000 A 
ATOM     18  N   UNL     1       0.356   8.583  21.205  0.00  0.00    +0.000 NA
ATOM     19  N   UNL     1       0.662   9.766  20.590  0.00  0.00    +0.000 N 
ENDBRANCH   8  11
ENDBRANCH   5   7
BRANCH   1  21
ATOM     20  C   UNL     1       5.221   5.639  14.463  0.00  0.00    +0.000 C 
ATOM     21  C   UNL     1       5.612   5.877  15.936  0.00  0.00    +0.000 C 
BRANCH  21  22
ATOM     22  C   UNL     1       6.834   5.014  16.331  0.00  0.00    +0.000 C 
BRANCH  22  23
ATOM     23  C   UNL     1       7.368   5.349  17.684  0.00  0.00    +0.000 A 
ATOM     24  N   UNL     1       7.561   4.507  18.680  0.00  0.00    +0.000 NA
ATOM     25  N   UNL     1       8.019   5.220  19.763  0.00  0.00    +0.000 NA
ATOM     26  C   UNL     1       8.105   6.479  19.403  0.00  0.00    +0.000 A 
ATOM     27  N   UNL     1       7.712   6.607  18.108  0.00  0.00    +0.000 N 
ATOM     28  C   UNL     1       7.664   7.829  17.352  0.00  0.00    +0.000 C 
ENDBRANCH  22  23
ENDBRANCH  21  22
ENDBRANCH   1  21
TORSDOF 5
ENDMDL
MODEL 9
REMARK VINA RESULT:      -7.7      3.513      9.736
REMARK  Name = 
REMARK  7 active torsions:
REMARK  status: ('A' for Active; 'I' for Inactive)
REMARK    1  A    between atoms: C_1  and  C_2
REMARK    2  A    between atoms: C_2  and  C_3
REMARK    3  A    between atoms: C_2  and  C_10
REMARK    4  A    between atoms: C_3  and  C_4
REMARK    5  A    between atoms: N_8  and  C_9
REMARK    6  A    between atoms: C_14  and  N_15
REMARK    7  A    between atoms: C_16  and  C_18
REMARK                            x       y       z     vdW  Elec       q    Type
REMARK                         _______ _______ _______ _____ _____    ______ ____
ROOT
ATOM      1  C   UNL     1       0.800  10.219  20.527  0.00  0.00    +0.000 A 
ATOM      2  C   UNL     1       1.010  11.040  19.410  0.00  0.00    +0.000 A 
ATOM      3  C   UNL     1       1.536  10.524  18.228  0.00  0.00    +0.000 A 
ATOM      4  C   UNL     1       1.888   9.180  18.144  0.00  0.00    +0.000 A 
ATOM      5  C   UNL     1       1.720   8.336  19.240  0.00  0.00    +0.000 A 
ATOM      6  C   UNL     1       1.158   8.857  20.419  0.00  0.00    +0.000 A 
ENDROOT
BRANCH   5   7
ATOM      7  N   UNL     1       2.072   6.968  19.219  0.00  0.00    +0.000 N 
ATOM      8  C   UNL     1       3.100   6.385  18.505  0.00  0.00    +0.000 C 
ATOM      9  O   UNL     1       3.921   6.982  17.812  0.00  0.00    +0.000 OA
ATOM     10  H   UNL     1       1.519   6.353  19.821  0.00  0.00    +0.000 HD
BRANCH   8  11
ATOM     11  C   UNL     1       3.209   4.900  18.635  0.00  0.00    +0.000 A 
ATOM     12  C   UNL     1       3.700   4.236  17.571  0.00  0.00    +0.000 A 
ATOM     13  C   UNL     1       3.808   2.763  17.716  0.00  0.00    +0.000 A 
ATOM     14  N   UNL     1       3.483   2.074  18.766  0.00  0.00    +0.000 NA
ATOM     15  C   UNL     1       2.995   2.791  19.822  0.00  0.00    +0.000 A 
ATOM     16  C   UNL     1       2.581   2.398  21.072  0.00  0.00    +0.000 A 
ATOM     17  C   UNL     1       2.178   3.576  21.712  0.00  0.00    +0.000 A 
ATOM     18  N   UNL     1       2.327   4.660  20.949  0.00  0.00    +0.000 NA
ATOM     19  N   UNL     1       2.841   4.182  19.775  0.00  0.00    +0.000 N 
ENDBRANCH   8  11
ENDBRANCH   5   7
BRANCH   1  21
ATOM     20  C   UNL     1      -0.285   9.626  22.782  0.00  0.00    +0.000 C 
ATOM     21  C   UNL     1       0.184  10.745  21.829  0.00  0.00    +0.000 C 
BRANCH  21  22
ATOM     22  C   UNL     1      -0.967  11.734  21.527  0.00  0.00    +0.000 C 
BRANCH  22  23
ATOM     23  C   UNL     1      -0.975  12.911  22.444  0.00  0.00    +0.000 A 
ATOM     24  N   UNL     1      -0.037  13.832  22.545  0.00  0.00    +0.000 NA
ATOM     25  N   UNL     1      -0.404  14.714  23.535  0.00  0.00    +0.000 NA
ATOM     26  C   UNL     1      -1.561  14.318  24.011  0.00  0.00    +0.000 A 
ATOM     27  N   UNL     1      -1.960  13.196  23.355  0.00  0.00    +0.000 N 
ATOM     28  C   UNL     1      -3.173  12.461  23.591  0.00  0.00    +0.000 C 
ENDBRANCH  22  23
ENDBRANCH  21  22
ENDBRANCH   1  21
TORSDOF 5
ENDMDL
