MODEL 1
REMARK VINA RESULT:      -8.1      0.000      0.000
REMARK  Name = 
REMARK  10 active torsions:
REMARK  status: ('A' for Active; 'I' for Inactive)
REMARK    1  A    between atoms: C_1  and  O_2
REMARK    2  A    between atoms: O_2  and  C_3
REMARK    3  A    between atoms: C_5  and  C_6
REMARK    4  A    between atoms: N_8  and  C_9
REMARK    5  A    between atoms: C_13  and  C_14
REMARK    6  A    between atoms: C_14  and  C_15
REMARK    7  A    between atoms: C_14  and  S_16
REMARK    8  A    between atoms: S_16  and  C_17
REMARK    9  A    between atoms: N_21  and  C_22
REMARK   10  A    between atoms: C_25  and  C_26
REMARK                            x       y       z     vdW  Elec       q    Type
REMARK                         _______ _______ _______ _____ _____    ______ ____
ROOT
ATOM      1  C   UNL     1       1.872   8.419  18.408  0.00  0.00    +0.000 C 
ATOM      2  O   UNL     1       2.025   8.712  17.225  0.00  0.00    +0.000 OA
ATOM      3  N   UNL     1       2.060   7.170  18.987  0.00  0.00    +0.000 N 
ATOM      4  H   UNL     1       1.754   7.088  19.955  0.00  0.00    +0.000 HD
ENDROOT
BRANCH   1   7
ATOM      5  C   UNL     1       1.168  11.811  19.857  0.00  0.00    +0.000 A 
ATOM      6  C   UNL     1       1.584  10.824  18.978  0.00  0.00    +0.000 A 
ATOM      7  C   UNL     1       1.399   9.493  19.339  0.00  0.00    +0.000 A 
ATOM      8  N   UNL     1       0.831   9.094  20.509  0.00  0.00    +0.000 NA
ATOM      9  C   UNL     1       0.441  10.078  21.373  0.00  0.00    +0.000 A 
ATOM     10  C   UNL     1       0.591  11.434  21.068  0.00  0.00    +0.000 A 
BRANCH   9  11
ATOM     11  C   UNL     1      -0.171   9.701  22.715  0.00  0.00    +0.000 C 
ATOM     12  F   UNL     1      -0.961  10.674  23.252  0.00  0.00    +0.000 F 
ATOM     13  F   UNL     1      -0.954   8.587  22.638  0.00  0.00    +0.000 F 
ATOM     14  F   UNL     1       0.773   9.424  23.661  0.00  0.00    +0.000 F 
ENDBRANCH   9  11
BRANCH   5  16
ATOM     15  C   UNL     1       1.766  13.593  18.396  0.00  0.00    +0.000 C 
ATOM     16  O   UNL     1       1.268  13.160  19.659  0.00  0.00    +0.000 OA
ENDBRANCH   5  16
ENDBRANCH   1   7
BRANCH   3  17
ATOM     17  C   UNL     1       2.557   6.022  18.334  0.00  0.00    +0.000 A 
ATOM     18  C   UNL     1       1.967   4.769  18.489  0.00  0.00    +0.000 A 
ATOM     19  C   UNL     1       2.483   3.651  17.839  0.00  0.00    +0.000 A 
ATOM     20  C   UNL     1       3.612   3.769  17.039  0.00  0.00    +0.000 A 
ATOM     21  C   UNL     1       4.242   5.012  16.870  0.00  0.00    +0.000 A 
ATOM     22  C   UNL     1       3.681   6.145  17.502  0.00  0.00    +0.000 A 
BRANCH  21  23
ATOM     23  C   UNL     1       5.531   5.061  16.064  0.00  0.00    +0.000 C 
ATOM     24  C   UNL     1       5.485   4.058  14.906  0.00  0.00    +0.000 C 
BRANCH  23  25
ATOM     25  S   UNL     1       7.025   4.715  17.038  0.00  0.00    +0.000 S 
BRANCH  25  26
ATOM     26  C   UNL     1       7.555   6.294  17.478  0.00  0.00    +0.000 A 
ATOM     27  N   UNL     1       7.612   7.374  16.733  0.00  0.00    +0.000 NA
ATOM     28  N   UNL     1       8.094   8.398  17.525  0.00  0.00    +0.000 NA
ATOM     29  C   UNL     1       8.324   7.904  18.723  0.00  0.00    +0.000 A 
ATOM     30  N   UNL     1       8.013   6.579  18.732  0.00  0.00    +0.000 N 
ATOM     31  C   UNL     1       8.131   5.678  19.844  0.00  0.00    +0.000 C 
ENDBRANCH  25  26
ENDBRANCH  23  25
ENDBRANCH  21  23
ENDBRANCH   3  17
TORSDOF 7
ENDMDL
MODEL 2
REMARK VINA RESULT:      -8.0      4.584      8.874
REMARK  Name = 
REMARK  10 active torsions:
REMARK  status: ('A' for Active; 'I' for Inactive)
REMARK    1  A    between atoms: C_1  and  O_2
REMARK    2  A    between atoms: O_2  and  C_3
REMARK    3  A    between atoms: C_5  and  C_6
REMARK    4  A    between atoms: N_8  and  C_9
REMARK    5  A    between atoms: C_13  and  C_14
REMARK    6  A    between atoms: C_14  and  C_15
REMARK    7  A    between atoms: C_14  and  S_16
REMARK    8  A    between atoms: S_16  and  C_17
REMARK    9  A    between atoms: N_21  and  C_22
REMARK   10  A    between atoms: C_25  and  C_26
REMARK                            x       y       z     vdW  Elec       q    Type
REMARK                         _______ _______ _______ _____ _____    ______ ____
ROOT
ATOM      1  C   UNL     1       2.490   7.349  19.167  0.00  0.00    +0.000 C 
ATOM      2  O   UNL     1       2.648   8.169  18.266  0.00  0.00    +0.000 OA
ATOM      3  N   UNL     1       1.806   7.546  20.360  0.00  0.00    +0.000 N 
ATOM      4  H   UNL     1       1.897   6.796  21.043  0.00  0.00    +0.000 HD
ENDROOT
BRANCH   1   7
ATOM      5  C   UNL     1       5.011   4.673  18.405  0.00  0.00    +0.000 A 
ATOM      6  C   UNL     1       4.444   5.925  18.580  0.00  0.00    +0.000 A 
ATOM      7  C   UNL     1       3.121   6.001  19.004  0.00  0.00    +0.000 A 
ATOM      8  N   UNL     1       2.341   4.915  19.262  0.00  0.00    +0.000 NA
ATOM      9  C   UNL     1       2.909   3.688  19.069  0.00  0.00    +0.000 A 
ATOM     10  C   UNL     1       4.235   3.542  18.652  0.00  0.00    +0.000 A 
BRANCH   9  11
ATOM     11  C   UNL     1       2.083   2.432  19.307  0.00  0.00    +0.000 C 
ATOM     12  F   UNL     1       2.646   1.299  18.799  0.00  0.00    +0.000 F 
ATOM     13  F   UNL     1       1.878   2.183  20.633  0.00  0.00    +0.000 F 
ATOM     14  F   UNL     1       0.839   2.511  18.751  0.00  0.00    +0.000 F 
ENDBRANCH   9  11
BRANCH   5  16
ATOM     15  C   UNL     1       7.277   5.398  18.320  0.00  0.00    +0.000 C 
ATOM     16  O   UNL     1       6.292   4.418  18.002  0.00  0.00    +0.000 OA
ENDBRANCH   5  16
ENDBRANCH   1   7
BRANCH   3  17
ATOM     17  C   UNL     1       1.080   8.702  20.717  0.00  0.00    +0.000 A 
ATOM     18  C   UNL     1       0.742   8.985  22.039  0.00  0.00    +0.000 A 
ATOM     19  C   UNL     1       0.018  10.130  22.362  0.00  0.00    +0.000 A 
ATOM     20  C   UNL     1      -0.396  10.999  21.361  0.00  0.00    +0.000 A 
ATOM     21  C   UNL     1      -0.086  10.740  20.016  0.00  0.00    +0.000 A 
ATOM     22  C   UNL     1       0.686   9.596  19.709  0.00  0.00    +0.000 A 
BRANCH  21  23
ATOM     23  C   UNL     1      -0.650  11.673  18.956  0.00  0.00    +0.000 C 
ATOM     24  C   UNL     1      -0.165  13.109  19.184  0.00  0.00    +0.000 C 
BRANCH  23  25
ATOM     25  S   UNL     1      -2.465  11.706  18.891  0.00  0.00    +0.000 S 
BRANCH  25  26
ATOM     26  C   UNL     1      -2.792  11.060  17.327  0.00  0.00    +0.000 A 
ATOM     27  N   UNL     1      -2.002  10.350  16.555  0.00  0.00    +0.000 NA
ATOM     28  N   UNL     1      -2.705  10.055  15.403  0.00  0.00    +0.000 NA
ATOM     29  C   UNL     1      -3.896  10.603  15.510  0.00  0.00    +0.000 A 
ATOM     30  N   UNL     1      -3.987  11.260  16.699  0.00  0.00    +0.000 N 
ATOM     31  C   UNL     1      -5.120  11.994  17.189  0.00  0.00    +0.000 C 
ENDBRANCH  25  26
ENDBRANCH  23  25
ENDBRANCH  21  23
ENDBRANCH   3  17
TORSDOF 7
ENDMDL
MODEL 3
REMARK VINA RESULT:      -8.0      4.735      9.039
REMARK  Name = 
REMARK  10 active torsions:
REMARK  status: ('A' for Active; 'I' for Inactive)
REMARK    1  A    between atoms: C_1  and  O_2
REMARK    2  A    between atoms: O_2  and  C_3
REMARK    3  A    between atoms: C_5  and  C_6
REMARK    4  A    between atoms: N_8  and  C_9
REMARK    5  A    between atoms: C_13  and  C_14
REMARK    6  A    between atoms: C_14  and  C_15
REMARK    7  A    between atoms: C_14  and  S_16
REMARK    8  A    between atoms: S_16  and  C_17
REMARK    9  A    between atoms: N_21  and  C_22
REMARK   10  A    between atoms: C_25  and  C_26
REMARK                            x       y       z     vdW  Elec       q    Type
REMARK                         _______ _______ _______ _____ _____    ______ ____
ROOT
ATOM      1  C   UNL     1       2.630   7.149  19.136  0.00  0.00    +0.000 C 
ATOM      2  O   UNL     1       2.535   7.882  18.154  0.00  0.00    +0.000 OA
ATOM      3  N   UNL     1       2.138   7.400  20.411  0.00  0.00    +0.000 N 
ATOM      4  H   UNL     1       2.431   6.739  21.128  0.00  0.00    +0.000 HD
ENDROOT
BRANCH   1   7
ATOM      5  C   UNL     1       5.454   4.700  18.783  0.00  0.00    +0.000 A 
ATOM      6  C   UNL     1       4.770   5.892  18.957  0.00  0.00    +0.000 A 
ATOM      7  C   UNL     1       3.379   5.862  18.978  0.00  0.00    +0.000 A 
ATOM      8  N   UNL     1       2.640   4.727  18.840  0.00  0.00    +0.000 NA
ATOM      9  C   UNL     1       3.328   3.563  18.653  0.00  0.00    +0.000 A 
ATOM     10  C   UNL     1       4.725   3.522  18.628  0.00  0.00    +0.000 A 
BRANCH   9  11
ATOM     11  C   UNL     1       2.563   2.260  18.458  0.00  0.00    +0.000 C 
ATOM     12  F   UNL     1       1.410   2.186  19.182  0.00  0.00    +0.000 F 
ATOM     13  F   UNL     1       2.200   2.057  17.159  0.00  0.00    +0.000 F 
ATOM     14  F   UNL     1       3.296   1.165  18.811  0.00  0.00    +0.000 F 
ENDBRANCH   9  11
BRANCH   5  16
ATOM     15  C   UNL     1       7.598   5.645  19.205  0.00  0.00    +0.000 C 
ATOM     16  O   UNL     1       6.812   4.550  18.743  0.00  0.00    +0.000 OA
ENDBRANCH   5  16
ENDBRANCH   1   7
BRANCH   3  17
ATOM     17  C   UNL     1       1.352   8.508  20.792  0.00  0.00    +0.000 A 
ATOM     18  C   UNL     1       0.947   8.711  22.110  0.00  0.00    +0.000 A 
ATOM     19  C   UNL     1       0.165   9.809  22.457  0.00  0.00    +0.000 A 
ATOM     20  C   UNL     1      -0.242  10.711  21.482  0.00  0.00    +0.000 A 
ATOM     21  C   UNL     1       0.134  10.532  20.141  0.00  0.00    +0.000 A 
ATOM     22  C   UNL     1       0.965   9.436  19.813  0.00  0.00    +0.000 A 
BRANCH  21  23
ATOM     23  C   UNL     1      -0.423  11.495  19.104  0.00  0.00    +0.000 C 
ATOM     24  C   UNL     1       0.443  12.757  19.017  0.00  0.00    +0.000 C 
BRANCH  23  25
ATOM     25  S   UNL     1      -2.133  12.018  19.425  0.00  0.00    +0.000 S 
BRANCH  25  26
ATOM     26  C   UNL     1      -2.936  11.571  17.966  0.00  0.00    +0.000 A 
ATOM     27  N   UNL     1      -2.410  11.140  16.843  0.00  0.00    +0.000 NA
ATOM     28  N   UNL     1      -3.449  10.903  15.964  0.00  0.00    +0.000 NA
ATOM     29  C   UNL     1      -4.571  11.208  16.579  0.00  0.00    +0.000 A 
ATOM     30  N   UNL     1      -4.292  11.648  17.836  0.00  0.00    +0.000 N 
ATOM     31  C   UNL     1      -5.241  12.084  18.822  0.00  0.00    +0.000 C 
ENDBRANCH  25  26
ENDBRANCH  23  25
ENDBRANCH  21  23
ENDBRANCH   3  17
TORSDOF 7
ENDMDL
MODEL 4
REMARK VINA RESULT:      -7.9      4.610      8.924
REMARK  Name = 
REMARK  10 active torsions:
REMARK  status: ('A' for Active; 'I' for Inactive)
REMARK    1  A    between atoms: C_1  and  O_2
REMARK    2  A    between atoms: O_2  and  C_3
REMARK    3  A    between atoms: C_5  and  C_6
REMARK    4  A    between atoms: N_8  and  C_9
REMARK    5  A    between atoms: C_13  and  C_14
REMARK    6  A    between atoms: C_14  and  C_15
REMARK    7  A    between atoms: C_14  and  S_16
REMARK    8  A    between atoms: S_16  and  C_17
REMARK    9  A    between atoms: N_21  and  C_22
REMARK   10  A    between atoms: C_25  and  C_26
REMARK                            x       y       z     vdW  Elec       q    Type
REMARK                         _______ _______ _______ _____ _____    ______ ____
ROOT
ATOM      1  C   UNL     1       2.394   8.103  18.289  0.00  0.00    +0.000 C 
ATOM      2  O   UNL     1       2.255   9.031  17.497  0.00  0.00    +0.000 OA
ATOM      3  N   UNL     1       1.916   8.043  19.592  0.00  0.00    +0.000 N 
ATOM      4  H   UNL     1       2.246   7.250  20.141  0.00  0.00    +0.000 HD
ENDROOT
BRANCH   1   7
ATOM      5  C   UNL     1       5.037   6.012  16.633  0.00  0.00    +0.000 A 
ATOM      6  C   UNL     1       4.325   7.119  17.066  0.00  0.00    +0.000 A 
ATOM      7  C   UNL     1       3.188   6.914  17.841  0.00  0.00    +0.000 A 
ATOM      8  N   UNL     1       2.727   5.687  18.206  0.00  0.00    +0.000 NA
ATOM      9  C   UNL     1       3.430   4.606  17.759  0.00  0.00    +0.000 A 
ATOM     10  C   UNL     1       4.585   4.742  16.982  0.00  0.00    +0.000 A 
BRANCH   9  11
ATOM     11  C   UNL     1       2.951   3.202  18.102  0.00  0.00    +0.000 C 
ATOM     12  F   UNL     1       1.668   2.949  17.714  0.00  0.00    +0.000 F 
ATOM     13  F   UNL     1       3.713   2.231  17.520  0.00  0.00    +0.000 F 
ATOM     14  F   UNL     1       2.991   2.948  19.442  0.00  0.00    +0.000 F 
ENDBRANCH   9  11
BRANCH   5  16
ATOM     15  C   UNL     1       6.328   4.992  14.912  0.00  0.00    +0.000 C 
ATOM     16  O   UNL     1       6.174   6.033  15.873  0.00  0.00    +0.000 OA
ENDBRANCH   5  16
ENDBRANCH   1   7
BRANCH   3  17
ATOM     17  C   UNL     1       1.095   9.005  20.218  0.00  0.00    +0.000 A 
ATOM     18  C   UNL     1       0.798   8.952  21.579  0.00  0.00    +0.000 A 
ATOM     19  C   UNL     1      -0.021   9.912  22.169  0.00  0.00    +0.000 A 
ATOM     20  C   UNL     1      -0.572  10.927  21.398  0.00  0.00    +0.000 A 
ATOM     21  C   UNL     1      -0.307  11.005  20.022  0.00  0.00    +0.000 A 
ATOM     22  C   UNL     1       0.562  10.049  19.446  0.00  0.00    +0.000 A 
BRANCH  21  23
ATOM     23  C   UNL     1      -1.016  12.080  19.213  0.00  0.00    +0.000 C 
ATOM     24  C   UNL     1      -0.797  13.462  19.838  0.00  0.00    +0.000 C 
BRANCH  23  25
ATOM     25  S   UNL     1      -2.807  11.821  19.053  0.00  0.00    +0.000 S 
BRANCH  25  26
ATOM     26  C   UNL     1      -2.947  11.175  17.461  0.00  0.00    +0.000 A 
ATOM     27  N   UNL     1      -2.055  10.503  16.771  0.00  0.00    +0.000 NA
ATOM     28  N   UNL     1      -2.626  10.189  15.552  0.00  0.00    +0.000 NA
ATOM     29  C   UNL     1      -3.842  10.689  15.539  0.00  0.00    +0.000 A 
ATOM     30  N   UNL     1      -4.079  11.332  16.715  0.00  0.00    +0.000 N 
ATOM     31  C   UNL     1      -5.285  12.017  17.091  0.00  0.00    +0.000 C 
ENDBRANCH  25  26
ENDBRANCH  23  25
ENDBRANCH  21  23
ENDBRANCH   3  17
TORSDOF 7
ENDMDL
MODEL 5
REMARK VINA RESULT:      -7.9      5.100      9.448
REMARK  Name = 
REMARK  10 active torsions:
REMARK  status: ('A' for Active; 'I' for Inactive)
REMARK    1  A    between atoms: C_1  and  O_2
REMARK    2  A    between atoms: O_2  and  C_3
REMARK    3  A    between atoms: C_5  and  C_6
REMARK    4  A    between atoms: N_8  and  C_9
REMARK    5  A    between atoms: C_13  and  C_14
REMARK    6  A    between atoms: C_14  and  C_15
REMARK    7  A    between atoms: C_14  and  S_16
REMARK    8  A    between atoms: S_16  and  C_17
REMARK    9  A    between atoms: N_21  and  C_22
REMARK   10  A    between atoms: C_25  and  C_26
REMARK                            x       y       z     vdW  Elec       q    Type
REMARK                         _______ _______ _______ _____ _____    ______ ____
ROOT
ATOM      1  C   UNL     1       2.754   7.481  18.190  0.00  0.00    +0.000 C 
ATOM      2  O   UNL     1       2.670   8.403  17.382  0.00  0.00    +0.000 OA
ATOM      3  N   UNL     1       2.250   7.460  19.484  0.00  0.00    +0.000 N 
ATOM      4  H   UNL     1       2.535   6.663  20.050  0.00  0.00    +0.000 HD
ENDROOT
BRANCH   1   7
ATOM      5  C   UNL     1       3.566   3.890  17.454  0.00  0.00    +0.000 A 
ATOM      6  C   UNL     1       2.856   5.023  17.815  0.00  0.00    +0.000 A 
ATOM      7  C   UNL     1       3.504   6.253  17.773  0.00  0.00    +0.000 A 
ATOM      8  N   UNL     1       4.802   6.417  17.395  0.00  0.00    +0.000 NA
ATOM      9  C   UNL     1       5.493   5.289  17.058  0.00  0.00    +0.000 A 
ATOM     10  C   UNL     1       4.899   4.023  17.072  0.00  0.00    +0.000 A 
BRANCH   9  11
ATOM     11  C   UNL     1       6.959   5.396  16.658  0.00  0.00    +0.000 C 
ATOM     12  F   UNL     1       7.167   5.332  15.312  0.00  0.00    +0.000 F 
ATOM     13  F   UNL     1       7.528   6.567  17.067  0.00  0.00    +0.000 F 
ATOM     14  F   UNL     1       7.723   4.405  17.202  0.00  0.00    +0.000 F 
ENDBRANCH   9  11
BRANCH   5  16
ATOM     15  C   UNL     1       2.357   2.175  18.579  0.00  0.00    +0.000 C 
ATOM     16  O   UNL     1       3.084   2.610  17.433  0.00  0.00    +0.000 OA
ENDBRANCH   5  16
ENDBRANCH   1   7
BRANCH   3  17
ATOM     17  C   UNL     1       1.460   8.466  20.081  0.00  0.00    +0.000 A 
ATOM     18  C   UNL     1       1.146   8.452  21.439  0.00  0.00    +0.000 A 
ATOM     19  C   UNL     1       0.358   9.454  22.000  0.00  0.00    +0.000 A 
ATOM     20  C   UNL     1      -0.144  10.475  21.203  0.00  0.00    +0.000 A 
ATOM     21  C   UNL     1       0.139  10.514  19.829  0.00  0.00    +0.000 A 
ATOM     22  C   UNL     1       0.976   9.514  19.282  0.00  0.00    +0.000 A 
BRANCH  21  23
ATOM     23  C   UNL     1      -0.519  11.599  18.990  0.00  0.00    +0.000 C 
ATOM     24  C   UNL     1       0.369  12.846  18.924  0.00  0.00    +0.000 C 
BRANCH  23  25
ATOM     25  S   UNL     1      -2.152  12.113  19.597  0.00  0.00    +0.000 S 
BRANCH  25  26
ATOM     26  C   UNL     1      -3.181  11.716  18.273  0.00  0.00    +0.000 A 
ATOM     27  N   UNL     1      -2.845  11.347  17.058  0.00  0.00    +0.000 NA
ATOM     28  N   UNL     1      -4.012  11.130  16.353  0.00  0.00    +0.000 NA
ATOM     29  C   UNL     1      -5.020  11.383  17.160  0.00  0.00    +0.000 A 
ATOM     30  N   UNL     1      -4.541  11.771  18.373  0.00  0.00    +0.000 N 
ATOM     31  C   UNL     1      -5.317  12.142  19.523  0.00  0.00    +0.000 C 
ENDBRANCH  25  26
ENDBRANCH  23  25
ENDBRANCH  21  23
ENDBRANCH   3  17
TORSDOF 7
ENDMDL
MODEL 6
REMARK VINA RESULT:      -7.9      5.111      9.233
REMARK  Name = 
REMARK  10 active torsions:
REMARK  status: ('A' for Active; 'I' for Inactive)
REMARK    1  A    between atoms: C_1  and  O_2
REMARK    2  A    between atoms: O_2  and  C_3
REMARK    3  A    between atoms: C_5  and  C_6
REMARK    4  A    between atoms: N_8  and  C_9
REMARK    5  A    between atoms: C_13  and  C_14
REMARK    6  A    between atoms: C_14  and  C_15
REMARK    7  A    between atoms: C_14  and  S_16
REMARK    8  A    between atoms: S_16  and  C_17
REMARK    9  A    between atoms: N_21  and  C_22
REMARK   10  A    between atoms: C_25  and  C_26
REMARK                            x       y       z     vdW  Elec       q    Type
REMARK                         _______ _______ _______ _____ _____    ______ ____
ROOT
ATOM      1  C   UNL     1       2.497   7.397  19.069  0.00  0.00    +0.000 C 
ATOM      2  O   UNL     1       2.569   8.205  18.146  0.00  0.00    +0.000 OA
ATOM      3  N   UNL     1       1.874   7.590  20.295  0.00  0.00    +0.000 N 
ATOM      4  H   UNL     1       2.035   6.858  20.986  0.00  0.00    +0.000 HD
ENDROOT
BRANCH   1   7
ATOM      5  C   UNL     1       3.643   3.879  19.705  0.00  0.00    +0.000 A 
ATOM      6  C   UNL     1       2.990   5.091  19.862  0.00  0.00    +0.000 A 
ATOM      7  C   UNL     1       3.175   6.073  18.894  0.00  0.00    +0.000 A 
ATOM      8  N   UNL     1       3.959   5.919  17.793  0.00  0.00    +0.000 NA
ATOM      9  C   UNL     1       4.608   4.725  17.661  0.00  0.00    +0.000 A 
ATOM     10  C   UNL     1       4.461   3.693  18.593  0.00  0.00    +0.000 A 
BRANCH   9  11
ATOM     11  C   UNL     1       5.530   4.497  16.469  0.00  0.00    +0.000 C 
ATOM     12  F   UNL     1       5.507   3.220  15.993  0.00  0.00    +0.000 F 
ATOM     13  F   UNL     1       5.218   5.295  15.408  0.00  0.00    +0.000 F 
ATOM     14  F   UNL     1       6.836   4.763  16.760  0.00  0.00    +0.000 F 
ENDBRANCH   9  11
BRANCH   5  16
ATOM     15  C   UNL     1       2.397   2.701  21.357  0.00  0.00    +0.000 C 
ATOM     16  O   UNL     1       3.569   2.809  20.553  0.00  0.00    +0.000 OA
ENDBRANCH   5  16
ENDBRANCH   1   7
BRANCH   3  17
ATOM     17  C   UNL     1       1.121   8.722  20.673  0.00  0.00    +0.000 A 
ATOM     18  C   UNL     1       0.759   8.963  21.997  0.00  0.00    +0.000 A 
ATOM     19  C   UNL     1       0.009  10.085  22.340  0.00  0.00    +0.000 A 
ATOM     20  C   UNL     1      -0.408  10.972  21.357  0.00  0.00    +0.000 A 
ATOM     21  C   UNL     1      -0.075  10.756  20.010  0.00  0.00    +0.000 A 
ATOM     22  C   UNL     1       0.724   9.635  19.684  0.00  0.00    +0.000 A 
BRANCH  21  23
ATOM     23  C   UNL     1      -0.642  11.706  18.967  0.00  0.00    +0.000 C 
ATOM     24  C   UNL     1      -0.159  13.138  19.220  0.00  0.00    +0.000 C 
BRANCH  23  25
ATOM     25  S   UNL     1      -2.458  11.736  18.906  0.00  0.00    +0.000 S 
BRANCH  25  26
ATOM     26  C   UNL     1      -2.786  11.074  17.349  0.00  0.00    +0.000 A 
ATOM     27  N   UNL     1      -1.991  10.370  16.576  0.00  0.00    +0.000 NA
ATOM     28  N   UNL     1      -2.699  10.055  15.432  0.00  0.00    +0.000 NA
ATOM     29  C   UNL     1      -3.897  10.586  15.544  0.00  0.00    +0.000 A 
ATOM     30  N   UNL     1      -3.989  11.250  16.729  0.00  0.00    +0.000 N 
ATOM     31  C   UNL     1      -5.129  11.971  17.223  0.00  0.00    +0.000 C 
ENDBRANCH  25  26
ENDBRANCH  23  25
ENDBRANCH  21  23
ENDBRANCH   3  17
TORSDOF 7
ENDMDL
MODEL 7
REMARK VINA RESULT:      -7.9      4.635      9.043
REMARK  Name = 
REMARK  10 active torsions:
REMARK  status: ('A' for Active; 'I' for Inactive)
REMARK    1  A    between atoms: C_1  and  O_2
REMARK    2  A    between atoms: O_2  and  C_3
REMARK    3  A    between atoms: C_5  and  C_6
REMARK    4  A    between atoms: N_8  and  C_9
REMARK    5  A    between atoms: C_13  and  C_14
REMARK    6  A    between atoms: C_14  and  C_15
REMARK    7  A    between atoms: C_14  and  S_16
REMARK    8  A    between atoms: S_16  and  C_17
REMARK    9  A    between atoms: N_21  and  C_22
REMARK   10  A    between atoms: C_25  and  C_26
REMARK                            x       y       z     vdW  Elec       q    Type
REMARK                         _______ _______ _______ _____ _____    ______ ____
ROOT
ATOM      1  C   UNL     1       2.846   7.296  18.273  0.00  0.00    +0.000 C 
ATOM      2  O   UNL     1       2.904   8.266  17.521  0.00  0.00    +0.000 OA
ATOM      3  N   UNL     1       2.247   7.251  19.526  0.00  0.00    +0.000 N 
ATOM      4  H   UNL     1       2.417   6.400  20.059  0.00  0.00    +0.000 HD
ENDROOT
BRANCH   1   7
ATOM      5  C   UNL     1       5.220   4.931  16.580  0.00  0.00    +0.000 A 
ATOM      6  C   UNL     1       4.627   6.109  17.004  0.00  0.00    +0.000 A 
ATOM      7  C   UNL     1       3.513   6.029  17.834  0.00  0.00    +0.000 A 
ATOM      8  N   UNL     1       2.965   4.859  18.261  0.00  0.00    +0.000 NA
ATOM      9  C   UNL     1       3.551   3.707  17.822  0.00  0.00    +0.000 A 
ATOM     10  C   UNL     1       4.676   3.716  16.993  0.00  0.00    +0.000 A 
BRANCH   9  11
ATOM     11  C   UNL     1       2.968   2.362  18.235  0.00  0.00    +0.000 C 
ATOM     12  F   UNL     1       2.118   1.825  17.313  0.00  0.00    +0.000 F 
ATOM     13  F   UNL     1       3.930   1.418  18.447  0.00  0.00    +0.000 F 
ATOM     14  F   UNL     1       2.259   2.434  19.398  0.00  0.00    +0.000 F 
ENDBRANCH   9  11
BRANCH   5  16
ATOM     15  C   UNL     1       6.188   4.023  14.603  0.00  0.00    +0.000 C 
ATOM     16  O   UNL     1       6.318   4.828  15.772  0.00  0.00    +0.000 OA
ENDBRANCH   5  16
ENDBRANCH   1   7
BRANCH   3  17
ATOM     17  C   UNL     1       1.508   8.290  20.128  0.00  0.00    +0.000 A 
ATOM     18  C   UNL     1       1.154   8.263  21.476  0.00  0.00    +0.000 A 
ATOM     19  C   UNL     1       0.417   9.299  22.043  0.00  0.00    +0.000 A 
ATOM     20  C   UNL     1       0.006  10.371  21.261  0.00  0.00    +0.000 A 
ATOM     21  C   UNL     1       0.331  10.427  19.897  0.00  0.00    +0.000 A 
ATOM     22  C   UNL     1       1.116   9.388  19.346  0.00  0.00    +0.000 A 
BRANCH  21  23
ATOM     23  C   UNL     1      -0.231  11.574  19.070  0.00  0.00    +0.000 C 
ATOM     24  C   UNL     1       0.623  12.835  19.243  0.00  0.00    +0.000 C 
BRANCH  23  25
ATOM     25  S   UNL     1      -1.947  12.007  19.479  0.00  0.00    +0.000 S 
BRANCH  25  26
ATOM     26  C   UNL     1      -2.787  11.599  18.030  0.00  0.00    +0.000 A 
ATOM     27  N   UNL     1      -2.287  11.239  16.870  0.00  0.00    +0.000 NA
ATOM     28  N   UNL     1      -3.349  11.006  16.017  0.00  0.00    +0.000 NA
ATOM     29  C   UNL     1      -4.458  11.241  16.685  0.00  0.00    +0.000 A 
ATOM     30  N   UNL     1      -4.148  11.632  17.951  0.00  0.00    +0.000 N 
ATOM     31  C   UNL     1      -5.075  11.988  18.989  0.00  0.00    +0.000 C 
ENDBRANCH  25  26
ENDBRANCH  23  25
ENDBRANCH  21  23
ENDBRANCH   3  17
TORSDOF 7
ENDMDL
MODEL 8
REMARK VINA RESULT:      -7.9      4.867      9.068
REMARK  Name = 
REMARK  10 active torsions:
REMARK  status: ('A' for Active; 'I' for Inactive)
REMARK    1  A    between atoms: C_1  and  O_2
REMARK    2  A    between atoms: O_2  and  C_3
REMARK    3  A    between atoms: C_5  and  C_6
REMARK    4  A    between atoms: N_8  and  C_9
REMARK    5  A    between atoms: C_13  and  C_14
REMARK    6  A    between atoms: C_14  and  C_15
REMARK    7  A    between atoms: C_14  and  S_16
REMARK    8  A    between atoms: S_16  and  C_17
REMARK    9  A    between atoms: N_21  and  C_22
REMARK   10  A    between atoms: C_25  and  C_26
REMARK                            x       y       z     vdW  Elec       q    Type
REMARK                         _______ _______ _______ _____ _____    ______ ____
ROOT
ATOM      1  C   UNL     1       2.901   6.291  18.278  0.00  0.00    +0.000 C 
ATOM      2  O   UNL     1       1.881   5.643  18.058  0.00  0.00    +0.000 OA
ATOM      3  N   UNL     1       2.981   7.530  18.901  0.00  0.00    +0.000 N 
ATOM      4  H   UNL     1       3.898   7.974  18.872  0.00  0.00    +0.000 HD
ENDROOT
BRANCH   1   7
ATOM      5  C   UNL     1       5.427   4.412  16.232  0.00  0.00    +0.000 A 
ATOM      6  C   UNL     1       4.221   4.954  16.647  0.00  0.00    +0.000 A 
ATOM      7  C   UNL     1       4.205   5.725  17.805  0.00  0.00    +0.000 A 
ATOM      8  N   UNL     1       5.305   5.985  18.562  0.00  0.00    +0.000 NA
ATOM      9  C   UNL     1       6.483   5.431  18.148  0.00  0.00    +0.000 A 
ATOM     10  C   UNL     1       6.570   4.652  16.991  0.00  0.00    +0.000 A 
BRANCH   9  11
ATOM     11  C   UNL     1       7.747   5.653  18.968  0.00  0.00    +0.000 C 
ATOM     12  F   UNL     1       7.533   5.674  20.314  0.00  0.00    +0.000 F 
ATOM     13  F   UNL     1       8.685   4.686  18.755  0.00  0.00    +0.000 F 
ATOM     14  F   UNL     1       8.362   6.835  18.670  0.00  0.00    +0.000 F 
ENDBRANCH   9  11
BRANCH   5  16
ATOM     15  C   UNL     1       6.519   4.140  14.133  0.00  0.00    +0.000 C 
ATOM     16  O   UNL     1       5.622   3.639  15.121  0.00  0.00    +0.000 OA
ENDBRANCH   5  16
ENDBRANCH   1   7
BRANCH   3  17
ATOM     17  C   UNL     1       1.907   8.235  19.484  0.00  0.00    +0.000 A 
ATOM     18  C   UNL     1       1.366   7.874  20.717  0.00  0.00    +0.000 A 
ATOM     19  C   UNL     1       0.301   8.583  21.265  0.00  0.00    +0.000 A 
ATOM     20  C   UNL     1      -0.254   9.653  20.574  0.00  0.00    +0.000 A 
ATOM     21  C   UNL     1       0.254  10.037  19.324  0.00  0.00    +0.000 A 
ATOM     22  C   UNL     1       1.364   9.335  18.800  0.00  0.00    +0.000 A 
BRANCH  21  23
ATOM     23  C   UNL     1      -0.456  11.152  18.571  0.00  0.00    +0.000 C 
ATOM     24  C   UNL     1      -0.004  12.524  19.082  0.00  0.00    +0.000 C 
BRANCH  23  25
ATOM     25  S   UNL     1      -2.267  11.085  18.689  0.00  0.00    +0.000 S 
BRANCH  25  26
ATOM     26  C   UNL     1      -2.726  10.635  17.089  0.00  0.00    +0.000 A 
ATOM     27  N   UNL     1      -2.069   9.893  16.229  0.00  0.00    +0.000 NA
ATOM     28  N   UNL     1      -2.838   9.806  15.085  0.00  0.00    +0.000 NA
ATOM     29  C   UNL     1      -3.933  10.507  15.284  0.00  0.00    +0.000 A 
ATOM     30  N   UNL     1      -3.895  11.060  16.527  0.00  0.00    +0.000 N 
ATOM     31  C   UNL     1      -4.896  11.901  17.123  0.00  0.00    +0.000 C 
ENDBRANCH  25  26
ENDBRANCH  23  25
ENDBRANCH  21  23
ENDBRANCH   3  17
TORSDOF 7
ENDMDL
MODEL 9
REMARK VINA RESULT:      -7.9      4.485      8.987
REMARK  Name = 
REMARK  10 active torsions:
REMARK  status: ('A' for Active; 'I' for Inactive)
REMARK    1  A    between atoms: C_1  and  O_2
REMARK    2  A    between atoms: O_2  and  C_3
REMARK    3  A    between atoms: C_5  and  C_6
REMARK    4  A    between atoms: N_8  and  C_9
REMARK    5  A    between atoms: C_13  and  C_14
REMARK    6  A    between atoms: C_14  and  C_15
REMARK    7  A    between atoms: C_14  and  S_16
REMARK    8  A    between atoms: S_16  and  C_17
REMARK    9  A    between atoms: N_21  and  C_22
REMARK   10  A    between atoms: C_25  and  C_26
REMARK                            x       y       z     vdW  Elec       q    Type
REMARK                         _______ _______ _______ _____ _____    ______ ____
ROOT
ATOM      1  C   UNL     1       2.317   7.631  18.600  0.00  0.00    +0.000 C 
ATOM      2  O   UNL     1       2.218   8.539  17.778  0.00  0.00    +0.000 OA
ATOM      3  N   UNL     1       1.924   7.669  19.932  0.00  0.00    +0.000 N 
ATOM      4  H   UNL     1       2.209   6.868  20.493  0.00  0.00    +0.000 HD
ENDROOT
BRANCH   1   7
ATOM      5  C   UNL     1       4.730   5.221  17.029  0.00  0.00    +0.000 A 
ATOM      6  C   UNL     1       4.160   6.408  17.460  0.00  0.00    +0.000 A 
ATOM      7  C   UNL     1       2.956   6.352  18.155  0.00  0.00    +0.000 A 
ATOM      8  N   UNL     1       2.297   5.196  18.444  0.00  0.00    +0.000 NA
ATOM      9  C   UNL     1       2.863   4.036  17.998  0.00  0.00    +0.000 A 
ATOM     10  C   UNL     1       4.074   4.022  17.300  0.00  0.00    +0.000 A 
BRANCH   9  11
ATOM     11  C   UNL     1       2.161   2.709  18.257  0.00  0.00    +0.000 C 
ATOM     12  F   UNL     1       2.507   2.126  19.440  0.00  0.00    +0.000 F 
ATOM     13  F   UNL     1       0.803   2.833  18.286  0.00  0.00    +0.000 F 
ATOM     14  F   UNL     1       2.426   1.781  17.292  0.00  0.00    +0.000 F 
ENDBRANCH   9  11
BRANCH   5  16
ATOM     15  C   UNL     1       6.061   3.931  15.535  0.00  0.00    +0.000 C 
ATOM     16  O   UNL     1       5.905   5.096  16.342  0.00  0.00    +0.000 OA
ENDBRANCH   5  16
ENDBRANCH   1   7
BRANCH   3  17
ATOM     17  C   UNL     1       1.247   8.733  20.565  0.00  0.00    +0.000 A 
ATOM     18  C   UNL     1       0.954   8.718  21.928  0.00  0.00    +0.000 A 
ATOM     19  C   UNL     1       0.278   9.778  22.525  0.00  0.00    +0.000 A 
ATOM     20  C   UNL     1      -0.132  10.863  21.761  0.00  0.00    +0.000 A 
ATOM     21  C   UNL     1       0.133  10.908  20.383  0.00  0.00    +0.000 A 
ATOM     22  C   UNL     1       0.858   9.843  19.800  0.00  0.00    +0.000 A 
BRANCH  21  23
ATOM     23  C   UNL     1      -0.427  12.073  19.581  0.00  0.00    +0.000 C 
ATOM     24  C   UNL     1       0.217  13.392  20.020  0.00  0.00    +0.000 C 
BRANCH  23  25
ATOM     25  S   UNL     1      -2.228  12.264  19.716  0.00  0.00    +0.000 S 
BRANCH  25  26
ATOM     26  C   UNL     1      -2.775  11.712  18.177  0.00  0.00    +0.000 A 
ATOM     27  N   UNL     1      -2.060  11.375  17.129  0.00  0.00    +0.000 NA
ATOM     28  N   UNL     1      -2.939  10.991  16.134  0.00  0.00    +0.000 NA
ATOM     29  C   UNL     1      -4.160  11.118  16.608  0.00  0.00    +0.000 A 
ATOM     30  N   UNL     1      -4.102  11.585  17.885  0.00  0.00    +0.000 N 
ATOM     31  C   UNL     1      -5.217  11.866  18.747  0.00  0.00    +0.000 C 
ENDBRANCH  25  26
ENDBRANCH  23  25
ENDBRANCH  21  23
ENDBRANCH   3  17
TORSDOF 7
ENDMDL
