MODEL 1
REMARK VINA RESULT:      -8.9      0.000      0.000
REMARK  Name = 
REMARK  6 active torsions:
REMARK  status: ('A' for Active; 'I' for Inactive)
REMARK    1  A    between atoms: C_1  and  C_2
REMARK    2  A    between atoms: C_2  and  S_3
REMARK    3  A    between atoms: C_2  and  C_10
REMARK    4  A    between atoms: S_3  and  C_4
REMARK    5  A    between atoms: N_8  and  C_9
REMARK    6  A    between atoms: C_14  and  N_15
REMARK                            x       y       z     vdW  Elec       q    Type
REMARK                         _______ _______ _______ _____ _____    ______ ____
ROOT
ATOM      1  C   UNL     1       4.263   4.621  16.924  0.00  0.00    +0.000 A 
ATOM      2  C   UNL     1       3.799   3.336  17.227  0.00  0.00    +0.000 A 
ATOM      3  C   UNL     1       2.733   3.173  18.109  0.00  0.00    +0.000 A 
ATOM      4  C   UNL     1       2.118   4.287  18.708  0.00  0.00    +0.000 A 
ATOM      5  C   UNL     1       2.535   5.589  18.433  0.00  0.00    +0.000 A 
ATOM      6  C   UNL     1       3.603   5.733  17.524  0.00  0.00    +0.000 A 
ENDROOT
BRANCH   5   7
ATOM      7  N   UNL     1       1.961   6.770  19.035  0.00  0.00    +0.000 N 
ATOM      8  C   UNL     1       2.177   8.074  18.642  0.00  0.00    +0.000 C 
ATOM      9  O   UNL     1       2.949   8.386  17.738  0.00  0.00    +0.000 OA
ATOM     10  N   UNL     1       1.378   9.054  19.203  0.00  0.00    +0.000 N 
ATOM     11  C   UNL     1       1.310  10.377  18.553  0.00  0.00    +0.000 C 
ATOM     12  C   UNL     1      -0.025  10.972  18.992  0.00  0.00    +0.000 C 
ATOM     13  C   UNL     1      -0.079  10.387  20.368  0.00  0.00    +0.000 A 
ATOM     14  C   UNL     1      -0.722  10.940  21.464  0.00  0.00    +0.000 A 
ATOM     15  C   UNL     1      -0.405  10.422  22.713  0.00  0.00    +0.000 A 
ATOM     16  C   UNL     1       0.483   9.332  22.824  0.00  0.00    +0.000 A 
ATOM     17  C   UNL     1       1.038   8.702  21.690  0.00  0.00    +0.000 A 
ATOM     18  C   UNL     1       0.756   9.250  20.456  0.00  0.00    +0.000 A 
ATOM     19  H   UNL     1       1.211   6.622  19.698  0.00  0.00    +0.000 HD
ENDBRANCH   5   7
BRANCH   1  21
ATOM     20  C   UNL     1       5.533   4.121  14.674  0.00  0.00    +0.000 C 
ATOM     21  C   UNL     1       5.482   4.843  16.031  0.00  0.00    +0.000 C 
BRANCH  21  22
ATOM     22  S   UNL     1       7.057   4.540  16.947  0.00  0.00    +0.000 S 
BRANCH  22  23
ATOM     23  C   UNL     1       7.464   6.149  17.425  0.00  0.00    +0.000 A 
ATOM     24  N   UNL     1       7.398   7.224  16.676  0.00  0.00    +0.000 NA
ATOM     25  N   UNL     1       7.875   8.281  17.417  0.00  0.00    +0.000 NA
ATOM     26  C   UNL     1       8.202   7.817  18.601  0.00  0.00    +0.000 A 
ATOM     27  N   UNL     1       7.933   6.482  18.662  0.00  0.00    +0.000 N 
ATOM     28  C   UNL     1       8.108   5.640  19.811  0.00  0.00    +0.000 C 
ENDBRANCH  22  23
ENDBRANCH  21  22
ENDBRANCH   1  21
TORSDOF 4
ENDMDL
MODEL 2
REMARK VINA RESULT:      -8.7      3.568      8.883
REMARK  Name = 
REMARK  6 active torsions:
REMARK  status: ('A' for Active; 'I' for Inactive)
REMARK    1  A    between atoms: C_1  and  C_2
REMARK    2  A    between atoms: C_2  and  S_3
REMARK    3  A    between atoms: C_2  and  C_10
REMARK    4  A    between atoms: S_3  and  C_4
REMARK    5  A    between atoms: N_8  and  C_9
REMARK    6  A    between atoms: C_14  and  N_15
REMARK                            x       y       z     vdW  Elec       q    Type
REMARK                         _______ _______ _______ _____ _____    ______ ____
ROOT
ATOM      1  C   UNL     1       0.063  10.677  19.624  0.00  0.00    +0.000 A 
ATOM      2  C   UNL     1      -0.191  10.598  20.998  0.00  0.00    +0.000 A 
ATOM      3  C   UNL     1       0.356   9.558  21.746  0.00  0.00    +0.000 A 
ATOM      4  C   UNL     1       1.159   8.578  21.137  0.00  0.00    +0.000 A 
ATOM      5  C   UNL     1       1.451   8.615  19.773  0.00  0.00    +0.000 A 
ATOM      6  C   UNL     1       0.903   9.685  19.038  0.00  0.00    +0.000 A 
ENDROOT
BRANCH   5   7
ATOM      7  N   UNL     1       2.247   7.625  19.085  0.00  0.00    +0.000 N 
ATOM      8  C   UNL     1       2.417   6.309  19.461  0.00  0.00    +0.000 C 
ATOM      9  O   UNL     1       1.935   5.834  20.488  0.00  0.00    +0.000 OA
ATOM     10  N   UNL     1       3.041   5.461  18.566  0.00  0.00    +0.000 N 
ATOM     11  C   UNL     1       2.910   4.003  18.753  0.00  0.00    +0.000 C 
ATOM     12  C   UNL     1       3.140   3.398  17.371  0.00  0.00    +0.000 C 
ATOM     13  C   UNL     1       4.147   4.384  16.869  0.00  0.00    +0.000 A 
ATOM     14  C   UNL     1       5.142   4.132  15.938  0.00  0.00    +0.000 A 
ATOM     15  C   UNL     1       6.163   5.068  15.831  0.00  0.00    +0.000 A 
ATOM     16  C   UNL     1       6.124   6.250  16.599  0.00  0.00    +0.000 A 
ATOM     17  C   UNL     1       5.043   6.550  17.455  0.00  0.00    +0.000 A 
ATOM     18  C   UNL     1       4.056   5.596  17.592  0.00  0.00    +0.000 A 
ATOM     19  H   UNL     1       2.578   7.870  18.161  0.00  0.00    +0.000 HD
ENDBRANCH   5   7
BRANCH   1  21
ATOM     20  C   UNL     1      -0.123  13.205  18.917  0.00  0.00    +0.000 C 
ATOM     21  C   UNL     1      -0.585  11.748  18.749  0.00  0.00    +0.000 C 
BRANCH  21  22
ATOM     22  S   UNL     1      -2.428  11.674  18.842  0.00  0.00    +0.000 S 
BRANCH  22  23
ATOM     23  C   UNL     1      -2.801  10.999  17.297  0.00  0.00    +0.000 A 
ATOM     24  N   UNL     1      -2.024  10.222  16.579  0.00  0.00    +0.000 NA
ATOM     25  N   UNL     1      -2.671   9.966  15.392  0.00  0.00    +0.000 NA
ATOM     26  C   UNL     1      -3.830  10.582  15.432  0.00  0.00    +0.000 A 
ATOM     27  N   UNL     1      -3.968  11.222  16.628  0.00  0.00    +0.000 N 
ATOM     28  C   UNL     1      -5.122  11.959  17.059  0.00  0.00    +0.000 C 
ENDBRANCH  22  23
ENDBRANCH  21  22
ENDBRANCH   1  21
TORSDOF 4
ENDMDL
MODEL 3
REMARK VINA RESULT:      -8.6      3.490      8.756
REMARK  Name = 
REMARK  6 active torsions:
REMARK  status: ('A' for Active; 'I' for Inactive)
REMARK    1  A    between atoms: C_1  and  C_2
REMARK    2  A    between atoms: C_2  and  S_3
REMARK    3  A    between atoms: C_2  and  C_10
REMARK    4  A    between atoms: S_3  and  C_4
REMARK    5  A    between atoms: N_8  and  C_9
REMARK    6  A    between atoms: C_14  and  N_15
REMARK                            x       y       z     vdW  Elec       q    Type
REMARK                         _______ _______ _______ _____ _____    ______ ____
ROOT
ATOM      1  C   UNL     1      -0.014  10.877  19.839  0.00  0.00    +0.000 A 
ATOM      2  C   UNL     1      -0.072  11.033  21.229  0.00  0.00    +0.000 A 
ATOM      3  C   UNL     1       0.480  10.060  22.059  0.00  0.00    +0.000 A 
ATOM      4  C   UNL     1       1.092   8.915  21.519  0.00  0.00    +0.000 A 
ATOM      5  C   UNL     1       1.184   8.716  20.142  0.00  0.00    +0.000 A 
ATOM      6  C   UNL     1       0.636   9.720  19.319  0.00  0.00    +0.000 A 
ENDROOT
BRANCH   5   7
ATOM      7  N   UNL     1       1.775   7.549  19.527  0.00  0.00    +0.000 N 
ATOM      8  C   UNL     1       2.601   7.539  18.423  0.00  0.00    +0.000 C 
ATOM      9  O   UNL     1       2.890   8.551  17.788  0.00  0.00    +0.000 OA
ATOM     10  N   UNL     1       3.238   6.352  18.109  0.00  0.00    +0.000 N 
ATOM     11  C   UNL     1       4.394   6.383  17.192  0.00  0.00    +0.000 C 
ATOM     12  C   UNL     1       5.204   5.133  17.524  0.00  0.00    +0.000 C 
ATOM     13  C   UNL     1       4.066   4.226  17.874  0.00  0.00    +0.000 A 
ATOM     14  C   UNL     1       4.051   2.847  17.740  0.00  0.00    +0.000 A 
ATOM     15  C   UNL     1       2.817   2.216  17.818  0.00  0.00    +0.000 A 
ATOM     16  C   UNL     1       1.654   2.963  18.094  0.00  0.00    +0.000 A 
ATOM     17  C   UNL     1       1.700   4.351  18.346  0.00  0.00    +0.000 A 
ATOM     18  C   UNL     1       2.921   4.980  18.223  0.00  0.00    +0.000 A 
ATOM     19  H   UNL     1       1.712   6.682  20.045  0.00  0.00    +0.000 HD
ENDBRANCH   5   7
BRANCH   1  21
ATOM     20  C   UNL     1      -0.285  13.356  18.998  0.00  0.00    +0.000 C 
ATOM     21  C   UNL     1      -0.681  11.873  18.893  0.00  0.00    +0.000 C 
BRANCH  21  22
ATOM     22  S   UNL     1      -2.522  11.726  18.941  0.00  0.00    +0.000 S 
BRANCH  22  23
ATOM     23  C   UNL     1      -2.831  11.064  17.376  0.00  0.00    +0.000 A 
ATOM     24  N   UNL     1      -2.018  10.310  16.675  0.00  0.00    +0.000 NA
ATOM     25  N   UNL     1      -2.620  10.058  15.464  0.00  0.00    +0.000 NA
ATOM     26  C   UNL     1      -3.790  10.655  15.473  0.00  0.00    +0.000 A 
ATOM     27  N   UNL     1      -3.979  11.277  16.671  0.00  0.00    +0.000 N 
ATOM     28  C   UNL     1      -5.159  11.989  17.072  0.00  0.00    +0.000 C 
ENDBRANCH  22  23
ENDBRANCH  21  22
ENDBRANCH   1  21
TORSDOF 4
ENDMDL
MODEL 4
REMARK VINA RESULT:      -8.2      3.625      8.989
REMARK  Name = 
REMARK  6 active torsions:
REMARK  status: ('A' for Active; 'I' for Inactive)
REMARK    1  A    between atoms: C_1  and  C_2
REMARK    2  A    between atoms: C_2  and  S_3
REMARK    3  A    between atoms: C_2  and  C_10
REMARK    4  A    between atoms: S_3  and  C_4
REMARK    5  A    between atoms: N_8  and  C_9
REMARK    6  A    between atoms: C_14  and  N_15
REMARK                            x       y       z     vdW  Elec       q    Type
REMARK                         _______ _______ _______ _____ _____    ______ ____
ROOT
ATOM      1  C   UNL     1      -0.405  11.674  18.576  0.00  0.00    +0.000 A 
ATOM      2  C   UNL     1       0.414  12.808  18.606  0.00  0.00    +0.000 A 
ATOM      3  C   UNL     1       1.792  12.672  18.457  0.00  0.00    +0.000 A 
ATOM      4  C   UNL     1       2.377  11.405  18.283  0.00  0.00    +0.000 A 
ATOM      5  C   UNL     1       1.605  10.245  18.236  0.00  0.00    +0.000 A 
ATOM      6  C   UNL     1       0.211  10.405  18.370  0.00  0.00    +0.000 A 
ENDROOT
BRANCH   5   7
ATOM      7  N   UNL     1       2.148   8.914  18.086  0.00  0.00    +0.000 N 
ATOM      8  C   UNL     1       2.190   7.936  19.056  0.00  0.00    +0.000 C 
ATOM      9  O   UNL     1       1.806   8.114  20.210  0.00  0.00    +0.000 OA
ATOM     10  N   UNL     1       2.554   6.660  18.666  0.00  0.00    +0.000 N 
ATOM     11  C   UNL     1       2.255   5.526  19.563  0.00  0.00    +0.000 C 
ATOM     12  C   UNL     1       2.193   4.301  18.655  0.00  0.00    +0.000 C 
ATOM     13  C   UNL     1       3.239   4.712  17.668  0.00  0.00    +0.000 A 
ATOM     14  C   UNL     1       4.042   3.859  16.927  0.00  0.00    +0.000 A 
ATOM     15  C   UNL     1       5.153   4.413  16.306  0.00  0.00    +0.000 A 
ATOM     16  C   UNL     1       5.390   5.801  16.383  0.00  0.00    +0.000 A 
ATOM     17  C   UNL     1       4.499   6.676  17.041  0.00  0.00    +0.000 A 
ATOM     18  C   UNL     1       3.422   6.114  17.694  0.00  0.00    +0.000 A 
ATOM     19  H   UNL     1       2.368   8.618  17.144  0.00  0.00    +0.000 HD
ENDBRANCH   5   7
BRANCH   1  21
ATOM     20  C   UNL     1      -2.397  12.351  20.158  0.00  0.00    +0.000 C 
ATOM     21  C   UNL     1      -1.909  11.766  18.821  0.00  0.00    +0.000 C 
BRANCH  21  22
ATOM     22  S   UNL     1      -2.745  10.146  18.519  0.00  0.00    +0.000 S 
BRANCH  22  23
ATOM     23  C   UNL     1      -3.057  10.257  16.824  0.00  0.00    +0.000 A 
ATOM     24  N   UNL     1      -2.363   9.690  15.866  0.00  0.00    +0.000 NA
ATOM     25  N   UNL     1      -2.905  10.087  14.665  0.00  0.00    +0.000 NA
ATOM     26  C   UNL     1      -3.924  10.871  14.932  0.00  0.00    +0.000 A 
ATOM     27  N   UNL     1      -4.076  10.984  16.282  0.00  0.00    +0.000 N 
ATOM     28  C   UNL     1      -5.113  11.715  16.954  0.00  0.00    +0.000 C 
ENDBRANCH  22  23
ENDBRANCH  21  22
ENDBRANCH   1  21
TORSDOF 4
ENDMDL
MODEL 5
REMARK VINA RESULT:      -8.1      0.785      1.323
REMARK  Name = 
REMARK  6 active torsions:
REMARK  status: ('A' for Active; 'I' for Inactive)
REMARK    1  A    between atoms: C_1  and  C_2
REMARK    2  A    between atoms: C_2  and  S_3
REMARK    3  A    between atoms: C_2  and  C_10
REMARK    4  A    between atoms: S_3  and  C_4
REMARK    5  A    between atoms: N_8  and  C_9
REMARK    6  A    between atoms: C_14  and  N_15
REMARK                            x       y       z     vdW  Elec       q    Type
REMARK                         _______ _______ _______ _____ _____    ______ ____
ROOT
ATOM      1  C   UNL     1       4.530   4.747  16.744  0.00  0.00    +0.000 A 
ATOM      2  C   UNL     1       4.330   3.447  17.223  0.00  0.00    +0.000 A 
ATOM      3  C   UNL     1       3.445   3.225  18.275  0.00  0.00    +0.000 A 
ATOM      4  C   UNL     1       2.751   4.293  18.871  0.00  0.00    +0.000 A 
ATOM      5  C   UNL     1       2.907   5.605  18.426  0.00  0.00    +0.000 A 
ATOM      6  C   UNL     1       3.792   5.807  17.347  0.00  0.00    +0.000 A 
ENDROOT
BRANCH   5   7
ATOM      7  N   UNL     1       2.243   6.746  19.012  0.00  0.00    +0.000 N 
ATOM      8  C   UNL     1       2.307   8.048  18.563  0.00  0.00    +0.000 C 
ATOM      9  O   UNL     1       3.002   8.399  17.612  0.00  0.00    +0.000 OA
ATOM     10  N   UNL     1       1.438   8.965  19.126  0.00  0.00    +0.000 N 
ATOM     11  C   UNL     1       1.207  10.248  18.434  0.00  0.00    +0.000 C 
ATOM     12  C   UNL     1      -0.161  10.723  18.915  0.00  0.00    +0.000 C 
ATOM     13  C   UNL     1      -0.094  10.192  20.312  0.00  0.00    +0.000 A 
ATOM     14  C   UNL     1      -0.741  10.721  21.417  0.00  0.00    +0.000 A 
ATOM     15  C   UNL     1      -0.317  10.288  22.667  0.00  0.00    +0.000 A 
ATOM     16  C   UNL     1       0.681   9.298  22.774  0.00  0.00    +0.000 A 
ATOM     17  C   UNL     1       1.247   8.682  21.638  0.00  0.00    +0.000 A 
ATOM     18  C   UNL     1       0.855   9.148  20.400  0.00  0.00    +0.000 A 
ATOM     19  H   UNL     1       1.542   6.551  19.716  0.00  0.00    +0.000 HD
ENDBRANCH   5   7
BRANCH   1  21
ATOM     20  C   UNL     1       5.232   4.614  14.211  0.00  0.00    +0.000 C 
ATOM     21  C   UNL     1       5.553   5.049  15.651  0.00  0.00    +0.000 C 
BRANCH  21  22
ATOM     22  S   UNL     1       7.236   4.447  16.113  0.00  0.00    +0.000 S 
BRANCH  22  23
ATOM     23  C   UNL     1       7.375   5.080  17.714  0.00  0.00    +0.000 A 
ATOM     24  N   UNL     1       7.347   4.390  18.830  0.00  0.00    +0.000 NA
ATOM     25  N   UNL     1       7.420   5.281  19.876  0.00  0.00    +0.000 NA
ATOM     26  C   UNL     1       7.508   6.487  19.362  0.00  0.00    +0.000 A 
ATOM     27  N   UNL     1       7.513   6.407  18.001  0.00  0.00    +0.000 N 
ATOM     28  C   UNL     1       7.648   7.511  17.093  0.00  0.00    +0.000 C 
ENDBRANCH  22  23
ENDBRANCH  21  22
ENDBRANCH   1  21
TORSDOF 4
ENDMDL
MODEL 6
REMARK VINA RESULT:      -8.1      3.832      9.307
REMARK  Name = 
REMARK  6 active torsions:
REMARK  status: ('A' for Active; 'I' for Inactive)
REMARK    1  A    between atoms: C_1  and  C_2
REMARK    2  A    between atoms: C_2  and  S_3
REMARK    3  A    between atoms: C_2  and  C_10
REMARK    4  A    between atoms: S_3  and  C_4
REMARK    5  A    between atoms: N_8  and  C_9
REMARK    6  A    between atoms: C_14  and  N_15
REMARK                            x       y       z     vdW  Elec       q    Type
REMARK                         _______ _______ _______ _____ _____    ______ ____
ROOT
ATOM      1  C   UNL     1      -0.423  11.560  18.861  0.00  0.00    +0.000 A 
ATOM      2  C   UNL     1       0.383  12.695  18.717  0.00  0.00    +0.000 A 
ATOM      3  C   UNL     1       1.727  12.554  18.384  0.00  0.00    +0.000 A 
ATOM      4  C   UNL     1       2.293  11.281  18.197  0.00  0.00    +0.000 A 
ATOM      5  C   UNL     1       1.533  10.118  18.320  0.00  0.00    +0.000 A 
ATOM      6  C   UNL     1       0.170  10.283  18.639  0.00  0.00    +0.000 A 
ENDROOT
BRANCH   5   7
ATOM      7  N   UNL     1       2.062   8.782  18.166  0.00  0.00    +0.000 N 
ATOM      8  C   UNL     1       2.168   7.827  19.155  0.00  0.00    +0.000 C 
ATOM      9  O   UNL     1       1.863   8.034  20.327  0.00  0.00    +0.000 OA
ATOM     10  N   UNL     1       2.502   6.540  18.772  0.00  0.00    +0.000 N 
ATOM     11  C   UNL     1       2.262   5.430  19.715  0.00  0.00    +0.000 C 
ATOM     12  C   UNL     1       2.136   4.184  18.843  0.00  0.00    +0.000 C 
ATOM     13  C   UNL     1       3.115   4.567  17.777  0.00  0.00    +0.000 A 
ATOM     14  C   UNL     1       3.864   3.693  17.006  0.00  0.00    +0.000 A 
ATOM     15  C   UNL     1       4.932   4.229  16.297  0.00  0.00    +0.000 A 
ATOM     16  C   UNL     1       5.176   5.617  16.324  0.00  0.00    +0.000 A 
ATOM     17  C   UNL     1       4.333   6.510  17.019  0.00  0.00    +0.000 A 
ATOM     18  C   UNL     1       3.302   5.968  17.758  0.00  0.00    +0.000 A 
ATOM     19  H   UNL     1       2.218   8.462  17.219  0.00  0.00    +0.000 HD
ENDBRANCH   5   7
BRANCH   1  21
ATOM     20  C   UNL     1      -2.980  11.296  18.298  0.00  0.00    +0.000 C 
ATOM     21  C   UNL     1      -1.879  11.662  19.309  0.00  0.00    +0.000 C 
BRANCH  21  22
ATOM     22  S   UNL     1      -2.247  13.315  20.046  0.00  0.00    +0.000 S 
BRANCH  22  23
ATOM     23  C   UNL     1      -3.089  12.846  21.480  0.00  0.00    +0.000 A 
ATOM     24  N   UNL     1      -4.383  12.662  21.598  0.00  0.00    +0.000 NA
ATOM     25  N   UNL     1      -4.644  12.365  22.916  0.00  0.00    +0.000 NA
ATOM     26  C   UNL     1      -3.497  12.362  23.555  0.00  0.00    +0.000 A 
ATOM     27  N   UNL     1      -2.485  12.631  22.683  0.00  0.00    +0.000 N 
ATOM     28  C   UNL     1      -1.085  12.662  23.002  0.00  0.00    +0.000 C 
ENDBRANCH  22  23
ENDBRANCH  21  22
ENDBRANCH   1  21
TORSDOF 4
ENDMDL
MODEL 7
REMARK VINA RESULT:      -8.1      3.376      7.950
REMARK  Name = 
REMARK  6 active torsions:
REMARK  status: ('A' for Active; 'I' for Inactive)
REMARK    1  A    between atoms: C_1  and  C_2
REMARK    2  A    between atoms: C_2  and  S_3
REMARK    3  A    between atoms: C_2  and  C_10
REMARK    4  A    between atoms: S_3  and  C_4
REMARK    5  A    between atoms: N_8  and  C_9
REMARK    6  A    between atoms: C_14  and  N_15
REMARK                            x       y       z     vdW  Elec       q    Type
REMARK                         _______ _______ _______ _____ _____    ______ ____
ROOT
ATOM      1  C   UNL     1       0.415  10.613  20.181  0.00  0.00    +0.000 A 
ATOM      2  C   UNL     1      -0.145  10.278  21.420  0.00  0.00    +0.000 A 
ATOM      3  C   UNL     1       0.085   9.018  21.966  0.00  0.00    +0.000 A 
ATOM      4  C   UNL     1       0.870   8.070  21.286  0.00  0.00    +0.000 A 
ATOM      5  C   UNL     1       1.458   8.356  20.055  0.00  0.00    +0.000 A 
ATOM      6  C   UNL     1       1.229   9.643  19.527  0.00  0.00    +0.000 A 
ENDROOT
BRANCH   5   7
ATOM      7  N   UNL     1       2.252   7.417  19.296  0.00  0.00    +0.000 N 
ATOM      8  C   UNL     1       2.502   6.103  19.629  0.00  0.00    +0.000 C 
ATOM      9  O   UNL     1       2.105   5.585  20.670  0.00  0.00    +0.000 OA
ATOM     10  N   UNL     1       3.106   5.303  18.676  0.00  0.00    +0.000 N 
ATOM     11  C   UNL     1       3.050   3.837  18.835  0.00  0.00    +0.000 C 
ATOM     12  C   UNL     1       3.220   3.273  17.427  0.00  0.00    +0.000 C 
ATOM     13  C   UNL     1       4.151   4.314  16.890  0.00  0.00    +0.000 A 
ATOM     14  C   UNL     1       5.097   4.127  15.895  0.00  0.00    +0.000 A 
ATOM     15  C   UNL     1       6.067   5.110  15.749  0.00  0.00    +0.000 A 
ATOM     16  C   UNL     1       6.025   6.272  16.546  0.00  0.00    +0.000 A 
ATOM     17  C   UNL     1       4.987   6.504  17.474  0.00  0.00    +0.000 A 
ATOM     18  C   UNL     1       4.052   5.505  17.646  0.00  0.00    +0.000 A 
ATOM     19  H   UNL     1       2.515   7.698  18.359  0.00  0.00    +0.000 HD
ENDBRANCH   5   7
BRANCH   1  21
ATOM     20  C   UNL     1      -1.044  12.017  18.499  0.00  0.00    +0.000 C 
ATOM     21  C   UNL     1       0.119  11.949  19.504  0.00  0.00    +0.000 C 
BRANCH  21  22
ATOM     22  S   UNL     1       1.637  12.669  18.735  0.00  0.00    +0.000 S 
BRANCH  22  23
ATOM     23  C   UNL     1       2.288  13.548  20.071  0.00  0.00    +0.000 A 
ATOM     24  N   UNL     1       1.874  13.492  21.315  0.00  0.00    +0.000 NA
ATOM     25  N   UNL     1       2.616  14.395  22.043  0.00  0.00    +0.000 NA
ATOM     26  C   UNL     1       3.469  14.960  21.220  0.00  0.00    +0.000 A 
ATOM     27  N   UNL     1       3.319  14.435  19.971  0.00  0.00    +0.000 N 
ATOM     28  C   UNL     1       4.110  14.765  18.819  0.00  0.00    +0.000 C 
ENDBRANCH  22  23
ENDBRANCH  21  22
ENDBRANCH   1  21
TORSDOF 4
ENDMDL
MODEL 8
REMARK VINA RESULT:      -8.0      3.316      8.334
REMARK  Name = 
REMARK  6 active torsions:
REMARK  status: ('A' for Active; 'I' for Inactive)
REMARK    1  A    between atoms: C_1  and  C_2
REMARK    2  A    between atoms: C_2  and  S_3
REMARK    3  A    between atoms: C_2  and  C_10
REMARK    4  A    between atoms: S_3  and  C_4
REMARK    5  A    between atoms: N_8  and  C_9
REMARK    6  A    between atoms: C_14  and  N_15
REMARK                            x       y       z     vdW  Elec       q    Type
REMARK                         _______ _______ _______ _____ _____    ______ ____
ROOT
ATOM      1  C   UNL     1       0.135  10.491  20.199  0.00  0.00    +0.000 A 
ATOM      2  C   UNL     1      -0.093  10.310  21.568  0.00  0.00    +0.000 A 
ATOM      3  C   UNL     1       0.457   9.211  22.223  0.00  0.00    +0.000 A 
ATOM      4  C   UNL     1       1.237   8.272  21.525  0.00  0.00    +0.000 A 
ATOM      5  C   UNL     1       1.502   8.410  20.163  0.00  0.00    +0.000 A 
ATOM      6  C   UNL     1       0.952   9.539  19.522  0.00  0.00    +0.000 A 
ENDROOT
BRANCH   5   7
ATOM      7  N   UNL     1       2.273   7.467  19.386  0.00  0.00    +0.000 N 
ATOM      8  C   UNL     1       2.408   6.119  19.639  0.00  0.00    +0.000 C 
ATOM      9  O   UNL     1       1.913   5.563  20.617  0.00  0.00    +0.000 OA
ATOM     10  N   UNL     1       3.012   5.340  18.667  0.00  0.00    +0.000 N 
ATOM     11  C   UNL     1       2.843   3.875  18.720  0.00  0.00    +0.000 C 
ATOM     12  C   UNL     1       3.058   3.395  17.287  0.00  0.00    +0.000 C 
ATOM     13  C   UNL     1       4.091   4.397  16.877  0.00  0.00    +0.000 A 
ATOM     14  C   UNL     1       5.081   4.206  15.926  0.00  0.00    +0.000 A 
ATOM     15  C   UNL     1       6.125   5.121  15.905  0.00  0.00    +0.000 A 
ATOM     16  C   UNL     1       6.116   6.228  16.779  0.00  0.00    +0.000 A 
ATOM     17  C   UNL     1       5.043   6.475  17.660  0.00  0.00    +0.000 A 
ATOM     18  C   UNL     1       4.031   5.539  17.709  0.00  0.00    +0.000 A 
ATOM     19  H   UNL     1       2.611   7.788  18.487  0.00  0.00    +0.000 HD
ENDBRANCH   5   7
BRANCH   1  21
ATOM     20  C   UNL     1      -1.523  11.277  18.312  0.00  0.00    +0.000 C 
ATOM     21  C   UNL     1      -0.518  11.631  19.422  0.00  0.00    +0.000 C 
BRANCH  21  22
ATOM     22  S   UNL     1       0.743  12.805  18.755  0.00  0.00    +0.000 S 
BRANCH  22  23
ATOM     23  C   UNL     1       1.149  13.686  20.184  0.00  0.00    +0.000 A 
ATOM     24  N   UNL     1       2.125  13.410  21.017  0.00  0.00    +0.000 NA
ATOM     25  N   UNL     1       2.059  14.313  22.053  0.00  0.00    +0.000 NA
ATOM     26  C   UNL     1       1.053  15.121  21.809  0.00  0.00    +0.000 A 
ATOM     27  N   UNL     1       0.468  14.782  20.625  0.00  0.00    +0.000 N 
ATOM     28  C   UNL     1      -0.628  15.467  20.001  0.00  0.00    +0.000 C 
ENDBRANCH  22  23
ENDBRANCH  21  22
ENDBRANCH   1  21
TORSDOF 4
ENDMDL
MODEL 9
REMARK VINA RESULT:      -8.0      3.789      9.294
REMARK  Name = 
REMARK  6 active torsions:
REMARK  status: ('A' for Active; 'I' for Inactive)
REMARK    1  A    between atoms: C_1  and  C_2
REMARK    2  A    between atoms: C_2  and  S_3
REMARK    3  A    between atoms: C_2  and  C_10
REMARK    4  A    between atoms: S_3  and  C_4
REMARK    5  A    between atoms: N_8  and  C_9
REMARK    6  A    between atoms: C_14  and  N_15
REMARK                            x       y       z     vdW  Elec       q    Type
REMARK                         _______ _______ _______ _____ _____    ______ ____
ROOT
ATOM      1  C   UNL     1      -0.361  10.231  20.341  0.00  0.00    +0.000 A 
ATOM      2  C   UNL     1      -0.308  10.228  21.740  0.00  0.00    +0.000 A 
ATOM      3  C   UNL     1       0.560   9.360  22.399  0.00  0.00    +0.000 A 
ATOM      4  C   UNL     1       1.383   8.479  21.676  0.00  0.00    +0.000 A 
ATOM      5  C   UNL     1       1.376   8.448  20.282  0.00  0.00    +0.000 A 
ATOM      6  C   UNL     1       0.504   9.347  19.634  0.00  0.00    +0.000 A 
ENDROOT
BRANCH   5   7
ATOM      7  N   UNL     1       2.178   7.549  19.485  0.00  0.00    +0.000 N 
ATOM      8  C   UNL     1       2.369   6.203  19.717  0.00  0.00    +0.000 C 
ATOM      9  O   UNL     1       1.904   5.614  20.690  0.00  0.00    +0.000 OA
ATOM     10  N   UNL     1       2.996   5.465  18.729  0.00  0.00    +0.000 N 
ATOM     11  C   UNL     1       2.887   3.993  18.761  0.00  0.00    +0.000 C 
ATOM     12  C   UNL     1       3.110   3.543  17.320  0.00  0.00    +0.000 C 
ATOM     13  C   UNL     1       4.099   4.592  16.918  0.00  0.00    +0.000 A 
ATOM     14  C   UNL     1       5.088   4.455  15.957  0.00  0.00    +0.000 A 
ATOM     15  C   UNL     1       6.094   5.412  15.942  0.00  0.00    +0.000 A 
ATOM     16  C   UNL     1       6.047   6.505  16.832  0.00  0.00    +0.000 A 
ATOM     17  C   UNL     1       4.972   6.695  17.725  0.00  0.00    +0.000 A 
ATOM     18  C   UNL     1       3.999   5.718  17.767  0.00  0.00    +0.000 A 
ATOM     19  H   UNL     1       2.496   7.897  18.589  0.00  0.00    +0.000 HD
ENDBRANCH   5   7
BRANCH   1  21
ATOM     20  C   UNL     1      -1.179  11.254  18.059  0.00  0.00    +0.000 C 
ATOM     21  C   UNL     1      -1.357  11.102  19.579  0.00  0.00    +0.000 C 
BRANCH  21  22
ATOM     22  S   UNL     1      -1.523  12.773  20.348  0.00  0.00    +0.000 S 
BRANCH  22  23
ATOM     23  C   UNL     1      -3.187  12.750  20.811  0.00  0.00    +0.000 A 
ATOM     24  N   UNL     1      -4.219  12.894  20.013  0.00  0.00    +0.000 NA
ATOM     25  N   UNL     1      -5.354  12.881  20.791  0.00  0.00    +0.000 NA
ATOM     26  C   UNL     1      -4.977  12.712  22.038  0.00  0.00    +0.000 A 
ATOM     27  N   UNL     1      -3.620  12.594  22.095  0.00  0.00    +0.000 N 
ATOM     28  C   UNL     1      -2.846  12.347  23.278  0.00  0.00    +0.000 C 
ENDBRANCH  22  23
ENDBRANCH  21  22
ENDBRANCH   1  21
TORSDOF 4
ENDMDL
