MODEL 1
REMARK VINA RESULT:      -8.6      0.000      0.000
REMARK  Name = 
REMARK  7 active torsions:
REMARK  status: ('A' for Active; 'I' for Inactive)
REMARK    1  A    between atoms: C_1  and  N_2
REMARK    2  A    between atoms: C_6  and  C_7
REMARK    3  A    between atoms: C_7  and  C_8
REMARK    4  A    between atoms: C_8  and  C_9
REMARK    5  A    between atoms: C_13  and  N_14
REMARK    6  A    between atoms: C_15  and  C_17
REMARK    7  A    between atoms: C_19  and  C_20
REMARK                            x       y       z     vdW  Elec       q    Type
REMARK                         _______ _______ _______ _____ _____    ______ ____
ROOT
ATOM      1  C   UNL     1       4.499   4.855  17.205  0.00  0.00    +0.000 A 
ATOM      2  C   UNL     1       3.653   3.741  17.039  0.00  0.00    +0.000 A 
ATOM      3  C   UNL     1       2.326   3.762  17.457  0.00  0.00    +0.000 A 
ATOM      4  C   UNL     1       1.805   4.906  18.062  0.00  0.00    +0.000 A 
ATOM      5  C   UNL     1       2.604   6.033  18.259  0.00  0.00    +0.000 A 
ATOM      6  C   UNL     1       3.930   6.000  17.816  0.00  0.00    +0.000 A 
ENDROOT
BRANCH   1   7
ATOM      7  C   UNL     1       6.024   4.826  16.708  0.00  0.00    +0.000 C 
ATOM      8  C   UNL     1       7.091   4.506  17.798  0.00  0.00    +0.000 C 
ATOM      9  O   UNL     1       7.764   5.761  17.601  0.00  0.00    +0.000 OA
ATOM     10  C   UNL     1       6.789   6.177  16.622  0.00  0.00    +0.000 C 
BRANCH   7  11
ATOM     11  C   UNL     1       6.165   3.902  15.484  0.00  0.00    +0.000 C 
BRANCH  11  17
ATOM     12  C   UNL     1       5.760   3.280  12.375  0.00  0.00    +0.000 C 
ATOM     13  N   UNL     1       6.685   4.197  12.983  0.00  0.00    +0.000 N 
ATOM     14  C   UNL     1       7.609   4.929  12.299  0.00  0.00    +0.000 A 
ATOM     15  N   UNL     1       8.282   5.683  13.134  0.00  0.00    +0.000 NA
ATOM     16  N   UNL     1       7.804   5.429  14.394  0.00  0.00    +0.000 NA
ATOM     17  C   UNL     1       6.855   4.517  14.310  0.00  0.00    +0.000 A 
ENDBRANCH  11  17
ENDBRANCH   7  11
ENDBRANCH   1   7
BRANCH   5  18
ATOM     18  N   UNL     1       2.133   7.217  18.868  0.00  0.00    +0.000 N 
ATOM     19  C   UNL     1       1.692   7.355  20.177  0.00  0.00    +0.000 C 
ATOM     20  O   UNL     1       1.735   6.447  21.002  0.00  0.00    +0.000 OA
ATOM     21  H   UNL     1       2.170   8.086  18.333  0.00  0.00    +0.000 HD
BRANCH  19  22
ATOM     22  C   UNL     1       1.179   8.684  20.502  0.00  0.00    +0.000 A 
ATOM     23  N   UNL     1       0.731   9.562  19.619  0.00  0.00    +0.000 NA
ATOM     24  C   UNL     1       0.263  10.676  20.302  0.00  0.00    +0.000 A 
ATOM     25  C   UNL     1       0.392  10.642  21.673  0.00  0.00    +0.000 A 
ATOM     26  S   UNL     1       1.102   9.169  22.154  0.00  0.00    +0.000 S 
BRANCH  24  27
ATOM     27  C   UNL     1      -0.394  11.871  19.622  0.00  0.00    +0.000 C 
ATOM     28  C   UNL     1      -1.223  11.671  18.375  0.00  0.00    +0.000 C 
ATOM     29  C   UNL     1      -1.903  11.968  19.668  0.00  0.00    +0.000 C 
ENDBRANCH  24  27
ENDBRANCH  19  22
ENDBRANCH   5  18
TORSDOF 6
ENDMDL
MODEL 2
REMARK VINA RESULT:      -8.6      1.123      1.137
REMARK  Name = 
REMARK  7 active torsions:
REMARK  status: ('A' for Active; 'I' for Inactive)
REMARK    1  A    between atoms: C_1  and  N_2
REMARK    2  A    between atoms: C_6  and  C_7
REMARK    3  A    between atoms: C_7  and  C_8
REMARK    4  A    between atoms: C_8  and  C_9
REMARK    5  A    between atoms: C_13  and  N_14
REMARK    6  A    between atoms: C_15  and  C_17
REMARK    7  A    between atoms: C_19  and  C_20
REMARK                            x       y       z     vdW  Elec       q    Type
REMARK                         _______ _______ _______ _____ _____    ______ ____
ROOT
ATOM      1  C   UNL     1       4.586   4.757  17.176  0.00  0.00    +0.000 A 
ATOM      2  C   UNL     1       3.837   3.583  16.967  0.00  0.00    +0.000 A 
ATOM      3  C   UNL     1       2.496   3.497  17.323  0.00  0.00    +0.000 A 
ATOM      4  C   UNL     1       1.860   4.593  17.908  0.00  0.00    +0.000 A 
ATOM      5  C   UNL     1       2.560   5.776  18.147  0.00  0.00    +0.000 A 
ATOM      6  C   UNL     1       3.904   5.849  17.766  0.00  0.00    +0.000 A 
ENDROOT
BRANCH   1   7
ATOM      7  C   UNL     1       6.130   4.850  16.750  0.00  0.00    +0.000 C 
ATOM      8  C   UNL     1       7.168   4.660  17.897  0.00  0.00    +0.000 C 
ATOM      9  O   UNL     1       7.736   5.964  17.688  0.00  0.00    +0.000 OA
ATOM     10  C   UNL     1       6.776   6.261  16.652  0.00  0.00    +0.000 C 
BRANCH   7  11
ATOM     11  C   UNL     1       6.411   3.905  15.566  0.00  0.00    +0.000 C 
BRANCH  11  17
ATOM     12  C   UNL     1       5.754   3.356  12.486  0.00  0.00    +0.000 C 
ATOM     13  N   UNL     1       6.706   4.281  13.039  0.00  0.00    +0.000 N 
ATOM     14  C   UNL     1       7.550   5.055  12.300  0.00  0.00    +0.000 A 
ATOM     15  N   UNL     1       8.274   5.804  13.096  0.00  0.00    +0.000 NA
ATOM     16  N   UNL     1       7.913   5.504  14.384  0.00  0.00    +0.000 NA
ATOM     17  C   UNL     1       6.982   4.570  14.355  0.00  0.00    +0.000 A 
ENDBRANCH  11  17
ENDBRANCH   7  11
ENDBRANCH   1   7
BRANCH   5  18
ATOM     18  N   UNL     1       1.971   6.915  18.740  0.00  0.00    +0.000 N 
ATOM     19  C   UNL     1       2.039   8.220  18.271  0.00  0.00    +0.000 C 
ATOM     20  O   UNL     1       2.575   8.528  17.210  0.00  0.00    +0.000 OA
ATOM     21  H   UNL     1       1.377   6.783  19.560  0.00  0.00    +0.000 HD
BRANCH  19  22
ATOM     22  C   UNL     1       1.404   9.207  19.142  0.00  0.00    +0.000 A 
ATOM     23  N   UNL     1       0.931  10.378  18.744  0.00  0.00    +0.000 NA
ATOM     24  C   UNL     1       0.340  11.007  19.831  0.00  0.00    +0.000 A 
ATOM     25  C   UNL     1       0.403  10.330  21.029  0.00  0.00    +0.000 A 
ATOM     26  S   UNL     1       1.205   8.842  20.814  0.00  0.00    +0.000 S 
BRANCH  24  27
ATOM     27  C   UNL     1      -0.376  12.349  19.744  0.00  0.00    +0.000 C 
ATOM     28  C   UNL     1      -0.206  13.220  18.521  0.00  0.00    +0.000 C 
ATOM     29  C   UNL     1      -1.489  12.490  18.729  0.00  0.00    +0.000 C 
ENDBRANCH  24  27
ENDBRANCH  19  22
ENDBRANCH   5  18
TORSDOF 6
ENDMDL
MODEL 3
REMARK VINA RESULT:      -8.5      1.541      1.995
REMARK  Name = 
REMARK  7 active torsions:
REMARK  status: ('A' for Active; 'I' for Inactive)
REMARK    1  A    between atoms: C_1  and  N_2
REMARK    2  A    between atoms: C_6  and  C_7
REMARK    3  A    between atoms: C_7  and  C_8
REMARK    4  A    between atoms: C_8  and  C_9
REMARK    5  A    between atoms: C_13  and  N_14
REMARK    6  A    between atoms: C_15  and  C_17
REMARK    7  A    between atoms: C_19  and  C_20
REMARK                            x       y       z     vdW  Elec       q    Type
REMARK                         _______ _______ _______ _____ _____    ______ ____
ROOT
ATOM      1  C   UNL     1       4.830   5.256  17.511  0.00  0.00    +0.000 A 
ATOM      2  C   UNL     1       4.111   4.097  17.158  0.00  0.00    +0.000 A 
ATOM      3  C   UNL     1       2.741   3.991  17.375  0.00  0.00    +0.000 A 
ATOM      4  C   UNL     1       2.046   5.050  17.959  0.00  0.00    +0.000 A 
ATOM      5  C   UNL     1       2.713   6.217  18.337  0.00  0.00    +0.000 A 
ATOM      6  C   UNL     1       4.087   6.311  18.095  0.00  0.00    +0.000 A 
ENDROOT
BRANCH   1   7
ATOM      7  C   UNL     1       6.408   5.372  17.245  0.00  0.00    +0.000 C 
ATOM      8  C   UNL     1       7.313   5.408  18.513  0.00  0.00    +0.000 C 
ATOM      9  O   UNL     1       7.850   6.699  18.173  0.00  0.00    +0.000 OA
ATOM     10  C   UNL     1       7.005   6.788  17.007  0.00  0.00    +0.000 C 
BRANCH   7  11
ATOM     11  C   UNL     1       6.861   4.283  16.253  0.00  0.00    +0.000 C 
BRANCH  11  17
ATOM     12  C   UNL     1       5.420   3.558  13.493  0.00  0.00    +0.000 C 
ATOM     13  N   UNL     1       6.556   4.413  13.704  0.00  0.00    +0.000 N 
ATOM     14  C   UNL     1       7.257   5.025  12.707  0.00  0.00    +0.000 A 
ATOM     15  N   UNL     1       8.217   5.752  13.224  0.00  0.00    +0.000 NA
ATOM     16  N   UNL     1       8.160   5.602  14.586  0.00  0.00    +0.000 NA
ATOM     17  C   UNL     1       7.172   4.778  14.878  0.00  0.00    +0.000 A 
ENDBRANCH  11  17
ENDBRANCH   7  11
ENDBRANCH   1   7
BRANCH   5  18
ATOM     18  N   UNL     1       2.063   7.318  18.936  0.00  0.00    +0.000 N 
ATOM     19  C   UNL     1       1.888   8.578  18.379  0.00  0.00    +0.000 C 
ATOM     20  O   UNL     1       2.224   8.861  17.232  0.00  0.00    +0.000 OA
ATOM     21  H   UNL     1       1.613   7.182  19.842  0.00  0.00    +0.000 HD
BRANCH  19  22
ATOM     22  C   UNL     1       1.252   9.547  19.269  0.00  0.00    +0.000 A 
ATOM     23  N   UNL     1       1.029   9.358  20.561  0.00  0.00    +0.000 NA
ATOM     24  C   UNL     1       0.477  10.518  21.087  0.00  0.00    +0.000 A 
ATOM     25  C   UNL     1       0.261  11.543  20.193  0.00  0.00    +0.000 A 
ATOM     26  S   UNL     1       0.774  11.076  18.637  0.00  0.00    +0.000 S 
BRANCH  24  27
ATOM     27  C   UNL     1       0.149  10.704  22.563  0.00  0.00    +0.000 C 
ATOM     28  C   UNL     1      -1.292  10.751  23.018  0.00  0.00    +0.000 C 
ATOM     29  C   UNL     1      -0.473   9.537  23.300  0.00  0.00    +0.000 C 
ENDBRANCH  24  27
ENDBRANCH  19  22
ENDBRANCH   5  18
TORSDOF 6
ENDMDL
MODEL 4
REMARK VINA RESULT:      -8.5      1.041      1.349
REMARK  Name = 
REMARK  7 active torsions:
REMARK  status: ('A' for Active; 'I' for Inactive)
REMARK    1  A    between atoms: C_1  and  N_2
REMARK    2  A    between atoms: C_6  and  C_7
REMARK    3  A    between atoms: C_7  and  C_8
REMARK    4  A    between atoms: C_8  and  C_9
REMARK    5  A    between atoms: C_13  and  N_14
REMARK    6  A    between atoms: C_15  and  C_17
REMARK    7  A    between atoms: C_19  and  C_20
REMARK                            x       y       z     vdW  Elec       q    Type
REMARK                         _______ _______ _______ _____ _____    ______ ____
ROOT
ATOM      1  C   UNL     1       4.606   4.921  17.145  0.00  0.00    +0.000 A 
ATOM      2  C   UNL     1       3.804   3.765  17.070  0.00  0.00    +0.000 A 
ATOM      3  C   UNL     1       2.467   3.777  17.453  0.00  0.00    +0.000 A 
ATOM      4  C   UNL     1       1.890   4.954  17.929  0.00  0.00    +0.000 A 
ATOM      5  C   UNL     1       2.643   6.124  18.033  0.00  0.00    +0.000 A 
ATOM      6  C   UNL     1       3.982   6.097  17.627  0.00  0.00    +0.000 A 
ENDROOT
BRANCH   1   7
ATOM      7  C   UNL     1       6.144   4.900  16.689  0.00  0.00    +0.000 C 
ATOM      8  C   UNL     1       7.187   4.645  17.818  0.00  0.00    +0.000 C 
ATOM      9  O   UNL     1       7.843   5.904  17.587  0.00  0.00    +0.000 OA
ATOM     10  C   UNL     1       6.887   6.260  16.567  0.00  0.00    +0.000 C 
BRANCH   7  11
ATOM     11  C   UNL     1       6.334   3.929  15.508  0.00  0.00    +0.000 C 
BRANCH  11  17
ATOM     12  C   UNL     1       5.707   3.307  12.436  0.00  0.00    +0.000 C 
ATOM     13  N   UNL     1       6.678   4.218  12.976  0.00  0.00    +0.000 N 
ATOM     14  C   UNL     1       7.557   4.943  12.227  0.00  0.00    +0.000 A 
ATOM     15  N   UNL     1       8.291   5.694  13.011  0.00  0.00    +0.000 NA
ATOM     16  N   UNL     1       7.902   5.445  14.303  0.00  0.00    +0.000 NA
ATOM     17  C   UNL     1       6.943   4.539  14.287  0.00  0.00    +0.000 A 
ENDBRANCH  11  17
ENDBRANCH   7  11
ENDBRANCH   1   7
BRANCH   5  18
ATOM     18  N   UNL     1       2.115   7.344  18.511  0.00  0.00    +0.000 N 
ATOM     19  C   UNL     1       1.699   7.613  19.807  0.00  0.00    +0.000 C 
ATOM     20  O   UNL     1       1.819   6.816  20.733  0.00  0.00    +0.000 OA
ATOM     21  H   UNL     1       2.086   8.142  17.875  0.00  0.00    +0.000 HD
BRANCH  19  22
ATOM     22  C   UNL     1       1.113   8.940  19.988  0.00  0.00    +0.000 A 
ATOM     23  N   UNL     1       0.785   9.472  21.156  0.00  0.00    +0.000 NA
ATOM     24  C   UNL     1       0.327  10.764  20.938  0.00  0.00    +0.000 A 
ATOM     25  C   UNL     1       0.283  11.176  19.625  0.00  0.00    +0.000 A 
ATOM     26  S   UNL     1       0.847   9.932  18.606  0.00  0.00    +0.000 S 
BRANCH  24  27
ATOM     27  C   UNL     1      -0.079  11.716  22.056  0.00  0.00    +0.000 C 
ATOM     28  C   UNL     1      -1.245  12.657  21.863  0.00  0.00    +0.000 C 
ATOM     29  C   UNL     1      -1.402  11.469  22.749  0.00  0.00    +0.000 C 
ENDBRANCH  24  27
ENDBRANCH  19  22
ENDBRANCH   5  18
TORSDOF 6
ENDMDL
MODEL 5
REMARK VINA RESULT:      -8.2      4.507      7.647
REMARK  Name = 
REMARK  7 active torsions:
REMARK  status: ('A' for Active; 'I' for Inactive)
REMARK    1  A    between atoms: C_1  and  N_2
REMARK    2  A    between atoms: C_6  and  C_7
REMARK    3  A    between atoms: C_7  and  C_8
REMARK    4  A    between atoms: C_8  and  C_9
REMARK    5  A    between atoms: C_13  and  N_14
REMARK    6  A    between atoms: C_15  and  C_17
REMARK    7  A    between atoms: C_19  and  C_20
REMARK                            x       y       z     vdW  Elec       q    Type
REMARK                         _______ _______ _______ _____ _____    ______ ____
ROOT
ATOM      1  C   UNL     1       4.985   4.488  17.051  0.00  0.00    +0.000 A 
ATOM      2  C   UNL     1       5.448   3.810  15.907  0.00  0.00    +0.000 A 
ATOM      3  C   UNL     1       6.509   4.294  15.148  0.00  0.00    +0.000 A 
ATOM      4  C   UNL     1       7.139   5.484  15.514  0.00  0.00    +0.000 A 
ATOM      5  C   UNL     1       6.712   6.201  16.633  0.00  0.00    +0.000 A 
ATOM      6  C   UNL     1       5.655   5.688  17.393  0.00  0.00    +0.000 A 
ENDROOT
BRANCH   1   7
ATOM      7  C   UNL     1       3.769   3.914  17.927  0.00  0.00    +0.000 C 
ATOM      8  C   UNL     1       3.539   2.375  17.849  0.00  0.00    +0.000 C 
ATOM      9  O   UNL     1       2.203   2.535  17.341  0.00  0.00    +0.000 OA
ATOM     10  C   UNL     1       2.341   3.971  17.316  0.00  0.00    +0.000 C 
BRANCH   7  11
ATOM     11  C   UNL     1       3.890   4.399  19.384  0.00  0.00    +0.000 C 
BRANCH  11  17
ATOM     12  C   UNL     1       0.847   4.621  20.339  0.00  0.00    +0.000 C 
ATOM     13  N   UNL     1       1.859   3.712  20.804  0.00  0.00    +0.000 N 
ATOM     14  C   UNL     1       1.681   2.807  21.807  0.00  0.00    +0.000 A 
ATOM     15  N   UNL     1       2.781   2.114  21.977  0.00  0.00    +0.000 NA
ATOM     16  N   UNL     1       3.707   2.584  21.081  0.00  0.00    +0.000 NA
ATOM     17  C   UNL     1       3.161   3.564  20.386  0.00  0.00    +0.000 A 
ENDBRANCH  11  17
ENDBRANCH   7  11
ENDBRANCH   1   7
BRANCH   5  18
ATOM     18  N   UNL     1       7.308   7.412  17.048  0.00  0.00    +0.000 N 
ATOM     19  C   UNL     1       8.038   7.618  18.210  0.00  0.00    +0.000 C 
ATOM     20  O   UNL     1       8.321   6.719  18.998  0.00  0.00    +0.000 OA
ATOM     21  H   UNL     1       7.267   8.214  16.418  0.00  0.00    +0.000 HD
BRANCH  19  22
ATOM     22  C   UNL     1       8.460   9.001  18.419  0.00  0.00    +0.000 A 
ATOM     23  N   UNL     1       9.296   9.406  19.363  0.00  0.00    +0.000 NA
ATOM     24  C   UNL     1       9.513  10.768  19.206  0.00  0.00    +0.000 A 
ATOM     25  C   UNL     1       8.822  11.375  18.180  0.00  0.00    +0.000 A 
ATOM     26  S   UNL     1       7.876  10.223  17.354  0.00  0.00    +0.000 S 
BRANCH  24  27
ATOM     27  C   UNL     1      10.475  11.576  20.068  0.00  0.00    +0.000 C 
ATOM     28  C   UNL     1      10.346  13.079  20.141  0.00  0.00    +0.000 C 
ATOM     29  C   UNL     1       9.918  12.251  21.303  0.00  0.00    +0.000 C 
ENDBRANCH  24  27
ENDBRANCH  19  22
ENDBRANCH   5  18
TORSDOF 6
ENDMDL
MODEL 6
REMARK VINA RESULT:      -8.2      2.773      4.192
REMARK  Name = 
REMARK  7 active torsions:
REMARK  status: ('A' for Active; 'I' for Inactive)
REMARK    1  A    between atoms: C_1  and  N_2
REMARK    2  A    between atoms: C_6  and  C_7
REMARK    3  A    between atoms: C_7  and  C_8
REMARK    4  A    between atoms: C_8  and  C_9
REMARK    5  A    between atoms: C_13  and  N_14
REMARK    6  A    between atoms: C_15  and  C_17
REMARK    7  A    between atoms: C_19  and  C_20
REMARK                            x       y       z     vdW  Elec       q    Type
REMARK                         _______ _______ _______ _____ _____    ______ ____
ROOT
ATOM      1  C   UNL     1       3.015   5.707  18.625  0.00  0.00    +0.000 A 
ATOM      2  C   UNL     1       3.570   6.266  17.456  0.00  0.00    +0.000 A 
ATOM      3  C   UNL     1       3.421   7.614  17.148  0.00  0.00    +0.000 A 
ATOM      4  C   UNL     1       2.703   8.448  18.006  0.00  0.00    +0.000 A 
ATOM      5  C   UNL     1       2.125   7.943  19.171  0.00  0.00    +0.000 A 
ATOM      6  C   UNL     1       2.301   6.588  19.473  0.00  0.00    +0.000 A 
ENDROOT
BRANCH   1   7
ATOM      7  C   UNL     1       3.204   4.154  18.977  0.00  0.00    +0.000 C 
ATOM      8  C   UNL     1       1.987   3.231  18.667  0.00  0.00    +0.000 C 
ATOM      9  O   UNL     1       1.859   2.827  20.041  0.00  0.00    +0.000 OA
ATOM     10  C   UNL     1       2.936   3.700  20.440  0.00  0.00    +0.000 C 
BRANCH   7  11
ATOM     11  C   UNL     1       4.501   3.619  18.342  0.00  0.00    +0.000 C 
BRANCH  11  17
ATOM     12  C   UNL     1       6.869   4.508  16.387  0.00  0.00    +0.000 C 
ATOM     13  N   UNL     1       6.750   4.742  17.800  0.00  0.00    +0.000 N 
ATOM     14  C   UNL     1       7.698   5.356  18.563  0.00  0.00    +0.000 A 
ATOM     15  N   UNL     1       7.281   5.438  19.804  0.00  0.00    +0.000 NA
ATOM     16  N   UNL     1       6.043   4.851  19.862  0.00  0.00    +0.000 NA
ATOM     17  C   UNL     1       5.728   4.411  18.659  0.00  0.00    +0.000 A 
ENDBRANCH  11  17
ENDBRANCH   7  11
ENDBRANCH   1   7
BRANCH   5  18
ATOM     18  N   UNL     1       1.385   8.738  20.074  0.00  0.00    +0.000 N 
ATOM     19  C   UNL     1       0.403   9.663  19.748  0.00  0.00    +0.000 C 
ATOM     20  O   UNL     1       0.002   9.845  18.603  0.00  0.00    +0.000 OA
ATOM     21  H   UNL     1       1.522   8.590  21.075  0.00  0.00    +0.000 HD
BRANCH  19  22
ATOM     22  C   UNL     1      -0.130  10.402  20.891  0.00  0.00    +0.000 A 
ATOM     23  N   UNL     1      -0.517  11.668  20.862  0.00  0.00    +0.000 NA
ATOM     24  C   UNL     1      -1.030  12.001  22.108  0.00  0.00    +0.000 A 
ATOM     25  C   UNL     1      -0.993  11.007  23.061  0.00  0.00    +0.000 A 
ATOM     26  S   UNL     1      -0.318   9.590  22.398  0.00  0.00    +0.000 S 
BRANCH  24  27
ATOM     27  C   UNL     1      -1.639  13.359  22.436  0.00  0.00    +0.000 C 
ATOM     28  C   UNL     1      -1.641  13.863  23.861  0.00  0.00    +0.000 C 
ATOM     29  C   UNL     1      -0.703  14.465  22.871  0.00  0.00    +0.000 C 
ENDBRANCH  24  27
ENDBRANCH  19  22
ENDBRANCH   5  18
TORSDOF 6
ENDMDL
MODEL 7
REMARK VINA RESULT:      -8.2      0.891      1.075
REMARK  Name = 
REMARK  7 active torsions:
REMARK  status: ('A' for Active; 'I' for Inactive)
REMARK    1  A    between atoms: C_1  and  N_2
REMARK    2  A    between atoms: C_6  and  C_7
REMARK    3  A    between atoms: C_7  and  C_8
REMARK    4  A    between atoms: C_8  and  C_9
REMARK    5  A    between atoms: C_13  and  N_14
REMARK    6  A    between atoms: C_15  and  C_17
REMARK    7  A    between atoms: C_19  and  C_20
REMARK                            x       y       z     vdW  Elec       q    Type
REMARK                         _______ _______ _______ _____ _____    ______ ____
ROOT
ATOM      1  C   UNL     1       4.565   5.150  17.415  0.00  0.00    +0.000 A 
ATOM      2  C   UNL     1       3.854   3.961  17.673  0.00  0.00    +0.000 A 
ATOM      3  C   UNL     1       2.544   3.978  18.139  0.00  0.00    +0.000 A 
ATOM      4  C   UNL     1       1.903   5.195  18.367  0.00  0.00    +0.000 A 
ATOM      5  C   UNL     1       2.565   6.402  18.137  0.00  0.00    +0.000 A 
ATOM      6  C   UNL     1       3.876   6.365  17.652  0.00  0.00    +0.000 A 
ENDROOT
BRANCH   1   7
ATOM      7  C   UNL     1       6.071   5.120  16.865  0.00  0.00    +0.000 C 
ATOM      8  C   UNL     1       7.183   4.887  17.931  0.00  0.00    +0.000 C 
ATOM      9  O   UNL     1       7.821   6.142  17.635  0.00  0.00    +0.000 OA
ATOM     10  C   UNL     1       6.803   6.478  16.669  0.00  0.00    +0.000 C 
BRANCH   7  11
ATOM     11  C   UNL     1       6.189   4.126  15.694  0.00  0.00    +0.000 C 
BRANCH  11  17
ATOM     12  C   UNL     1       5.648   3.423  12.623  0.00  0.00    +0.000 C 
ATOM     13  N   UNL     1       6.636   4.312  13.169  0.00  0.00    +0.000 N 
ATOM     14  C   UNL     1       7.571   4.974  12.430  0.00  0.00    +0.000 A 
ATOM     15  N   UNL     1       8.308   5.721  13.216  0.00  0.00    +0.000 NA
ATOM     16  N   UNL     1       7.862   5.533  14.499  0.00  0.00    +0.000 NA
ATOM     17  C   UNL     1       6.867   4.667  14.477  0.00  0.00    +0.000 A 
ENDBRANCH  11  17
ENDBRANCH   7  11
ENDBRANCH   1   7
BRANCH   5  18
ATOM     18  N   UNL     1       1.968   7.664  18.353  0.00  0.00    +0.000 N 
ATOM     19  C   UNL     1       1.582   8.198  19.575  0.00  0.00    +0.000 C 
ATOM     20  O   UNL     1       1.793   7.644  20.650  0.00  0.00    +0.000 OA
ATOM     21  H   UNL     1       1.858   8.291  17.555  0.00  0.00    +0.000 HD
BRANCH  19  22
ATOM     22  C   UNL     1       0.909   9.492  19.481  0.00  0.00    +0.000 A 
ATOM     23  N   UNL     1       0.055   9.836  18.529  0.00  0.00    +0.000 NA
ATOM     24  C   UNL     1      -0.430  11.106  18.809  0.00  0.00    +0.000 A 
ATOM     25  C   UNL     1       0.081  11.712  19.936  0.00  0.00    +0.000 A 
ATOM     26  S   UNL     1       1.194  10.673  20.701  0.00  0.00    +0.000 S 
BRANCH  24  27
ATOM     27  C   UNL     1      -1.489  11.811  17.971  0.00  0.00    +0.000 C 
ATOM     28  C   UNL     1      -2.127  11.097  16.801  0.00  0.00    +0.000 C 
ATOM     29  C   UNL     1      -2.910  11.299  18.053  0.00  0.00    +0.000 C 
ENDBRANCH  24  27
ENDBRANCH  19  22
ENDBRANCH   5  18
TORSDOF 6
ENDMDL
MODEL 8
REMARK VINA RESULT:      -8.2      3.642      9.541
REMARK  Name = 
REMARK  7 active torsions:
REMARK  status: ('A' for Active; 'I' for Inactive)
REMARK    1  A    between atoms: C_1  and  N_2
REMARK    2  A    between atoms: C_6  and  C_7
REMARK    3  A    between atoms: C_7  and  C_8
REMARK    4  A    between atoms: C_8  and  C_9
REMARK    5  A    between atoms: C_13  and  N_14
REMARK    6  A    between atoms: C_15  and  C_17
REMARK    7  A    between atoms: C_19  and  C_20
REMARK                            x       y       z     vdW  Elec       q    Type
REMARK                         _______ _______ _______ _____ _____    ______ ____
ROOT
ATOM      1  C   UNL     1       0.061  10.314  20.218  0.00  0.00    +0.000 A 
ATOM      2  C   UNL     1      -0.378  10.218  21.553  0.00  0.00    +0.000 A 
ATOM      3  C   UNL     1       0.064   9.204  22.397  0.00  0.00    +0.000 A 
ATOM      4  C   UNL     1       0.963   8.248  21.924  0.00  0.00    +0.000 A 
ATOM      5  C   UNL     1       1.420   8.292  20.607  0.00  0.00    +0.000 A 
ATOM      6  C   UNL     1       0.978   9.328  19.778  0.00  0.00    +0.000 A 
ENDROOT
BRANCH   1   7
ATOM      7  C   UNL     1      -0.445  11.494  19.256  0.00  0.00    +0.000 C 
ATOM      8  C   UNL     1      -1.737  12.237  19.709  0.00  0.00    +0.000 C 
ATOM      9  O   UNL     1      -2.443  11.877  18.509  0.00  0.00    +0.000 OA
ATOM     10  C   UNL     1      -1.319  11.110  18.029  0.00  0.00    +0.000 C 
BRANCH   7  11
ATOM     11  C   UNL     1       0.707  12.477  18.971  0.00  0.00    +0.000 C 
BRANCH  11  17
ATOM     12  C   UNL     1      -0.034  15.582  19.144  0.00  0.00    +0.000 C 
ATOM     13  N   UNL     1       0.693  14.789  20.097  0.00  0.00    +0.000 N 
ATOM     14  C   UNL     1       1.251  15.276  21.242  0.00  0.00    +0.000 A 
ATOM     15  N   UNL     1       1.822  14.301  21.905  0.00  0.00    +0.000 NA
ATOM     16  N   UNL     1       1.653  13.152  21.175  0.00  0.00    +0.000 NA
ATOM     17  C   UNL     1       0.991  13.446  20.072  0.00  0.00    +0.000 A 
ENDBRANCH  11  17
ENDBRANCH   7  11
ENDBRANCH   1   7
BRANCH   5  18
ATOM     18  N   UNL     1       2.326   7.350  20.072  0.00  0.00    +0.000 N 
ATOM     19  C   UNL     1       2.252   5.969  20.195  0.00  0.00    +0.000 C 
ATOM     20  O   UNL     1       1.316   5.390  20.738  0.00  0.00    +0.000 OA
ATOM     21  H   UNL     1       3.084   7.689  19.477  0.00  0.00    +0.000 HD
BRANCH  19  22
ATOM     22  C   UNL     1       3.382   5.251  19.609  0.00  0.00    +0.000 A 
ATOM     23  N   UNL     1       4.495   5.817  19.168  0.00  0.00    +0.000 NA
ATOM     24  C   UNL     1       5.363   4.817  18.750  0.00  0.00    +0.000 A 
ATOM     25  C   UNL     1       4.889   3.527  18.846  0.00  0.00    +0.000 A 
ATOM     26  S   UNL     1       3.315   3.533  19.498  0.00  0.00    +0.000 S 
BRANCH  24  27
ATOM     27  C   UNL     1       6.775   5.081  18.242  0.00  0.00    +0.000 C 
ATOM     28  C   UNL     1       7.222   6.495  17.949  0.00  0.00    +0.000 C 
ATOM     29  C   UNL     1       7.734   5.801  19.166  0.00  0.00    +0.000 C 
ENDBRANCH  24  27
ENDBRANCH  19  22
ENDBRANCH   5  18
TORSDOF 6
ENDMDL
MODEL 9
REMARK VINA RESULT:      -8.1      4.548      7.872
REMARK  Name = 
REMARK  7 active torsions:
REMARK  status: ('A' for Active; 'I' for Inactive)
REMARK    1  A    between atoms: C_1  and  N_2
REMARK    2  A    between atoms: C_6  and  C_7
REMARK    3  A    between atoms: C_7  and  C_8
REMARK    4  A    between atoms: C_8  and  C_9
REMARK    5  A    between atoms: C_13  and  N_14
REMARK    6  A    between atoms: C_15  and  C_17
REMARK    7  A    between atoms: C_19  and  C_20
REMARK                            x       y       z     vdW  Elec       q    Type
REMARK                         _______ _______ _______ _____ _____    ______ ____
ROOT
ATOM      1  C   UNL     1       4.467   5.172  17.375  0.00  0.00    +0.000 A 
ATOM      2  C   UNL     1       4.929   4.325  16.348  0.00  0.00    +0.000 A 
ATOM      3  C   UNL     1       6.088   4.609  15.633  0.00  0.00    +0.000 A 
ATOM      4  C   UNL     1       6.821   5.759  15.924  0.00  0.00    +0.000 A 
ATOM      5  C   UNL     1       6.401   6.636  16.925  0.00  0.00    +0.000 A 
ATOM      6  C   UNL     1       5.243   6.326  17.645  0.00  0.00    +0.000 A 
ENDROOT
BRANCH   1   7
ATOM      7  C   UNL     1       3.136   4.830  18.203  0.00  0.00    +0.000 C 
ATOM      8  C   UNL     1       2.460   3.464  17.876  0.00  0.00    +0.000 C 
ATOM      9  O   UNL     1       1.231   4.094  17.474  0.00  0.00    +0.000 OA
ATOM     10  C   UNL     1       1.788   5.408  17.688  0.00  0.00    +0.000 C 
BRANCH   7  11
ATOM     11  C   UNL     1       3.395   4.989  19.713  0.00  0.00    +0.000 C 
BRANCH  11  17
ATOM     12  C   UNL     1       4.535   2.086  20.414  0.00  0.00    +0.000 C 
ATOM     13  N   UNL     1       3.285   2.671  20.819  0.00  0.00    +0.000 N 
ATOM     14  C   UNL     1       2.331   2.024  21.547  0.00  0.00    +0.000 A 
ATOM     15  N   UNL     1       1.324   2.833  21.771  0.00  0.00    +0.000 NA
ATOM     16  N   UNL     1       1.612   4.028  21.164  0.00  0.00    +0.000 NA
ATOM     17  C   UNL     1       2.786   3.927  20.570  0.00  0.00    +0.000 A 
ENDBRANCH  11  17
ENDBRANCH   7  11
ENDBRANCH   1   7
BRANCH   5  18
ATOM     18  N   UNL     1       7.100   7.817  17.261  0.00  0.00    +0.000 N 
ATOM     19  C   UNL     1       8.060   7.955  18.253  0.00  0.00    +0.000 C 
ATOM     20  O   UNL     1       8.478   7.015  18.922  0.00  0.00    +0.000 OA
ATOM     21  H   UNL     1       6.948   8.649  16.689  0.00  0.00    +0.000 HD
BRANCH  19  22
ATOM     22  C   UNL     1       8.550   9.321  18.430  0.00  0.00    +0.000 A 
ATOM     23  N   UNL     1       9.448   9.695  19.329  0.00  0.00    +0.000 NA
ATOM     24  C   UNL     1       9.714  11.045  19.151  0.00  0.00    +0.000 A 
ATOM     25  C   UNL     1       8.999  11.676  18.157  0.00  0.00    +0.000 A 
ATOM     26  S   UNL     1       7.965  10.561  17.388  0.00  0.00    +0.000 S 
BRANCH  24  27
ATOM     27  C   UNL     1      10.750  11.816  19.960  0.00  0.00    +0.000 C 
ATOM     28  C   UNL     1      12.220  11.666  19.644  0.00  0.00    +0.000 C 
ATOM     29  C   UNL     1      11.512  12.921  19.260  0.00  0.00    +0.000 C 
ENDBRANCH  24  27
ENDBRANCH  19  22
ENDBRANCH   5  18
TORSDOF 6
ENDMDL
