MODEL 1
REMARK VINA RESULT:      -9.8      0.000      0.000
REMARK  Name = 
REMARK  8 active torsions:
REMARK  status: ('A' for Active; 'I' for Inactive)
REMARK    1  A    between atoms: C_1  and  N_2
REMARK    2  A    between atoms: C_6  and  C_7
REMARK    3  A    between atoms: C_7  and  C_8
REMARK    4  A    between atoms: C_8  and  C_9
REMARK    5  A    between atoms: C_13  and  N_14
REMARK    6  A    between atoms: C_19  and  C_20
REMARK    7  A    between atoms: C_20  and  N_21
REMARK    8  A    between atoms: C_28  and  C_29
REMARK                            x       y       z     vdW  Elec       q    Type
REMARK                         _______ _______ _______ _____ _____    ______ ____
ROOT
ATOM      1  N   UNL     1       1.606   7.856  20.228  0.00  0.00    +0.000 N 
ATOM      2  C   UNL     1       1.700   6.546  20.841  0.00  0.00    +0.000 C 
ATOM      3  C   UNL     1       2.308   5.697  19.800  0.00  0.00    +0.000 A 
ATOM      4  C   UNL     1       2.719   6.485  18.730  0.00  0.00    +0.000 A 
ATOM      5  C   UNL     1       3.427   5.923  17.677  0.00  0.00    +0.000 A 
ATOM      6  C   UNL     1       3.677   4.527  17.705  0.00  0.00    +0.000 A 
ATOM      7  C   UNL     1       3.159   3.743  18.764  0.00  0.00    +0.000 A 
ATOM      8  C   UNL     1       2.471   4.320  19.842  0.00  0.00    +0.000 A 
ATOM      9  C   UNL     1       2.234   7.879  18.982  0.00  0.00    +0.000 C 
ATOM     10  O   UNL     1       2.373   8.792  18.181  0.00  0.00    +0.000 OA
ENDROOT
BRANCH   1  15
ATOM     11  C   UNL     1      -0.483  10.949  20.545  0.00  0.00    +0.000 A 
ATOM     12  C   UNL     1      -0.629  11.005  21.934  0.00  0.00    +0.000 A 
ATOM     13  C   UNL     1      -0.097  10.004  22.772  0.00  0.00    +0.000 A 
ATOM     14  C   UNL     1       0.628   8.927  22.243  0.00  0.00    +0.000 A 
ATOM     15  C   UNL     1       0.807   8.836  20.871  0.00  0.00    +0.000 A 
ATOM     16  C   UNL     1       0.208   9.828  20.068  0.00  0.00    +0.000 A 
BRANCH  11  17
ATOM     17  C   UNL     1      -1.052  12.042  19.497  0.00  0.00    +0.000 C 
ATOM     18  C   UNL     1      -0.117  12.323  18.289  0.00  0.00    +0.000 C 
ATOM     19  O   UNL     1       0.063  13.703  18.651  0.00  0.00    +0.000 OA
ATOM     20  C   UNL     1      -0.787  13.553  19.814  0.00  0.00    +0.000 C 
BRANCH  17  21
ATOM     21  C   UNL     1      -2.531  11.752  19.104  0.00  0.00    +0.000 C 
BRANCH  21  27
ATOM     22  C   UNL     1      -5.030  11.973  17.089  0.00  0.00    +0.000 C 
ATOM     23  N   UNL     1      -3.815  11.218  16.927  0.00  0.00    +0.000 N 
ATOM     24  C   UNL     1      -3.555  10.429  15.843  0.00  0.00    +0.000 A 
ATOM     25  N   UNL     1      -2.397   9.837  16.001  0.00  0.00    +0.000 NA
ATOM     26  N   UNL     1      -1.891  10.232  17.212  0.00  0.00    +0.000 NA
ATOM     27  C   UNL     1      -2.726  11.092  17.765  0.00  0.00    +0.000 A 
ENDBRANCH  21  27
ENDBRANCH  17  21
ENDBRANCH  11  17
ENDBRANCH   1  15
BRANCH   8  28
ATOM     28  C   UNL     1       1.958   3.467  20.970  0.00  0.00    +0.000 C 
ATOM     29  F   UNL     1       0.603   3.435  21.064  0.00  0.00    +0.000 F 
ATOM     30  F   UNL     1       2.362   2.172  20.863  0.00  0.00    +0.000 F 
ATOM     31  F   UNL     1       2.393   3.899  22.187  0.00  0.00    +0.000 F 
ENDBRANCH   8  28
BRANCH   6  32
ATOM     32  C   UNL     1       4.617   3.894  16.689  0.00  0.00    +0.000 C 
BRANCH  32  33
ATOM     33  N   UNL     1       5.621   4.796  16.100  0.00  0.00    +0.000 NA
ATOM     34  C   UNL     1       6.836   4.080  15.680  0.00  0.00    +0.000 C 
ATOM     35  C   UNL     1       6.641   4.678  14.343  0.00  0.00    +0.000 C 
ATOM     36  C   UNL     1       7.637   5.474  13.558  0.00  0.00    +0.000 C 
ATOM     37  C   UNL     1       7.124   4.161  13.026  0.00  0.00    +0.000 C 
ATOM     38  C   UNL     1       5.268   5.085  14.699  0.00  0.00    +0.000 C 
ENDBRANCH  32  33
ENDBRANCH   6  32
TORSDOF 7
ENDMDL
MODEL 2
REMARK VINA RESULT:      -9.8      1.912      2.766
REMARK  Name = 
REMARK  8 active torsions:
REMARK  status: ('A' for Active; 'I' for Inactive)
REMARK    1  A    between atoms: C_1  and  N_2
REMARK    2  A    between atoms: C_6  and  C_7
REMARK    3  A    between atoms: C_7  and  C_8
REMARK    4  A    between atoms: C_8  and  C_9
REMARK    5  A    between atoms: C_13  and  N_14
REMARK    6  A    between atoms: C_19  and  C_20
REMARK    7  A    between atoms: C_20  and  N_21
REMARK    8  A    between atoms: C_28  and  C_29
REMARK                            x       y       z     vdW  Elec       q    Type
REMARK                         _______ _______ _______ _____ _____    ______ ____
ROOT
ATOM      1  N   UNL     1       1.408   8.989  19.369  0.00  0.00    +0.000 N 
ATOM      2  C   UNL     1       1.470   7.745  20.111  0.00  0.00    +0.000 C 
ATOM      3  C   UNL     1       2.367   6.888  19.314  0.00  0.00    +0.000 A 
ATOM      4  C   UNL     1       2.942   7.632  18.289  0.00  0.00    +0.000 A 
ATOM      5  C   UNL     1       3.916   7.069  17.476  0.00  0.00    +0.000 A 
ATOM      6  C   UNL     1       4.270   5.713  17.692  0.00  0.00    +0.000 A 
ATOM      7  C   UNL     1       3.593   4.961  18.683  0.00  0.00    +0.000 A 
ATOM      8  C   UNL     1       2.633   5.543  19.524  0.00  0.00    +0.000 A 
ATOM      9  C   UNL     1       2.297   8.983  18.294  0.00  0.00    +0.000 C 
ATOM     10  O   UNL     1       2.537   9.843  17.459  0.00  0.00    +0.000 OA
ENDROOT
BRANCH   1  15
ATOM     11  C   UNL     1      -1.734  10.995  19.002  0.00  0.00    +0.000 A 
ATOM     12  C   UNL     1      -1.602  11.860  20.094  0.00  0.00    +0.000 A 
ATOM     13  C   UNL     1      -0.518  11.757  20.989  0.00  0.00    +0.000 A 
ATOM     14  C   UNL     1       0.489  10.799  20.799  0.00  0.00    +0.000 A 
ATOM     15  C   UNL     1       0.404   9.926  19.724  0.00  0.00    +0.000 A 
ATOM     16  C   UNL     1      -0.727  10.029  18.889  0.00  0.00    +0.000 A 
BRANCH  11  17
ATOM     17  C   UNL     1      -2.935  11.029  17.919  0.00  0.00    +0.000 C 
ATOM     18  C   UNL     1      -3.555   9.641  17.603  0.00  0.00    +0.000 C 
ATOM     19  O   UNL     1      -3.161   9.695  16.220  0.00  0.00    +0.000 OA
ATOM     20  C   UNL     1      -2.542  10.992  16.403  0.00  0.00    +0.000 C 
BRANCH  17  21
ATOM     21  C   UNL     1      -3.982  12.134  18.250  0.00  0.00    +0.000 C 
BRANCH  21  27
ATOM     22  C   UNL     1      -5.048  12.591  21.252  0.00  0.00    +0.000 C 
ATOM     23  N   UNL     1      -5.681  11.870  20.179  0.00  0.00    +0.000 N 
ATOM     24  C   UNL     1      -6.878  11.225  20.304  0.00  0.00    +0.000 A 
ATOM     25  N   UNL     1      -7.172  10.625  19.177  0.00  0.00    +0.000 NA
ATOM     26  N   UNL     1      -6.148  10.868  18.299  0.00  0.00    +0.000 NA
ATOM     27  C   UNL     1      -5.257  11.646  18.884  0.00  0.00    +0.000 A 
ENDBRANCH  21  27
ENDBRANCH  17  21
ENDBRANCH  11  17
ENDBRANCH   1  15
BRANCH   8  28
ATOM     28  C   UNL     1       1.950   4.728  20.589  0.00  0.00    +0.000 C 
ATOM     29  F   UNL     1       2.021   3.386  20.387  0.00  0.00    +0.000 F 
ATOM     30  F   UNL     1       2.474   4.953  21.825  0.00  0.00    +0.000 F 
ATOM     31  F   UNL     1       0.620   5.008  20.685  0.00  0.00    +0.000 F 
ENDBRANCH   8  28
BRANCH   6  32
ATOM     32  C   UNL     1       5.465   5.106  16.971  0.00  0.00    +0.000 C 
BRANCH  32  33
ATOM     33  N   UNL     1       5.154   4.337  15.755  0.00  0.00    +0.000 NA
ATOM     34  C   UNL     1       5.185   5.171  14.544  0.00  0.00    +0.000 C 
ATOM     35  C   UNL     1       6.147   4.198  13.983  0.00  0.00    +0.000 C 
ATOM     36  C   UNL     1       6.037   3.471  12.679  0.00  0.00    +0.000 C 
ATOM     37  C   UNL     1       7.174   4.430  12.922  0.00  0.00    +0.000 C 
ATOM     38  C   UNL     1       6.352   3.598  15.316  0.00  0.00    +0.000 C 
ENDBRANCH  32  33
ENDBRANCH   6  32
TORSDOF 7
ENDMDL
MODEL 3
REMARK VINA RESULT:      -9.8      1.876      2.911
REMARK  Name = 
REMARK  8 active torsions:
REMARK  status: ('A' for Active; 'I' for Inactive)
REMARK    1  A    between atoms: C_1  and  N_2
REMARK    2  A    between atoms: C_6  and  C_7
REMARK    3  A    between atoms: C_7  and  C_8
REMARK    4  A    between atoms: C_8  and  C_9
REMARK    5  A    between atoms: C_13  and  N_14
REMARK    6  A    between atoms: C_19  and  C_20
REMARK    7  A    between atoms: C_20  and  N_21
REMARK    8  A    between atoms: C_28  and  C_29
REMARK                            x       y       z     vdW  Elec       q    Type
REMARK                         _______ _______ _______ _____ _____    ______ ____
ROOT
ATOM      1  N   UNL     1       1.673   8.000  19.954  0.00  0.00    +0.000 N 
ATOM      2  C   UNL     1       1.710   6.710  20.615  0.00  0.00    +0.000 C 
ATOM      3  C   UNL     1       2.357   5.815  19.638  0.00  0.00    +0.000 A 
ATOM      4  C   UNL     1       2.839   6.558  18.566  0.00  0.00    +0.000 A 
ATOM      5  C   UNL     1       3.592   5.948  17.572  0.00  0.00    +0.000 A 
ATOM      6  C   UNL     1       3.814   4.551  17.660  0.00  0.00    +0.000 A 
ATOM      7  C   UNL     1       3.226   3.813  18.717  0.00  0.00    +0.000 A 
ATOM      8  C   UNL     1       2.492   4.438  19.736  0.00  0.00    +0.000 A 
ATOM      9  C   UNL     1       2.367   7.969  18.744  0.00  0.00    +0.000 C 
ATOM     10  O   UNL     1       2.566   8.850  17.921  0.00  0.00    +0.000 OA
ENDROOT
BRANCH   1  15
ATOM     11  C   UNL     1      -0.743  10.861  20.012  0.00  0.00    +0.000 A 
ATOM     12  C   UNL     1      -0.674  11.213  21.364  0.00  0.00    +0.000 A 
ATOM     13  C   UNL     1       0.115  10.484  22.276  0.00  0.00    +0.000 A 
ATOM     14  C   UNL     1       0.888   9.393  21.853  0.00  0.00    +0.000 A 
ATOM     15  C   UNL     1       0.859   9.014  20.519  0.00  0.00    +0.000 A 
ATOM     16  C   UNL     1       0.011   9.736  19.655  0.00  0.00    +0.000 A 
BRANCH  11  17
ATOM     17  C   UNL     1      -1.614  11.629  18.886  0.00  0.00    +0.000 C 
ATOM     18  C   UNL     1      -2.959  12.212  19.400  0.00  0.00    +0.000 C 
ATOM     19  O   UNL     1      -3.742  11.379  18.527  0.00  0.00    +0.000 OA
ATOM     20  C   UNL     1      -2.551  10.759  17.980  0.00  0.00    +0.000 C 
BRANCH  17  21
ATOM     21  C   UNL     1      -0.751  12.641  18.076  0.00  0.00    +0.000 C 
BRANCH  21  27
ATOM     22  C   UNL     1       2.452  12.359  18.225  0.00  0.00    +0.000 C 
ATOM     23  N   UNL     1       1.603  13.294  18.916  0.00  0.00    +0.000 N 
ATOM     24  C   UNL     1       2.069  14.227  19.797  0.00  0.00    +0.000 A 
ATOM     25  N   UNL     1       1.061  14.899  20.296  0.00  0.00    +0.000 NA
ATOM     26  N   UNL     1      -0.088  14.394  19.744  0.00  0.00    +0.000 NA
ATOM     27  C   UNL     1       0.232  13.445  18.885  0.00  0.00    +0.000 A 
ENDBRANCH  21  27
ENDBRANCH  17  21
ENDBRANCH  11  17
ENDBRANCH   1  15
BRANCH   8  28
ATOM     28  C   UNL     1       1.904   3.633  20.863  0.00  0.00    +0.000 C 
ATOM     29  F   UNL     1       2.196   2.307  20.804  0.00  0.00    +0.000 F 
ATOM     30  F   UNL     1       2.331   4.063  22.081  0.00  0.00    +0.000 F 
ATOM     31  F   UNL     1       0.543   3.701  20.893  0.00  0.00    +0.000 F 
ENDBRANCH   8  28
BRANCH   6  32
ATOM     32  C   UNL     1       4.795   3.868  16.719  0.00  0.00    +0.000 C 
BRANCH  32  33
ATOM     33  N   UNL     1       5.679   4.765  15.957  0.00  0.00    +0.000 NA
ATOM     34  C   UNL     1       6.910   4.092  15.513  0.00  0.00    +0.000 C 
ATOM     35  C   UNL     1       6.568   4.524  14.142  0.00  0.00    +0.000 C 
ATOM     36  C   UNL     1       7.437   5.295  13.197  0.00  0.00    +0.000 C 
ATOM     37  C   UNL     1       6.988   3.899  12.850  0.00  0.00    +0.000 C 
ATOM     38  C   UNL     1       5.199   4.873  14.567  0.00  0.00    +0.000 C 
ENDBRANCH  32  33
ENDBRANCH   6  32
TORSDOF 7
ENDMDL
MODEL 4
REMARK VINA RESULT:      -9.7      1.157      1.640
REMARK  Name = 
REMARK  8 active torsions:
REMARK  status: ('A' for Active; 'I' for Inactive)
REMARK    1  A    between atoms: C_1  and  N_2
REMARK    2  A    between atoms: C_6  and  C_7
REMARK    3  A    between atoms: C_7  and  C_8
REMARK    4  A    between atoms: C_8  and  C_9
REMARK    5  A    between atoms: C_13  and  N_14
REMARK    6  A    between atoms: C_19  and  C_20
REMARK    7  A    between atoms: C_20  and  N_21
REMARK    8  A    between atoms: C_28  and  C_29
REMARK                            x       y       z     vdW  Elec       q    Type
REMARK                         _______ _______ _______ _____ _____    ______ ____
ROOT
ATOM      1  N   UNL     1       1.746   7.820  20.097  0.00  0.00    +0.000 N 
ATOM      2  C   UNL     1       1.770   6.515  20.728  0.00  0.00    +0.000 C 
ATOM      3  C   UNL     1       2.360   5.626  19.710  0.00  0.00    +0.000 A 
ATOM      4  C   UNL     1       2.826   6.381  18.639  0.00  0.00    +0.000 A 
ATOM      5  C   UNL     1       3.530   5.774  17.608  0.00  0.00    +0.000 A 
ATOM      6  C   UNL     1       3.718   4.369  17.658  0.00  0.00    +0.000 A 
ATOM      7  C   UNL     1       3.145   3.623  18.717  0.00  0.00    +0.000 A 
ATOM      8  C   UNL     1       2.462   4.244  19.773  0.00  0.00    +0.000 A 
ATOM      9  C   UNL     1       2.398   7.798  18.864  0.00  0.00    +0.000 C 
ATOM     10  O   UNL     1       2.593   8.693  18.054  0.00  0.00    +0.000 OA
ENDROOT
BRANCH   1  15
ATOM     11  C   UNL     1       0.530  11.297  20.772  0.00  0.00    +0.000 A 
ATOM     12  C   UNL     1      -0.265  11.065  21.899  0.00  0.00    +0.000 A 
ATOM     13  C   UNL     1      -0.456   9.766  22.411  0.00  0.00    +0.000 A 
ATOM     14  C   UNL     1       0.172   8.657  21.824  0.00  0.00    +0.000 A 
ATOM     15  C   UNL     1       0.978   8.842  20.711  0.00  0.00    +0.000 A 
ATOM     16  C   UNL     1       1.093  10.150  20.199  0.00  0.00    +0.000 A 
BRANCH  11  17
ATOM     17  C   UNL     1       0.814  12.744  20.107  0.00  0.00    +0.000 C 
ATOM     18  C   UNL     1       1.829  12.724  18.931  0.00  0.00    +0.000 C 
ATOM     19  O   UNL     1       2.765  13.568  19.624  0.00  0.00    +0.000 OA
ATOM     20  C   UNL     1       1.899  13.650  20.783  0.00  0.00    +0.000 C 
BRANCH  17  21
ATOM     21  C   UNL     1      -0.507  13.507  19.794  0.00  0.00    +0.000 C 
BRANCH  21  27
ATOM     22  C   UNL     1      -3.460  12.710  20.797  0.00  0.00    +0.000 C 
ATOM     23  N   UNL     1      -2.824  12.389  19.547  0.00  0.00    +0.000 N 
ATOM     24  C   UNL     1      -3.413  11.638  18.570  0.00  0.00    +0.000 A 
ATOM     25  N   UNL     1      -2.576  11.479  17.575  0.00  0.00    +0.000 NA
ATOM     26  N   UNL     1      -1.412  12.124  17.905  0.00  0.00    +0.000 NA
ATOM     27  C   UNL     1      -1.563  12.704  19.081  0.00  0.00    +0.000 A 
ENDBRANCH  21  27
ENDBRANCH  17  21
ENDBRANCH  11  17
ENDBRANCH   1  15
BRANCH   8  28
ATOM     28  C   UNL     1       1.890   3.429  20.902  0.00  0.00    +0.000 C 
ATOM     29  F   UNL     1       2.360   3.779  22.128  0.00  0.00    +0.000 F 
ATOM     30  F   UNL     1       0.534   3.526  20.972  0.00  0.00    +0.000 F 
ATOM     31  F   UNL     1       2.168   2.101  20.776  0.00  0.00    +0.000 F 
ENDBRANCH   8  28
BRANCH   6  32
ATOM     32  C   UNL     1       4.648   3.683  16.670  0.00  0.00    +0.000 C 
BRANCH  32  33
ATOM     33  N   UNL     1       5.587   4.566  15.958  0.00  0.00    +0.000 NA
ATOM     34  C   UNL     1       6.767   3.840  15.460  0.00  0.00    +0.000 C 
ATOM     35  C   UNL     1       6.448   4.382  14.122  0.00  0.00    +0.000 C 
ATOM     36  C   UNL     1       7.363   5.151  13.221  0.00  0.00    +0.000 C 
ATOM     37  C   UNL     1       6.818   3.814  12.790  0.00  0.00    +0.000 C 
ATOM     38  C   UNL     1       5.108   4.794  14.582  0.00  0.00    +0.000 C 
ENDBRANCH  32  33
ENDBRANCH   6  32
TORSDOF 7
ENDMDL
MODEL 5
REMARK VINA RESULT:      -9.7      2.561      8.975
REMARK  Name = 
REMARK  8 active torsions:
REMARK  status: ('A' for Active; 'I' for Inactive)
REMARK    1  A    between atoms: C_1  and  N_2
REMARK    2  A    between atoms: C_6  and  C_7
REMARK    3  A    between atoms: C_7  and  C_8
REMARK    4  A    between atoms: C_8  and  C_9
REMARK    5  A    between atoms: C_13  and  N_14
REMARK    6  A    between atoms: C_19  and  C_20
REMARK    7  A    between atoms: C_20  and  N_21
REMARK    8  A    between atoms: C_28  and  C_29
REMARK                            x       y       z     vdW  Elec       q    Type
REMARK                         _______ _______ _______ _____ _____    ______ ____
ROOT
ATOM      1  N   UNL     1       2.343   7.323  19.345  0.00  0.00    +0.000 N 
ATOM      2  C   UNL     1       1.536   7.650  20.505  0.00  0.00    +0.000 C 
ATOM      3  C   UNL     1       1.067   9.024  20.249  0.00  0.00    +0.000 A 
ATOM      4  C   UNL     1       1.407   9.405  18.956  0.00  0.00    +0.000 A 
ATOM      5  C   UNL     1       0.967  10.618  18.444  0.00  0.00    +0.000 A 
ATOM      6  C   UNL     1       0.206  11.467  19.287  0.00  0.00    +0.000 A 
ATOM      7  C   UNL     1      -0.038  11.085  20.629  0.00  0.00    +0.000 A 
ATOM      8  C   UNL     1       0.381   9.845  21.133  0.00  0.00    +0.000 A 
ATOM      9  C   UNL     1       2.266   8.324  18.376  0.00  0.00    +0.000 C 
ATOM     10  O   UNL     1       2.788   8.402  17.274  0.00  0.00    +0.000 OA
ENDROOT
BRANCH   1  15
ATOM     11  C   UNL     1       5.412   5.237  18.841  0.00  0.00    +0.000 A 
ATOM     12  C   UNL     1       4.927   3.987  19.238  0.00  0.00    +0.000 A 
ATOM     13  C   UNL     1       3.615   3.826  19.726  0.00  0.00    +0.000 A 
ATOM     14  C   UNL     1       2.734   4.915  19.803  0.00  0.00    +0.000 A 
ATOM     15  C   UNL     1       3.168   6.172  19.411  0.00  0.00    +0.000 A 
ATOM     16  C   UNL     1       4.507   6.295  18.985  0.00  0.00    +0.000 A 
BRANCH  11  17
ATOM     17  C   UNL     1       6.897   5.528  18.268  0.00  0.00    +0.000 C 
ATOM     18  C   UNL     1       7.939   5.920  19.351  0.00  0.00    +0.000 C 
ATOM     19  O   UNL     1       8.155   7.223  18.781  0.00  0.00    +0.000 OA
ATOM     20  C   UNL     1       7.193   6.969  17.728  0.00  0.00    +0.000 C 
BRANCH  17  21
ATOM     21  C   UNL     1       7.375   4.405  17.301  0.00  0.00    +0.000 C 
BRANCH  21  27
ATOM     22  C   UNL     1       4.656   3.481  15.847  0.00  0.00    +0.000 C 
ATOM     23  N   UNL     1       5.786   4.167  15.278  0.00  0.00    +0.000 N 
ATOM     24  C   UNL     1       5.871   4.518  13.961  0.00  0.00    +0.000 A 
ATOM     25  N   UNL     1       7.029   5.086  13.733  0.00  0.00    +0.000 NA
ATOM     26  N   UNL     1       7.724   5.099  14.915  0.00  0.00    +0.000 NA
ATOM     27  C   UNL     1       6.968   4.575  15.861  0.00  0.00    +0.000 A 
ENDBRANCH  21  27
ENDBRANCH  17  21
ENDBRANCH  11  17
ENDBRANCH   1  15
BRANCH   8  28
ATOM     28  C   UNL     1       0.082   9.452  22.554  0.00  0.00    +0.000 C 
ATOM     29  F   UNL     1      -0.755   8.388  22.667  0.00  0.00    +0.000 F 
ATOM     30  F   UNL     1       1.207   9.126  23.247  0.00  0.00    +0.000 F 
ATOM     31  F   UNL     1      -0.516  10.456  23.255  0.00  0.00    +0.000 F 
ENDBRANCH   8  28
BRANCH   6  32
ATOM     32  C   UNL     1      -0.471  12.706  18.722  0.00  0.00    +0.000 C 
BRANCH  32  33
ATOM     33  N   UNL     1      -1.725  12.469  17.987  0.00  0.00    +0.000 NA
ATOM     34  C   UNL     1      -1.667  11.254  17.160  0.00  0.00    +0.000 C 
ATOM     35  C   UNL     1      -2.892  10.806  17.856  0.00  0.00    +0.000 C 
ATOM     36  C   UNL     1      -4.180  10.376  17.226  0.00  0.00    +0.000 C 
ATOM     37  C   UNL     1      -3.377   9.406  18.054  0.00  0.00    +0.000 C 
ATOM     38  C   UNL     1      -2.717  11.850  18.885  0.00  0.00    +0.000 C 
ENDBRANCH  32  33
ENDBRANCH   6  32
TORSDOF 7
ENDMDL
MODEL 6
REMARK VINA RESULT:      -9.7      2.862      9.122
REMARK  Name = 
REMARK  8 active torsions:
REMARK  status: ('A' for Active; 'I' for Inactive)
REMARK    1  A    between atoms: C_1  and  N_2
REMARK    2  A    between atoms: C_6  and  C_7
REMARK    3  A    between atoms: C_7  and  C_8
REMARK    4  A    between atoms: C_8  and  C_9
REMARK    5  A    between atoms: C_13  and  N_14
REMARK    6  A    between atoms: C_19  and  C_20
REMARK    7  A    between atoms: C_20  and  N_21
REMARK    8  A    between atoms: C_28  and  C_29
REMARK                            x       y       z     vdW  Elec       q    Type
REMARK                         _______ _______ _______ _____ _____    ______ ____
ROOT
ATOM      1  N   UNL     1       2.355   7.262  19.318  0.00  0.00    +0.000 N 
ATOM      2  C   UNL     1       1.580   7.621  20.489  0.00  0.00    +0.000 C 
ATOM      3  C   UNL     1       1.055   8.965  20.183  0.00  0.00    +0.000 A 
ATOM      4  C   UNL     1       1.335   9.290  18.860  0.00  0.00    +0.000 A 
ATOM      5  C   UNL     1       0.835  10.460  18.305  0.00  0.00    +0.000 A 
ATOM      6  C   UNL     1       0.075  11.325  19.133  0.00  0.00    +0.000 A 
ATOM      7  C   UNL     1      -0.107  11.005  20.501  0.00  0.00    +0.000 A 
ATOM      8  C   UNL     1       0.373   9.806  21.050  0.00  0.00    +0.000 A 
ATOM      9  C   UNL     1       2.210   8.210  18.304  0.00  0.00    +0.000 C 
ATOM     10  O   UNL     1       2.689   8.248  17.180  0.00  0.00    +0.000 OA
ENDROOT
BRANCH   1  15
ATOM     11  C   UNL     1       5.493   5.272  18.845  0.00  0.00    +0.000 A 
ATOM     12  C   UNL     1       5.057   4.018  19.285  0.00  0.00    +0.000 A 
ATOM     13  C   UNL     1       3.756   3.827  19.792  0.00  0.00    +0.000 A 
ATOM     14  C   UNL     1       2.837   4.885  19.846  0.00  0.00    +0.000 A 
ATOM     15  C   UNL     1       3.223   6.144  19.411  0.00  0.00    +0.000 A 
ATOM     16  C   UNL     1       4.551   6.301  18.966  0.00  0.00    +0.000 A 
BRANCH  11  17
ATOM     17  C   UNL     1       6.961   5.598  18.247  0.00  0.00    +0.000 C 
ATOM     18  C   UNL     1       8.007   6.030  19.311  0.00  0.00    +0.000 C 
ATOM     19  O   UNL     1       8.178   7.332  18.725  0.00  0.00    +0.000 OA
ATOM     20  C   UNL     1       7.209   7.040  17.689  0.00  0.00    +0.000 C 
BRANCH  17  21
ATOM     21  C   UNL     1       7.455   4.478  17.285  0.00  0.00    +0.000 C 
BRANCH  21  27
ATOM     22  C   UNL     1       4.707   3.497  15.929  0.00  0.00    +0.000 C 
ATOM     23  N   UNL     1       5.814   4.180  15.312  0.00  0.00    +0.000 N 
ATOM     24  C   UNL     1       5.859   4.501  13.986  0.00  0.00    +0.000 A 
ATOM     25  N   UNL     1       7.006   5.074  13.714  0.00  0.00    +0.000 NA
ATOM     26  N   UNL     1       7.732   5.120  14.875  0.00  0.00    +0.000 NA
ATOM     27  C   UNL     1       7.008   4.612  15.853  0.00  0.00    +0.000 A 
ENDBRANCH  21  27
ENDBRANCH  17  21
ENDBRANCH  11  17
ENDBRANCH   1  15
BRANCH   8  28
ATOM     28  C   UNL     1       0.138   9.477  22.499  0.00  0.00    +0.000 C 
ATOM     29  F   UNL     1       1.268   9.146  23.179  0.00  0.00    +0.000 F 
ATOM     30  F   UNL     1      -0.424  10.514  23.179  0.00  0.00    +0.000 F 
ATOM     31  F   UNL     1      -0.703   8.417  22.661  0.00  0.00    +0.000 F 
ENDBRANCH   8  28
BRANCH   6  32
ATOM     32  C   UNL     1      -0.664  12.511  18.532  0.00  0.00    +0.000 C 
BRANCH  32  33
ATOM     33  N   UNL     1       0.116  13.755  18.411  0.00  0.00    +0.000 NA
ATOM     34  C   UNL     1      -0.164  14.697  19.506  0.00  0.00    +0.000 C 
ATOM     35  C   UNL     1       1.292  14.719  19.764  0.00  0.00    +0.000 C 
ATOM     36  C   UNL     1       2.176  15.926  19.836  0.00  0.00    +0.000 C 
ATOM     37  C   UNL     1       1.993  15.043  21.044  0.00  0.00    +0.000 C 
ATOM     38  C   UNL     1       1.485  13.532  18.909  0.00  0.00    +0.000 C 
ENDBRANCH  32  33
ENDBRANCH   6  32
TORSDOF 7
ENDMDL
MODEL 7
REMARK VINA RESULT:      -9.7      0.689      1.255
REMARK  Name = 
REMARK  8 active torsions:
REMARK  status: ('A' for Active; 'I' for Inactive)
REMARK    1  A    between atoms: C_1  and  N_2
REMARK    2  A    between atoms: C_6  and  C_7
REMARK    3  A    between atoms: C_7  and  C_8
REMARK    4  A    between atoms: C_8  and  C_9
REMARK    5  A    between atoms: C_13  and  N_14
REMARK    6  A    between atoms: C_19  and  C_20
REMARK    7  A    between atoms: C_20  and  N_21
REMARK    8  A    between atoms: C_28  and  C_29
REMARK                            x       y       z     vdW  Elec       q    Type
REMARK                         _______ _______ _______ _____ _____    ______ ____
ROOT
ATOM      1  N   UNL     1       1.753   7.834  20.018  0.00  0.00    +0.000 N 
ATOM      2  C   UNL     1       1.740   6.525  20.640  0.00  0.00    +0.000 C 
ATOM      3  C   UNL     1       2.398   5.646  19.656  0.00  0.00    +0.000 A 
ATOM      4  C   UNL     1       2.931   6.409  18.624  0.00  0.00    +0.000 A 
ATOM      5  C   UNL     1       3.703   5.813  17.637  0.00  0.00    +0.000 A 
ATOM      6  C   UNL     1       3.892   4.408  17.689  0.00  0.00    +0.000 A 
ATOM      7  C   UNL     1       3.253   3.652  18.702  0.00  0.00    +0.000 A 
ATOM      8  C   UNL     1       2.501   4.263  19.716  0.00  0.00    +0.000 A 
ATOM      9  C   UNL     1       2.485   7.824  18.830  0.00  0.00    +0.000 C 
ATOM     10  O   UNL     1       2.729   8.725  18.042  0.00  0.00    +0.000 OA
ENDROOT
BRANCH   1  15
ATOM     11  C   UNL     1      -0.202  11.026  20.156  0.00  0.00    +0.000 A 
ATOM     12  C   UNL     1      -0.483  11.083  21.525  0.00  0.00    +0.000 A 
ATOM     13  C   UNL     1      -0.086  10.053  22.402  0.00  0.00    +0.000 A 
ATOM     14  C   UNL     1       0.634   8.944  21.937  0.00  0.00    +0.000 A 
ATOM     15  C   UNL     1       0.943   8.850  20.588  0.00  0.00    +0.000 A 
ATOM     16  C   UNL     1       0.476   9.874  19.740  0.00  0.00    +0.000 A 
BRANCH  11  17
ATOM     17  C   UNL     1      -0.611  12.151  19.068  0.00  0.00    +0.000 C 
ATOM     18  C   UNL     1       0.518  13.166  18.737  0.00  0.00    +0.000 C 
ATOM     19  O   UNL     1      -0.237  14.285  19.234  0.00  0.00    +0.000 OA
ATOM     20  C   UNL     1      -1.350  13.429  19.592  0.00  0.00    +0.000 C 
BRANCH  17  21
ATOM     21  C   UNL     1      -1.291  11.524  17.815  0.00  0.00    +0.000 C 
BRANCH  21  27
ATOM     22  C   UNL     1      -3.345  10.976  15.399  0.00  0.00    +0.000 C 
ATOM     23  N   UNL     1      -3.643  11.255  16.779  0.00  0.00    +0.000 N 
ATOM     24  C   UNL     1      -4.912  11.354  17.273  0.00  0.00    +0.000 A 
ATOM     25  N   UNL     1      -4.863  11.658  18.546  0.00  0.00    +0.000 NA
ATOM     26  N   UNL     1      -3.543  11.774  18.895  0.00  0.00    +0.000 NA
ATOM     27  C   UNL     1      -2.797  11.501  17.841  0.00  0.00    +0.000 A 
ENDBRANCH  21  27
ENDBRANCH  17  21
ENDBRANCH  11  17
ENDBRANCH   1  15
BRANCH   8  28
ATOM     28  C   UNL     1       1.858   3.439  20.799  0.00  0.00    +0.000 C 
ATOM     29  F   UNL     1       2.282   3.748  22.052  0.00  0.00    +0.000 F 
ATOM     30  F   UNL     1       0.504   3.570  20.812  0.00  0.00    +0.000 F 
ATOM     31  F   UNL     1       2.108   2.107  20.653  0.00  0.00    +0.000 F 
ENDBRANCH   8  28
BRANCH   6  32
ATOM     32  C   UNL     1       4.887   3.731  16.758  0.00  0.00    +0.000 C 
BRANCH  32  33
ATOM     33  N   UNL     1       5.673   4.633  15.900  0.00  0.00    +0.000 NA
ATOM     34  C   UNL     1       6.913   4.005  15.418  0.00  0.00    +0.000 C 
ATOM     35  C   UNL     1       6.470   4.342  14.049  0.00  0.00    +0.000 C 
ATOM     36  C   UNL     1       7.238   5.106  13.016  0.00  0.00    +0.000 C 
ATOM     37  C   UNL     1       6.851   3.671  12.769  0.00  0.00    +0.000 C 
ATOM     38  C   UNL     1       5.109   4.638  14.538  0.00  0.00    +0.000 C 
ENDBRANCH  32  33
ENDBRANCH   6  32
TORSDOF 7
ENDMDL
MODEL 8
REMARK VINA RESULT:      -9.6      1.963      2.877
REMARK  Name = 
REMARK  8 active torsions:
REMARK  status: ('A' for Active; 'I' for Inactive)
REMARK    1  A    between atoms: C_1  and  N_2
REMARK    2  A    between atoms: C_6  and  C_7
REMARK    3  A    between atoms: C_7  and  C_8
REMARK    4  A    between atoms: C_8  and  C_9
REMARK    5  A    between atoms: C_13  and  N_14
REMARK    6  A    between atoms: C_19  and  C_20
REMARK    7  A    between atoms: C_20  and  N_21
REMARK    8  A    between atoms: C_28  and  C_29
REMARK                            x       y       z     vdW  Elec       q    Type
REMARK                         _______ _______ _______ _____ _____    ______ ____
ROOT
ATOM      1  N   UNL     1       1.722   7.830  20.055  0.00  0.00    +0.000 N 
ATOM      2  C   UNL     1       1.718   6.510  20.654  0.00  0.00    +0.000 C 
ATOM      3  C   UNL     1       2.377   5.651  19.653  0.00  0.00    +0.000 A 
ATOM      4  C   UNL     1       2.902   6.435  18.632  0.00  0.00    +0.000 A 
ATOM      5  C   UNL     1       3.673   5.859  17.631  0.00  0.00    +0.000 A 
ATOM      6  C   UNL     1       3.869   4.455  17.658  0.00  0.00    +0.000 A 
ATOM      7  C   UNL     1       3.239   3.679  18.661  0.00  0.00    +0.000 A 
ATOM      8  C   UNL     1       2.487   4.268  19.688  0.00  0.00    +0.000 A 
ATOM      9  C   UNL     1       2.449   7.843  18.864  0.00  0.00    +0.000 C 
ATOM     10  O   UNL     1       2.686   8.759  18.090  0.00  0.00    +0.000 OA
ENDROOT
BRANCH   1  15
ATOM     11  C   UNL     1      -0.515  10.831  20.190  0.00  0.00    +0.000 A 
ATOM     12  C   UNL     1      -0.580  11.026  21.573  0.00  0.00    +0.000 A 
ATOM     13  C   UNL     1       0.058  10.148  22.472  0.00  0.00    +0.000 A 
ATOM     14  C   UNL     1       0.809   9.058  22.009  0.00  0.00    +0.000 A 
ATOM     15  C   UNL     1       0.909   8.831  20.645  0.00  0.00    +0.000 A 
ATOM     16  C   UNL     1       0.207   9.701  19.786  0.00  0.00    +0.000 A 
BRANCH  11  17
ATOM     17  C   UNL     1      -1.208  11.777  19.076  0.00  0.00    +0.000 C 
ATOM     18  C   UNL     1      -2.619  12.299  19.463  0.00  0.00    +0.000 C 
ATOM     19  O   UNL     1      -3.255  11.623  18.364  0.00  0.00    +0.000 OA
ATOM     20  C   UNL     1      -1.992  11.072  17.916  0.00  0.00    +0.000 C 
BRANCH  17  21
ATOM     21  C   UNL     1      -0.236  12.883  18.570  0.00  0.00    +0.000 C 
BRANCH  21  27
ATOM     22  C   UNL     1      -0.594  15.003  20.965  0.00  0.00    +0.000 C 
ATOM     23  N   UNL     1       0.585  14.267  20.592  0.00  0.00    +0.000 N 
ATOM     24  C   UNL     1       1.787  14.394  21.227  0.00  0.00    +0.000 A 
ATOM     25  N   UNL     1       2.676  13.634  20.636  0.00  0.00    +0.000 NA
ATOM     26  N   UNL     1       2.054  13.006  19.588  0.00  0.00    +0.000 NA
ATOM     27  C   UNL     1       0.782  13.357  19.573  0.00  0.00    +0.000 A 
ENDBRANCH  21  27
ENDBRANCH  17  21
ENDBRANCH  11  17
ENDBRANCH   1  15
BRANCH   8  28
ATOM     28  C   UNL     1       1.853   3.422  20.759  0.00  0.00    +0.000 C 
ATOM     29  F   UNL     1       0.509   3.589  20.870  0.00  0.00    +0.000 F 
ATOM     30  F   UNL     1       2.054   2.092  20.552  0.00  0.00    +0.000 F 
ATOM     31  F   UNL     1       2.353   3.692  21.998  0.00  0.00    +0.000 F 
ENDBRANCH   8  28
BRANCH   6  32
ATOM     32  C   UNL     1       4.864   3.799  16.713  0.00  0.00    +0.000 C 
BRANCH  32  33
ATOM     33  N   UNL     1       5.662   4.721  15.887  0.00  0.00    +0.000 NA
ATOM     34  C   UNL     1       6.933   4.121  15.450  0.00  0.00    +0.000 C 
ATOM     35  C   UNL     1       6.534   4.454  14.067  0.00  0.00    +0.000 C 
ATOM     36  C   UNL     1       7.323   5.239  13.065  0.00  0.00    +0.000 C 
ATOM     37  C   UNL     1       6.976   3.797  12.799  0.00  0.00    +0.000 C 
ATOM     38  C   UNL     1       5.149   4.720  14.505  0.00  0.00    +0.000 C 
ENDBRANCH  32  33
ENDBRANCH   6  32
TORSDOF 7
ENDMDL
MODEL 9
REMARK VINA RESULT:      -9.5      1.937      2.941
REMARK  Name = 
REMARK  8 active torsions:
REMARK  status: ('A' for Active; 'I' for Inactive)
REMARK    1  A    between atoms: C_1  and  N_2
REMARK    2  A    between atoms: C_6  and  C_7
REMARK    3  A    between atoms: C_7  and  C_8
REMARK    4  A    between atoms: C_8  and  C_9
REMARK    5  A    between atoms: C_13  and  N_14
REMARK    6  A    between atoms: C_19  and  C_20
REMARK    7  A    between atoms: C_20  and  N_21
REMARK    8  A    between atoms: C_28  and  C_29
REMARK                            x       y       z     vdW  Elec       q    Type
REMARK                         _______ _______ _______ _____ _____    ______ ____
ROOT
ATOM      1  N   UNL     1       1.603   7.830  20.268  0.00  0.00    +0.000 N 
ATOM      2  C   UNL     1       1.686   6.512  20.866  0.00  0.00    +0.000 C 
ATOM      3  C   UNL     1       2.277   5.668  19.811  0.00  0.00    +0.000 A 
ATOM      4  C   UNL     1       2.689   6.463  18.747  0.00  0.00    +0.000 A 
ATOM      5  C   UNL     1       3.384   5.905  17.683  0.00  0.00    +0.000 A 
ATOM      6  C   UNL     1       3.618   4.506  17.693  0.00  0.00    +0.000 A 
ATOM      7  C   UNL     1       3.098   3.717  18.748  0.00  0.00    +0.000 A 
ATOM      8  C   UNL     1       2.425   4.289  19.837  0.00  0.00    +0.000 A 
ATOM      9  C   UNL     1       2.222   7.860  19.019  0.00  0.00    +0.000 C 
ATOM     10  O   UNL     1       2.367   8.780  18.227  0.00  0.00    +0.000 OA
ENDROOT
BRANCH   1  15
ATOM     11  C   UNL     1      -0.468  10.930  20.629  0.00  0.00    +0.000 A 
ATOM     12  C   UNL     1      -0.588  10.984  22.022  0.00  0.00    +0.000 A 
ATOM     13  C   UNL     1      -0.045   9.980  22.848  0.00  0.00    +0.000 A 
ATOM     14  C   UNL     1       0.667   8.901  22.303  0.00  0.00    +0.000 A 
ATOM     15  C   UNL     1       0.820   8.812  20.928  0.00  0.00    +0.000 A 
ATOM     16  C   UNL     1       0.209   9.808  20.138  0.00  0.00    +0.000 A 
BRANCH  11  17
ATOM     17  C   UNL     1      -1.053  12.028  19.595  0.00  0.00    +0.000 C 
ATOM     18  C   UNL     1      -2.391  11.624  18.917  0.00  0.00    +0.000 C 
ATOM     19  O   UNL     1      -1.813  11.624  17.600  0.00  0.00    +0.000 OA
ATOM     20  C   UNL     1      -0.513  11.993  18.124  0.00  0.00    +0.000 C 
BRANCH  17  21
ATOM     21  C   UNL     1      -1.056  13.458  20.209  0.00  0.00    +0.000 C 
BRANCH  21  27
ATOM     22  C   UNL     1       2.132  13.447  20.652  0.00  0.00    +0.000 C 
ATOM     23  N   UNL     1       1.342  14.358  19.866  0.00  0.00    +0.000 N 
ATOM     24  C   UNL     1       1.867  15.416  19.182  0.00  0.00    +0.000 A 
ATOM     25  N   UNL     1       0.902  16.085  18.602  0.00  0.00    +0.000 NA
ATOM     26  N   UNL     1      -0.280  15.465  18.917  0.00  0.00    +0.000 NA
ATOM     27  C   UNL     1      -0.021  14.402  19.655  0.00  0.00    +0.000 A 
ENDBRANCH  21  27
ENDBRANCH  17  21
ENDBRANCH  11  17
ENDBRANCH   1  15
BRANCH   8  28
ATOM     28  C   UNL     1       1.909   3.429  20.959  0.00  0.00    +0.000 C 
ATOM     29  F   UNL     1       2.243   2.116  20.846  0.00  0.00    +0.000 F 
ATOM     30  F   UNL     1       2.369   3.835  22.174  0.00  0.00    +0.000 F 
ATOM     31  F   UNL     1       0.549   3.448  21.044  0.00  0.00    +0.000 F 
ENDBRANCH   8  28
BRANCH   6  32
ATOM     32  C   UNL     1       4.543   3.874  16.664  0.00  0.00    +0.000 C 
BRANCH  32  33
ATOM     33  N   UNL     1       5.563   4.768  16.088  0.00  0.00    +0.000 NA
ATOM     34  C   UNL     1       6.771   4.040  15.670  0.00  0.00    +0.000 C 
ATOM     35  C   UNL     1       6.592   4.650  14.336  0.00  0.00    +0.000 C 
ATOM     36  C   UNL     1       7.602   5.439  13.563  0.00  0.00    +0.000 C 
ATOM     37  C   UNL     1       7.077   4.136  13.019  0.00  0.00    +0.000 C 
ATOM     38  C   UNL     1       5.221   5.071  14.686  0.00  0.00    +0.000 C 
ENDBRANCH  32  33
ENDBRANCH   6  32
TORSDOF 7
ENDMDL
