MODEL 1
REMARK VINA RESULT:      -9.7      0.000      0.000
REMARK  Name = 
REMARK  9 active torsions:
REMARK  status: ('A' for Active; 'I' for Inactive)
REMARK    1  A    between atoms: C_1  and  C_2
REMARK    2  A    between atoms: C_2  and  C_3
REMARK    3  A    between atoms: C_2  and  N_34
REMARK    4  A    between atoms: C_7  and  C_8
REMARK    5  A    between atoms: N_14  and  C_15
REMARK    6  A    between atoms: C_19  and  C_20
REMARK    7  A    between atoms: C_20  and  C_21
REMARK    8  A    between atoms: C_21  and  C_22
REMARK    9  A    between atoms: N_26  and  C_27
REMARK                            x       y       z     vdW  Elec       q    Type
REMARK                         _______ _______ _______ _____ _____    ______ ____
ROOT
ATOM      1  C   UNL     1       0.707  11.682  19.269  0.00  0.00    +0.000 A 
ATOM      2  C   UNL     1       1.369  10.780  18.428  0.00  0.00    +0.000 A 
ATOM      3  C   UNL     1       1.582   9.504  18.901  0.00  0.00    +0.000 A 
ATOM      4  C   UNL     1       1.174   9.079  20.162  0.00  0.00    +0.000 A 
ATOM      5  C   UNL     1       0.498   9.942  21.018  0.00  0.00    +0.000 A 
ATOM      6  C   UNL     1       0.252  11.247  20.542  0.00  0.00    +0.000 A 
ATOM      7  C   UNL     1       1.623   7.671  20.369  0.00  0.00    +0.000 C 
ATOM      8  N   UNL     1       2.286   7.336  19.112  0.00  0.00    +0.000 N 
ATOM      9  C   UNL     1       2.290   8.415  18.235  0.00  0.00    +0.000 C 
ATOM     10  O   UNL     1       2.768   8.544  17.120  0.00  0.00    +0.000 OA
ENDROOT
BRANCH   8  11
ATOM     11  C   UNL     1       2.826   6.053  18.867  0.00  0.00    +0.000 A 
ATOM     12  C   UNL     1       2.474   4.941  19.634  0.00  0.00    +0.000 A 
ATOM     13  C   UNL     1       3.037   3.692  19.380  0.00  0.00    +0.000 A 
ATOM     14  C   UNL     1       3.982   3.548  18.366  0.00  0.00    +0.000 A 
ATOM     15  C   UNL     1       4.400   4.641  17.585  0.00  0.00    +0.000 A 
ATOM     16  C   UNL     1       3.773   5.875  17.846  0.00  0.00    +0.000 A 
BRANCH  15  17
ATOM     17  C   UNL     1       5.558   4.524  16.494  0.00  0.00    +0.000 C 
ATOM     18  C   UNL     1       5.428   3.452  15.369  0.00  0.00    +0.000 C 
ATOM     19  O   UNL     1       5.792   4.439  14.363  0.00  0.00    +0.000 OA
ATOM     20  C   UNL     1       5.409   5.491  15.283  0.00  0.00    +0.000 C 
BRANCH  17  21
ATOM     21  C   UNL     1       6.958   4.570  17.134  0.00  0.00    +0.000 C 
BRANCH  21  22
ATOM     22  C   UNL     1       7.431   5.956  17.435  0.00  0.00    +0.000 A 
ATOM     23  N   UNL     1       7.450   6.969  16.592  0.00  0.00    +0.000 NA
ATOM     24  N   UNL     1       7.917   8.080  17.254  0.00  0.00    +0.000 NA
ATOM     25  C   UNL     1       8.169   7.726  18.492  0.00  0.00    +0.000 A 
ATOM     26  N   UNL     1       7.894   6.403  18.649  0.00  0.00    +0.000 N 
ATOM     27  C   UNL     1       8.060   5.659  19.870  0.00  0.00    +0.000 C 
ENDBRANCH  21  22
ENDBRANCH  17  21
ENDBRANCH  15  17
ENDBRANCH   8  11
BRANCH   5  28
ATOM     28  C   UNL     1       0.084   9.541  22.411  0.00  0.00    +0.000 C 
ATOM     29  F   UNL     1       1.134   9.222  23.220  0.00  0.00    +0.000 F 
ATOM     30  F   UNL     1      -0.592  10.530  23.057  0.00  0.00    +0.000 F 
ATOM     31  F   UNL     1      -0.732   8.452  22.423  0.00  0.00    +0.000 F 
ENDBRANCH   5  28
BRANCH   1  33
ATOM     32  C   UNL     1      -0.829  13.313  18.218  0.00  0.00    +0.000 C 
ATOM     33  C   UNL     1       0.575  13.141  18.815  0.00  0.00    +0.000 C 
BRANCH  33  34
ATOM     34  N   UNL     1       0.957  14.076  19.913  0.00  0.00    +0.000 NA
ATOM     35  C   UNL     1       2.438  14.261  19.923  0.00  0.00    +0.000 C 
ATOM     36  C   UNL     1       2.661  15.263  18.829  0.00  0.00    +0.000 C 
ATOM     37  C   UNL     1       2.727  16.732  19.103  0.00  0.00    +0.000 C 
ATOM     38  C   UNL     1       1.413  16.077  18.741  0.00  0.00    +0.000 C 
ATOM     39  C   UNL     1       0.451  15.460  19.718  0.00  0.00    +0.000 C 
ENDBRANCH  33  34
ENDBRANCH   1  33
TORSDOF 7
ENDMDL
MODEL 2
REMARK VINA RESULT:      -9.5      1.545      2.519
REMARK  Name = 
REMARK  9 active torsions:
REMARK  status: ('A' for Active; 'I' for Inactive)
REMARK    1  A    between atoms: C_1  and  C_2
REMARK    2  A    between atoms: C_2  and  C_3
REMARK    3  A    between atoms: C_2  and  N_34
REMARK    4  A    between atoms: C_7  and  C_8
REMARK    5  A    between atoms: N_14  and  C_15
REMARK    6  A    between atoms: C_19  and  C_20
REMARK    7  A    between atoms: C_20  and  C_21
REMARK    8  A    between atoms: C_21  and  C_22
REMARK    9  A    between atoms: N_26  and  C_27
REMARK                            x       y       z     vdW  Elec       q    Type
REMARK                         _______ _______ _______ _____ _____    ______ ____
ROOT
ATOM      1  C   UNL     1       0.703  11.933  19.642  0.00  0.00    +0.000 A 
ATOM      2  C   UNL     1       1.278  11.122  18.657  0.00  0.00    +0.000 A 
ATOM      3  C   UNL     1       1.458   9.788  18.953  0.00  0.00    +0.000 A 
ATOM      4  C   UNL     1       1.098   9.221  20.171  0.00  0.00    +0.000 A 
ATOM      5  C   UNL     1       0.508   9.991  21.167  0.00  0.00    +0.000 A 
ATOM      6  C   UNL     1       0.296  11.356  20.874  0.00  0.00    +0.000 A 
ATOM      7  C   UNL     1       1.494   7.782  20.172  0.00  0.00    +0.000 C 
ATOM      8  N   UNL     1       2.074   7.586  18.846  0.00  0.00    +0.000 N 
ATOM      9  C   UNL     1       2.080   8.768  18.114  0.00  0.00    +0.000 C 
ATOM     10  O   UNL     1       2.504   9.022  16.998  0.00  0.00    +0.000 OA
ENDROOT
BRANCH   8  11
ATOM     11  C   UNL     1       2.541   6.326  18.410  0.00  0.00    +0.000 A 
ATOM     12  C   UNL     1       1.776   5.166  18.539  0.00  0.00    +0.000 A 
ATOM     13  C   UNL     1       2.272   3.934  18.115  0.00  0.00    +0.000 A 
ATOM     14  C   UNL     1       3.556   3.847  17.581  0.00  0.00    +0.000 A 
ATOM     15  C   UNL     1       4.383   4.978  17.461  0.00  0.00    +0.000 A 
ATOM     16  C   UNL     1       3.826   6.209  17.859  0.00  0.00    +0.000 A 
BRANCH  15  17
ATOM     17  C   UNL     1       5.894   4.886  16.954  0.00  0.00    +0.000 C 
ATOM     18  C   UNL     1       6.719   6.201  16.801  0.00  0.00    +0.000 C 
ATOM     19  O   UNL     1       7.845   5.595  17.497  0.00  0.00    +0.000 OA
ATOM     20  C   UNL     1       6.941   4.623  18.076  0.00  0.00    +0.000 C 
BRANCH  17  21
ATOM     21  C   UNL     1       6.042   3.931  15.755  0.00  0.00    +0.000 C 
BRANCH  21  22
ATOM     22  C   UNL     1       6.790   4.527  14.606  0.00  0.00    +0.000 A 
ATOM     23  N   UNL     1       7.765   5.411  14.691  0.00  0.00    +0.000 NA
ATOM     24  N   UNL     1       8.219   5.684  13.422  0.00  0.00    +0.000 NA
ATOM     25  C   UNL     1       7.516   4.956  12.586  0.00  0.00    +0.000 A 
ATOM     26  N   UNL     1       6.600   4.227  13.279  0.00  0.00    +0.000 N 
ATOM     27  C   UNL     1       5.646   3.321  12.696  0.00  0.00    +0.000 C 
ENDBRANCH  21  22
ENDBRANCH  17  21
ENDBRANCH  15  17
ENDBRANCH   8  11
BRANCH   5  28
ATOM     28  C   UNL     1       0.150   9.431  22.520  0.00  0.00    +0.000 C 
ATOM     29  F   UNL     1      -0.494  10.322  23.325  0.00  0.00    +0.000 F 
ATOM     30  F   UNL     1      -0.671   8.349  22.434  0.00  0.00    +0.000 F 
ATOM     31  F   UNL     1       1.242   9.024  23.223  0.00  0.00    +0.000 F 
ENDBRANCH   5  28
BRANCH   1  33
ATOM     32  C   UNL     1      -0.811  13.888  19.746  0.00  0.00    +0.000 C 
ATOM     33  C   UNL     1       0.613  13.443  19.385  0.00  0.00    +0.000 C 
BRANCH  33  34
ATOM     34  N   UNL     1       1.733  14.163  20.057  0.00  0.00    +0.000 NA
ATOM     35  C   UNL     1       2.959  14.090  19.208  0.00  0.00    +0.000 C 
ATOM     36  C   UNL     1       2.725  15.160  18.183  0.00  0.00    +0.000 C 
ATOM     37  C   UNL     1       3.237  16.554  18.363  0.00  0.00    +0.000 C 
ATOM     38  C   UNL     1       1.848  16.181  18.830  0.00  0.00    +0.000 C 
ATOM     39  C   UNL     1       1.505  15.627  20.185  0.00  0.00    +0.000 C 
ENDBRANCH  33  34
ENDBRANCH   1  33
TORSDOF 7
ENDMDL
MODEL 3
REMARK VINA RESULT:      -9.3      0.764      1.139
REMARK  Name = 
REMARK  9 active torsions:
REMARK  status: ('A' for Active; 'I' for Inactive)
REMARK    1  A    between atoms: C_1  and  C_2
REMARK    2  A    between atoms: C_2  and  C_3
REMARK    3  A    between atoms: C_2  and  N_34
REMARK    4  A    between atoms: C_7  and  C_8
REMARK    5  A    between atoms: N_14  and  C_15
REMARK    6  A    between atoms: C_19  and  C_20
REMARK    7  A    between atoms: C_20  and  C_21
REMARK    8  A    between atoms: C_21  and  C_22
REMARK    9  A    between atoms: N_26  and  C_27
REMARK                            x       y       z     vdW  Elec       q    Type
REMARK                         _______ _______ _______ _____ _____    ______ ____
ROOT
ATOM      1  C   UNL     1       0.859  11.584  19.089  0.00  0.00    +0.000 A 
ATOM      2  C   UNL     1       1.600  10.755  18.239  0.00  0.00    +0.000 A 
ATOM      3  C   UNL     1       1.792   9.447  18.629  0.00  0.00    +0.000 A 
ATOM      4  C   UNL     1       1.289   8.923  19.816  0.00  0.00    +0.000 A 
ATOM      5  C   UNL     1       0.533   9.712  20.677  0.00  0.00    +0.000 A 
ATOM      6  C   UNL     1       0.309  11.049  20.283  0.00  0.00    +0.000 A 
ATOM      7  C   UNL     1       1.740   7.507  19.951  0.00  0.00    +0.000 C 
ATOM      8  N   UNL     1       2.507   7.275  18.731  0.00  0.00    +0.000 N 
ATOM      9  C   UNL     1       2.566   8.419  17.942  0.00  0.00    +0.000 C 
ATOM     10  O   UNL     1       3.132   8.638  16.883  0.00  0.00    +0.000 OA
ENDROOT
BRANCH   8  11
ATOM     11  C   UNL     1       3.083   6.020  18.434  0.00  0.00    +0.000 A 
ATOM     12  C   UNL     1       2.848   4.891  19.221  0.00  0.00    +0.000 A 
ATOM     13  C   UNL     1       3.445   3.670  18.912  0.00  0.00    +0.000 A 
ATOM     14  C   UNL     1       4.308   3.573  17.823  0.00  0.00    +0.000 A 
ATOM     15  C   UNL     1       4.608   4.686  17.016  0.00  0.00    +0.000 A 
ATOM     16  C   UNL     1       3.948   5.888  17.337  0.00  0.00    +0.000 A 
BRANCH  15  17
ATOM     17  C   UNL     1       5.675   4.625  15.831  0.00  0.00    +0.000 C 
ATOM     18  C   UNL     1       6.165   3.232  15.330  0.00  0.00    +0.000 C 
ATOM     19  O   UNL     1       5.968   3.643  13.947  0.00  0.00    +0.000 OA
ATOM     20  C   UNL     1       5.061   4.676  14.401  0.00  0.00    +0.000 C 
BRANCH  17  21
ATOM     21  C   UNL     1       6.818   5.638  16.034  0.00  0.00    +0.000 C 
BRANCH  21  22
ATOM     22  C   UNL     1       7.346   5.668  17.432  0.00  0.00    +0.000 A 
ATOM     23  N   UNL     1       7.580   4.619  18.195  0.00  0.00    +0.000 NA
ATOM     24  N   UNL     1       8.095   5.056  19.393  0.00  0.00    +0.000 NA
ATOM     25  C   UNL     1       8.171   6.365  19.337  0.00  0.00    +0.000 A 
ATOM     26  N   UNL     1       7.700   6.794  18.135  0.00  0.00    +0.000 N 
ATOM     27  C   UNL     1       7.619   8.169  17.718  0.00  0.00    +0.000 C 
ENDBRANCH  21  22
ENDBRANCH  17  21
ENDBRANCH  15  17
ENDBRANCH   8  11
BRANCH   5  28
ATOM     28  C   UNL     1       0.014   9.202  21.997  0.00  0.00    +0.000 C 
ATOM     29  F   UNL     1       0.999   8.870  22.878  0.00  0.00    +0.000 F 
ATOM     30  F   UNL     1      -0.762  10.117  22.639  0.00  0.00    +0.000 F 
ATOM     31  F   UNL     1      -0.750   8.083  21.863  0.00  0.00    +0.000 F 
ENDBRANCH   5  28
BRANCH   1  33
ATOM     32  C   UNL     1      -0.749  13.392  18.570  0.00  0.00    +0.000 C 
ATOM     33  C   UNL     1       0.744  13.073  18.738  0.00  0.00    +0.000 C 
BRANCH  33  34
ATOM     34  N   UNL     1       1.503  13.908  19.713  0.00  0.00    +0.000 NA
ATOM     35  C   UNL     1       2.955  13.891  19.365  0.00  0.00    +0.000 C 
ATOM     36  C   UNL     1       3.047  14.892  18.251  0.00  0.00    +0.000 C 
ATOM     37  C   UNL     1       3.380  16.328  18.503  0.00  0.00    +0.000 C 
ATOM     38  C   UNL     1       1.940  15.870  18.468  0.00  0.00    +0.000 C 
ATOM     39  C   UNL     1       1.163  15.354  19.648  0.00  0.00    +0.000 C 
ENDBRANCH  33  34
ENDBRANCH   1  33
TORSDOF 7
ENDMDL
MODEL 4
REMARK VINA RESULT:      -9.3      3.491     10.094
REMARK  Name = 
REMARK  9 active torsions:
REMARK  status: ('A' for Active; 'I' for Inactive)
REMARK    1  A    between atoms: C_1  and  C_2
REMARK    2  A    between atoms: C_2  and  C_3
REMARK    3  A    between atoms: C_2  and  N_34
REMARK    4  A    between atoms: C_7  and  C_8
REMARK    5  A    between atoms: N_14  and  C_15
REMARK    6  A    between atoms: C_19  and  C_20
REMARK    7  A    between atoms: C_20  and  C_21
REMARK    8  A    between atoms: C_21  and  C_22
REMARK    9  A    between atoms: N_26  and  C_27
REMARK                            x       y       z     vdW  Elec       q    Type
REMARK                         _______ _______ _______ _____ _____    ______ ____
ROOT
ATOM      1  C   UNL     1       4.713   6.607  17.859  0.00  0.00    +0.000 A 
ATOM      2  C   UNL     1       4.080   7.810  17.524  0.00  0.00    +0.000 A 
ATOM      3  C   UNL     1       2.873   8.086  18.129  0.00  0.00    +0.000 A 
ATOM      4  C   UNL     1       2.265   7.233  19.044  0.00  0.00    +0.000 A 
ATOM      5  C   UNL     1       2.872   6.037  19.414  0.00  0.00    +0.000 A 
ATOM      6  C   UNL     1       4.120   5.748  18.820  0.00  0.00    +0.000 A 
ATOM      7  C   UNL     1       0.947   7.808  19.444  0.00  0.00    +0.000 C 
ATOM      8  N   UNL     1       0.885   9.066  18.703  0.00  0.00    +0.000 N 
ATOM      9  C   UNL     1       2.009   9.240  17.903  0.00  0.00    +0.000 C 
ATOM     10  O   UNL     1       2.310  10.127  17.121  0.00  0.00    +0.000 OA
ENDROOT
BRANCH   8  11
ATOM     11  C   UNL     1      -0.200   9.961  18.834  0.00  0.00    +0.000 A 
ATOM     12  C   UNL     1      -1.132  10.151  17.813  0.00  0.00    +0.000 A 
ATOM     13  C   UNL     1      -2.183  11.055  17.965  0.00  0.00    +0.000 A 
ATOM     14  C   UNL     1      -2.295  11.799  19.137  0.00  0.00    +0.000 A 
ATOM     15  C   UNL     1      -1.365  11.673  20.185  0.00  0.00    +0.000 A 
ATOM     16  C   UNL     1      -0.346  10.717  20.007  0.00  0.00    +0.000 A 
BRANCH  15  17
ATOM     17  C   UNL     1      -1.411  12.592  21.489  0.00  0.00    +0.000 C 
ATOM     18  C   UNL     1      -1.285  11.918  22.890  0.00  0.00    +0.000 C 
ATOM     19  O   UNL     1      -0.305  12.914  23.299  0.00  0.00    +0.000 OA
ATOM     20  C   UNL     1      -0.038  13.198  21.904  0.00  0.00    +0.000 C 
BRANCH  17  21
ATOM     21  C   UNL     1      -2.537  13.640  21.415  0.00  0.00    +0.000 C 
BRANCH  21  22
ATOM     22  C   UNL     1      -3.728  13.295  22.250  0.00  0.00    +0.000 A 
ATOM     23  N   UNL     1      -4.670  12.428  21.936  0.00  0.00    +0.000 NA
ATOM     24  N   UNL     1      -5.569  12.364  22.974  0.00  0.00    +0.000 NA
ATOM     25  C   UNL     1      -5.156  13.190  23.906  0.00  0.00    +0.000 A 
ATOM     26  N   UNL     1      -4.016  13.807  23.492  0.00  0.00    +0.000 N 
ATOM     27  C   UNL     1      -3.281  14.787  24.246  0.00  0.00    +0.000 C 
ENDBRANCH  21  22
ENDBRANCH  17  21
ENDBRANCH  15  17
ENDBRANCH   8  11
BRANCH   5  28
ATOM     28  C   UNL     1       2.225   5.058  20.360  0.00  0.00    +0.000 C 
ATOM     29  F   UNL     1       1.041   4.563  19.904  0.00  0.00    +0.000 F 
ATOM     30  F   UNL     1       3.011   3.973  20.602  0.00  0.00    +0.000 F 
ATOM     31  F   UNL     1       1.950   5.607  21.575  0.00  0.00    +0.000 F 
ENDBRANCH   5  28
BRANCH   1  33
ATOM     32  C   UNL     1       7.180   6.806  17.875  0.00  0.00    +0.000 C 
ATOM     33  C   UNL     1       5.990   6.220  17.102  0.00  0.00    +0.000 C 
BRANCH  33  34
ATOM     34  N   UNL     1       6.022   4.753  16.831  0.00  0.00    +0.000 NA
ATOM     35  C   UNL     1       4.928   4.394  15.881  0.00  0.00    +0.000 C 
ATOM     36  C   UNL     1       5.500   4.776  14.547  0.00  0.00    +0.000 C 
ATOM     37  C   UNL     1       6.229   3.793  13.688  0.00  0.00    +0.000 C 
ATOM     38  C   UNL     1       6.983   4.657  14.673  0.00  0.00    +0.000 C 
ATOM     39  C   UNL     1       7.245   4.309  16.112  0.00  0.00    +0.000 C 
ENDBRANCH  33  34
ENDBRANCH   1  33
TORSDOF 7
ENDMDL
MODEL 5
REMARK VINA RESULT:      -9.1      1.760      2.619
REMARK  Name = 
REMARK  9 active torsions:
REMARK  status: ('A' for Active; 'I' for Inactive)
REMARK    1  A    between atoms: C_1  and  C_2
REMARK    2  A    between atoms: C_2  and  C_3
REMARK    3  A    between atoms: C_2  and  N_34
REMARK    4  A    between atoms: C_7  and  C_8
REMARK    5  A    between atoms: N_14  and  C_15
REMARK    6  A    between atoms: C_19  and  C_20
REMARK    7  A    between atoms: C_20  and  C_21
REMARK    8  A    between atoms: C_21  and  C_22
REMARK    9  A    between atoms: N_26  and  C_27
REMARK                            x       y       z     vdW  Elec       q    Type
REMARK                         _______ _______ _______ _____ _____    ______ ____
ROOT
ATOM      1  C   UNL     1       0.294  12.128  19.848  0.00  0.00    +0.000 A 
ATOM      2  C   UNL     1       0.918  11.377  18.845  0.00  0.00    +0.000 A 
ATOM      3  C   UNL     1       1.201  10.057  19.118  0.00  0.00    +0.000 A 
ATOM      4  C   UNL     1       0.897   9.446  20.331  0.00  0.00    +0.000 A 
ATOM      5  C   UNL     1       0.262  10.156  21.345  0.00  0.00    +0.000 A 
ATOM      6  C   UNL     1      -0.054  11.505  21.075  0.00  0.00    +0.000 A 
ATOM      7  C   UNL     1       1.400   8.041  20.307  0.00  0.00    +0.000 C 
ATOM      8  N   UNL     1       1.978   7.908  18.972  0.00  0.00    +0.000 N 
ATOM      9  C   UNL     1       1.887   9.098  18.258  0.00  0.00    +0.000 C 
ATOM     10  O   UNL     1       2.279   9.399  17.142  0.00  0.00    +0.000 OA
ENDROOT
BRANCH   8  11
ATOM     11  C   UNL     1       2.534   6.693  18.513  0.00  0.00    +0.000 A 
ATOM     12  C   UNL     1       1.925   5.461  18.755  0.00  0.00    +0.000 A 
ATOM     13  C   UNL     1       2.507   4.277  18.304  0.00  0.00    +0.000 A 
ATOM     14  C   UNL     1       3.723   4.314  17.625  0.00  0.00    +0.000 A 
ATOM     15  C   UNL     1       4.398   5.525  17.385  0.00  0.00    +0.000 A 
ATOM     16  C   UNL     1       3.753   6.699  17.818  0.00  0.00    +0.000 A 
BRANCH  15  17
ATOM     17  C   UNL     1       5.842   5.583  16.708  0.00  0.00    +0.000 C 
ATOM     18  C   UNL     1       7.027   6.197  17.513  0.00  0.00    +0.000 C 
ATOM     19  O   UNL     1       7.877   5.071  17.154  0.00  0.00    +0.000 OA
ATOM     20  C   UNL     1       6.690   4.289  16.874  0.00  0.00    +0.000 C 
BRANCH  17  21
ATOM     21  C   UNL     1       5.774   6.077  15.250  0.00  0.00    +0.000 C 
BRANCH  21  22
ATOM     22  C   UNL     1       5.949   4.985  14.243  0.00  0.00    +0.000 A 
ATOM     23  N   UNL     1       5.094   4.013  13.997  0.00  0.00    +0.000 NA
ATOM     24  N   UNL     1       5.597   3.235  12.980  0.00  0.00    +0.000 NA
ATOM     25  C   UNL     1       6.748   3.752  12.620  0.00  0.00    +0.000 A 
ATOM     26  N   UNL     1       7.018   4.839  13.392  0.00  0.00    +0.000 N 
ATOM     27  C   UNL     1       8.199   5.656  13.292  0.00  0.00    +0.000 C 
ENDBRANCH  21  22
ENDBRANCH  17  21
ENDBRANCH  15  17
ENDBRANCH   8  11
BRANCH   5  28
ATOM     28  C   UNL     1      -0.037   9.551  22.692  0.00  0.00    +0.000 C 
ATOM     29  F   UNL     1       1.079   9.209  23.395  0.00  0.00    +0.000 F 
ATOM     30  F   UNL     1      -0.737  10.396  23.498  0.00  0.00    +0.000 F 
ATOM     31  F   UNL     1      -0.777   8.412  22.603  0.00  0.00    +0.000 F 
ENDBRANCH   5  28
BRANCH   1  33
ATOM     32  C   UNL     1      -1.384  13.946  19.907  0.00  0.00    +0.000 C 
ATOM     33  C   UNL     1       0.089  13.631  19.614  0.00  0.00    +0.000 C 
BRANCH  33  34
ATOM     34  N   UNL     1       1.107  14.427  20.359  0.00  0.00    +0.000 NA
ATOM     35  C   UNL     1       2.436  14.294  19.691  0.00  0.00    +0.000 C 
ATOM     36  C   UNL     1       2.338  15.261  18.548  0.00  0.00    +0.000 C 
ATOM     37  C   UNL     1       2.818  16.673  18.662  0.00  0.00    +0.000 C 
ATOM     38  C   UNL     1       1.380  16.324  18.973  0.00  0.00    +0.000 C 
ATOM     39  C   UNL     1       0.860  15.893  20.317  0.00  0.00    +0.000 C 
ENDBRANCH  33  34
ENDBRANCH   1  33
TORSDOF 7
ENDMDL
MODEL 6
REMARK VINA RESULT:      -9.0      3.784      9.944
REMARK  Name = 
REMARK  9 active torsions:
REMARK  status: ('A' for Active; 'I' for Inactive)
REMARK    1  A    between atoms: C_1  and  C_2
REMARK    2  A    between atoms: C_2  and  C_3
REMARK    3  A    between atoms: C_2  and  N_34
REMARK    4  A    between atoms: C_7  and  C_8
REMARK    5  A    between atoms: N_14  and  C_15
REMARK    6  A    between atoms: C_19  and  C_20
REMARK    7  A    between atoms: C_20  and  C_21
REMARK    8  A    between atoms: C_21  and  C_22
REMARK    9  A    between atoms: N_26  and  C_27
REMARK                            x       y       z     vdW  Elec       q    Type
REMARK                         _______ _______ _______ _____ _____    ______ ____
ROOT
ATOM      1  C   UNL     1       4.739   6.526  17.648  0.00  0.00    +0.000 A 
ATOM      2  C   UNL     1       4.136   7.777  17.468  0.00  0.00    +0.000 A 
ATOM      3  C   UNL     1       3.013   8.058  18.216  0.00  0.00    +0.000 A 
ATOM      4  C   UNL     1       2.461   7.165  19.129  0.00  0.00    +0.000 A 
ATOM      5  C   UNL     1       3.042   5.921  19.347  0.00  0.00    +0.000 A 
ATOM      6  C   UNL     1       4.205   5.623  18.605  0.00  0.00    +0.000 A 
ATOM      7  C   UNL     1       1.222   7.765  19.706  0.00  0.00    +0.000 C 
ATOM      8  N   UNL     1       1.147   9.076  19.066  0.00  0.00    +0.000 N 
ATOM      9  C   UNL     1       2.190   9.262  18.164  0.00  0.00    +0.000 C 
ATOM     10  O   UNL     1       2.453  10.191  17.419  0.00  0.00    +0.000 OA
ENDROOT
BRANCH   8  11
ATOM     11  C   UNL     1       0.128  10.004  19.374  0.00  0.00    +0.000 A 
ATOM     12  C   UNL     1       0.102  10.703  20.582  0.00  0.00    +0.000 A 
ATOM     13  C   UNL     1      -0.927  11.600  20.865  0.00  0.00    +0.000 A 
ATOM     14  C   UNL     1      -1.959  11.787  19.947  0.00  0.00    +0.000 A 
ATOM     15  C   UNL     1      -2.001  11.084  18.730  0.00  0.00    +0.000 A 
ATOM     16  C   UNL     1      -0.919  10.222  18.465  0.00  0.00    +0.000 A 
BRANCH  15  17
ATOM     17  C   UNL     1      -3.225  11.200  17.713  0.00  0.00    +0.000 C 
ATOM     18  C   UNL     1      -2.929  11.295  16.185  0.00  0.00    +0.000 C 
ATOM     19  O   UNL     1      -3.943  10.286  15.910  0.00  0.00    +0.000 OA
ATOM     20  C   UNL     1      -3.844   9.838  17.284  0.00  0.00    +0.000 C 
BRANCH  17  21
ATOM     21  C   UNL     1      -4.278  12.216  18.195  0.00  0.00    +0.000 C 
BRANCH  21  22
ATOM     22  C   UNL     1      -5.458  11.582  18.859  0.00  0.00    +0.000 A 
ATOM     23  N   UNL     1      -6.296  10.730  18.303  0.00  0.00    +0.000 NA
ATOM     24  N   UNL     1      -7.221  10.347  19.245  0.00  0.00    +0.000 NA
ATOM     25  C   UNL     1      -6.926  10.969  20.363  0.00  0.00    +0.000 A 
ATOM     26  N   UNL     1      -5.840  11.764  20.166  0.00  0.00    +0.000 N 
ATOM     27  C   UNL     1      -5.235  12.605  21.165  0.00  0.00    +0.000 C 
ENDBRANCH  21  22
ENDBRANCH  17  21
ENDBRANCH  15  17
ENDBRANCH   8  11
BRANCH   5  28
ATOM     28  C   UNL     1       2.448   4.902  20.286  0.00  0.00    +0.000 C 
ATOM     29  F   UNL     1       2.288   5.363  21.558  0.00  0.00    +0.000 F 
ATOM     30  F   UNL     1       1.216   4.484  19.886  0.00  0.00    +0.000 F 
ATOM     31  F   UNL     1       3.212   3.781  20.395  0.00  0.00    +0.000 F 
ENDBRANCH   5  28
BRANCH   1  33
ATOM     32  C   UNL     1       7.179   6.775  17.321  0.00  0.00    +0.000 C 
ATOM     33  C   UNL     1       5.910   6.142  16.734  0.00  0.00    +0.000 C 
BRANCH  33  34
ATOM     34  N   UNL     1       5.940   4.669  16.501  0.00  0.00    +0.000 NA
ATOM     35  C   UNL     1       4.855   4.289  15.548  0.00  0.00    +0.000 C 
ATOM     36  C   UNL     1       5.443   4.635  14.212  0.00  0.00    +0.000 C 
ATOM     37  C   UNL     1       6.178   3.628  13.386  0.00  0.00    +0.000 C 
ATOM     38  C   UNL     1       6.924   4.515  14.357  0.00  0.00    +0.000 C 
ATOM     39  C   UNL     1       7.170   4.203  15.807  0.00  0.00    +0.000 C 
ENDBRANCH  33  34
ENDBRANCH   1  33
TORSDOF 7
ENDMDL
MODEL 7
REMARK VINA RESULT:      -9.0      1.740      2.888
REMARK  Name = 
REMARK  9 active torsions:
REMARK  status: ('A' for Active; 'I' for Inactive)
REMARK    1  A    between atoms: C_1  and  C_2
REMARK    2  A    between atoms: C_2  and  C_3
REMARK    3  A    between atoms: C_2  and  N_34
REMARK    4  A    between atoms: C_7  and  C_8
REMARK    5  A    between atoms: N_14  and  C_15
REMARK    6  A    between atoms: C_19  and  C_20
REMARK    7  A    between atoms: C_20  and  C_21
REMARK    8  A    between atoms: C_21  and  C_22
REMARK    9  A    between atoms: N_26  and  C_27
REMARK                            x       y       z     vdW  Elec       q    Type
REMARK                         _______ _______ _______ _____ _____    ______ ____
ROOT
ATOM      1  C   UNL     1       0.871  12.035  19.852  0.00  0.00    +0.000 A 
ATOM      2  C   UNL     1       1.442  11.266  18.832  0.00  0.00    +0.000 A 
ATOM      3  C   UNL     1       1.555   9.909  19.041  0.00  0.00    +0.000 A 
ATOM      4  C   UNL     1       1.131   9.279  20.207  0.00  0.00    +0.000 A 
ATOM      5  C   UNL     1       0.542  10.007  21.235  0.00  0.00    +0.000 A 
ATOM      6  C   UNL     1       0.400  11.397  21.030  0.00  0.00    +0.000 A 
ATOM      7  C   UNL     1       1.463   7.826  20.123  0.00  0.00    +0.000 C 
ATOM      8  N   UNL     1       2.077   7.693  18.805  0.00  0.00    +0.000 N 
ATOM      9  C   UNL     1       2.158   8.919  18.155  0.00  0.00    +0.000 C 
ATOM     10  O   UNL     1       2.629   9.227  17.072  0.00  0.00    +0.000 OA
ENDROOT
BRANCH   8  11
ATOM     11  C   UNL     1       2.504   6.444  18.299  0.00  0.00    +0.000 A 
ATOM     12  C   UNL     1       1.670   5.325  18.286  0.00  0.00    +0.000 A 
ATOM     13  C   UNL     1       2.125   4.102  17.796  0.00  0.00    +0.000 A 
ATOM     14  C   UNL     1       3.435   3.981  17.336  0.00  0.00    +0.000 A 
ATOM     15  C   UNL     1       4.329   5.066  17.359  0.00  0.00    +0.000 A 
ATOM     16  C   UNL     1       3.814   6.294  17.819  0.00  0.00    +0.000 A 
BRANCH  15  17
ATOM     17  C   UNL     1       5.862   4.925  16.941  0.00  0.00    +0.000 C 
ATOM     18  C   UNL     1       6.732   6.213  16.817  0.00  0.00    +0.000 C 
ATOM     19  O   UNL     1       7.799   5.587  17.585  0.00  0.00    +0.000 OA
ATOM     20  C   UNL     1       6.836   4.650  18.125  0.00  0.00    +0.000 C 
BRANCH  17  21
ATOM     21  C   UNL     1       6.050   3.947  15.766  0.00  0.00    +0.000 C 
BRANCH  21  22
ATOM     22  C   UNL     1       6.780   4.544  14.605  0.00  0.00    +0.000 A 
ATOM     23  N   UNL     1       7.775   5.405  14.674  0.00  0.00    +0.000 NA
ATOM     24  N   UNL     1       8.200   5.686  13.397  0.00  0.00    +0.000 NA
ATOM     25  C   UNL     1       7.460   4.985  12.571  0.00  0.00    +0.000 A 
ATOM     26  N   UNL     1       6.547   4.266  13.279  0.00  0.00    +0.000 N 
ATOM     27  C   UNL     1       5.558   3.389  12.711  0.00  0.00    +0.000 C 
ENDBRANCH  21  22
ENDBRANCH  17  21
ENDBRANCH  15  17
ENDBRANCH   8  11
BRANCH   5  28
ATOM     28  C   UNL     1       0.117   9.375  22.536  0.00  0.00    +0.000 C 
ATOM     29  F   UNL     1       1.154   8.863  23.256  0.00  0.00    +0.000 F 
ATOM     30  F   UNL     1      -0.507  10.258  23.363  0.00  0.00    +0.000 F 
ATOM     31  F   UNL     1      -0.752   8.343  22.358  0.00  0.00    +0.000 F 
ENDBRANCH   5  28
BRANCH   1  33
ATOM     32  C   UNL     1       2.181  13.970  19.038  0.00  0.00    +0.000 C 
ATOM     33  C   UNL     1       0.855  13.561  19.695  0.00  0.00    +0.000 C 
BRANCH  33  34
ATOM     34  N   UNL     1      -0.396  14.012  19.019  0.00  0.00    +0.000 NA
ATOM     35  C   UNL     1      -1.580  13.611  19.835  0.00  0.00    +0.000 C 
ATOM     36  C   UNL     1      -1.630  14.667  20.899  0.00  0.00    +0.000 C 
ATOM     37  C   UNL     1      -2.464  15.900  20.752  0.00  0.00    +0.000 C 
ATOM     38  C   UNL     1      -1.018  15.894  20.308  0.00  0.00    +0.000 C 
ATOM     39  C   UNL     1      -0.530  15.491  18.944  0.00  0.00    +0.000 C 
ENDBRANCH  33  34
ENDBRANCH   1  33
TORSDOF 7
ENDMDL
MODEL 8
REMARK VINA RESULT:      -8.8      3.649      9.894
REMARK  Name = 
REMARK  9 active torsions:
REMARK  status: ('A' for Active; 'I' for Inactive)
REMARK    1  A    between atoms: C_1  and  C_2
REMARK    2  A    between atoms: C_2  and  C_3
REMARK    3  A    between atoms: C_2  and  N_34
REMARK    4  A    between atoms: C_7  and  C_8
REMARK    5  A    between atoms: N_14  and  C_15
REMARK    6  A    between atoms: C_19  and  C_20
REMARK    7  A    between atoms: C_20  and  C_21
REMARK    8  A    between atoms: C_21  and  C_22
REMARK    9  A    between atoms: N_26  and  C_27
REMARK                            x       y       z     vdW  Elec       q    Type
REMARK                         _______ _______ _______ _____ _____    ______ ____
ROOT
ATOM      1  C   UNL     1       4.912   6.279  17.903  0.00  0.00    +0.000 A 
ATOM      2  C   UNL     1       4.331   7.514  17.593  0.00  0.00    +0.000 A 
ATOM      3  C   UNL     1       3.143   7.835  18.213  0.00  0.00    +0.000 A 
ATOM      4  C   UNL     1       2.505   6.996  19.122  0.00  0.00    +0.000 A 
ATOM      5  C   UNL     1       3.061   5.769  19.468  0.00  0.00    +0.000 A 
ATOM      6  C   UNL     1       4.289   5.432  18.858  0.00  0.00    +0.000 A 
ATOM      7  C   UNL     1       1.218   7.624  19.543  0.00  0.00    +0.000 C 
ATOM      8  N   UNL     1       1.206   8.894  18.821  0.00  0.00    +0.000 N 
ATOM      9  C   UNL     1       2.329   9.030  18.012  0.00  0.00    +0.000 C 
ATOM     10  O   UNL     1       2.663   9.914  17.241  0.00  0.00    +0.000 OA
ENDROOT
BRANCH   8  11
ATOM     11  C   UNL     1       0.164   9.835  18.976  0.00  0.00    +0.000 A 
ATOM     12  C   UNL     1       0.123  10.727  20.048  0.00  0.00    +0.000 A 
ATOM     13  C   UNL     1      -0.928  11.633  20.183  0.00  0.00    +0.000 A 
ATOM     14  C   UNL     1      -1.967  11.635  19.255  0.00  0.00    +0.000 A 
ATOM     15  C   UNL     1      -1.995  10.735  18.175  0.00  0.00    +0.000 A 
ATOM     16  C   UNL     1      -0.892   9.869  18.051  0.00  0.00    +0.000 A 
BRANCH  15  17
ATOM     17  C   UNL     1      -3.226  10.646  17.163  0.00  0.00    +0.000 C 
ATOM     18  C   UNL     1      -3.272  11.618  15.945  0.00  0.00    +0.000 C 
ATOM     19  O   UNL     1      -3.600  10.514  15.054  0.00  0.00    +0.000 OA
ATOM     20  C   UNL     1      -3.060   9.590  16.030  0.00  0.00    +0.000 C 
BRANCH  17  21
ATOM     21  C   UNL     1      -4.572  10.531  17.902  0.00  0.00    +0.000 C 
BRANCH  21  22
ATOM     22  C   UNL     1      -5.352  11.806  17.921  0.00  0.00    +0.000 A 
ATOM     23  N   UNL     1      -5.881  12.407  16.874  0.00  0.00    +0.000 NA
ATOM     24  N   UNL     1      -6.549  13.529  17.305  0.00  0.00    +0.000 NA
ATOM     25  C   UNL     1      -6.421  13.588  18.609  0.00  0.00    +0.000 A 
ATOM     26  N   UNL     1      -5.668  12.540  19.039  0.00  0.00    +0.000 N 
ATOM     27  C   UNL     1      -5.308  12.282  20.408  0.00  0.00    +0.000 C 
ENDBRANCH  21  22
ENDBRANCH  17  21
ENDBRANCH  15  17
ENDBRANCH   8  11
BRANCH   5  28
ATOM     28  C   UNL     1       2.379   4.806  20.406  0.00  0.00    +0.000 C 
ATOM     29  F   UNL     1       3.082   3.657  20.612  0.00  0.00    +0.000 F 
ATOM     30  F   UNL     1       2.174   5.340  21.641  0.00  0.00    +0.000 F 
ATOM     31  F   UNL     1       1.157   4.412  19.955  0.00  0.00    +0.000 F 
ENDBRANCH   5  28
BRANCH   1  33
ATOM     32  C   UNL     1       7.385   6.231  17.974  0.00  0.00    +0.000 C 
ATOM     33  C   UNL     1       6.163   5.846  17.129  0.00  0.00    +0.000 C 
BRANCH  33  34
ATOM     34  N   UNL     1       6.059   4.418  16.709  0.00  0.00    +0.000 NA
ATOM     35  C   UNL     1       4.871   4.239  15.823  0.00  0.00    +0.000 C 
ATOM     36  C   UNL     1       5.367   4.721  14.492  0.00  0.00    +0.000 C 
ATOM     37  C   UNL     1       5.949   3.788  13.479  0.00  0.00    +0.000 C 
ATOM     38  C   UNL     1       6.841   4.487  14.479  0.00  0.00    +0.000 C 
ATOM     39  C   UNL     1       7.186   3.969  15.848  0.00  0.00    +0.000 C 
ENDBRANCH  33  34
ENDBRANCH   1  33
TORSDOF 7
ENDMDL
MODEL 9
REMARK VINA RESULT:      -8.8      2.773      9.192
REMARK  Name = 
REMARK  9 active torsions:
REMARK  status: ('A' for Active; 'I' for Inactive)
REMARK    1  A    between atoms: C_1  and  C_2
REMARK    2  A    between atoms: C_2  and  C_3
REMARK    3  A    between atoms: C_2  and  N_34
REMARK    4  A    between atoms: C_7  and  C_8
REMARK    5  A    between atoms: N_14  and  C_15
REMARK    6  A    between atoms: C_19  and  C_20
REMARK    7  A    between atoms: C_20  and  C_21
REMARK    8  A    between atoms: C_21  and  C_22
REMARK    9  A    between atoms: N_26  and  C_27
REMARK                            x       y       z     vdW  Elec       q    Type
REMARK                         _______ _______ _______ _____ _____    ______ ____
ROOT
ATOM      1  C   UNL     1       3.958   4.736  18.199  0.00  0.00    +0.000 A 
ATOM      2  C   UNL     1       3.579   6.084  18.190  0.00  0.00    +0.000 A 
ATOM      3  C   UNL     1       2.748   6.520  19.199  0.00  0.00    +0.000 A 
ATOM      4  C   UNL     1       2.276   5.691  20.212  0.00  0.00    +0.000 A 
ATOM      5  C   UNL     1       2.646   4.351  20.263  0.00  0.00    +0.000 A 
ATOM      6  C   UNL     1       3.513   3.891  19.249  0.00  0.00    +0.000 A 
ATOM      7  C   UNL     1       1.355   6.471  21.089  0.00  0.00    +0.000 C 
ATOM      8  N   UNL     1       1.377   7.808  20.503  0.00  0.00    +0.000 N 
ATOM      9  C   UNL     1       2.182   7.854  19.370  0.00  0.00    +0.000 C 
ATOM     10  O   UNL     1       2.427   8.762  18.593  0.00  0.00    +0.000 OA
ENDROOT
BRANCH   8  11
ATOM     11  C   UNL     1       0.660   8.887  21.068  0.00  0.00    +0.000 A 
ATOM     12  C   UNL     1       0.083   8.810  22.336  0.00  0.00    +0.000 A 
ATOM     13  C   UNL     1      -0.634   9.886  22.860  0.00  0.00    +0.000 A 
ATOM     14  C   UNL     1      -0.802  11.044  22.103  0.00  0.00    +0.000 A 
ATOM     15  C   UNL     1      -0.272  11.162  20.806  0.00  0.00    +0.000 A 
ATOM     16  C   UNL     1       0.483  10.070  20.334  0.00  0.00    +0.000 A 
BRANCH  15  17
ATOM     17  C   UNL     1      -0.543  12.433  19.880  0.00  0.00    +0.000 C 
ATOM     18  C   UNL     1       0.476  12.774  18.750  0.00  0.00    +0.000 C 
ATOM     19  O   UNL     1      -0.612  12.954  17.800  0.00  0.00    +0.000 OA
ATOM     20  C   UNL     1      -1.468  12.161  18.658  0.00  0.00    +0.000 C 
BRANCH  17  21
ATOM     21  C   UNL     1      -0.975  13.662  20.702  0.00  0.00    +0.000 C 
BRANCH  21  22
ATOM     22  C   UNL     1       0.172  14.497  21.175  0.00  0.00    +0.000 A 
ATOM     23  N   UNL     1       0.990  14.202  22.165  0.00  0.00    +0.000 NA
ATOM     24  N   UNL     1       1.932  15.198  22.266  0.00  0.00    +0.000 NA
ATOM     25  C   UNL     1       1.675  16.081  21.330  0.00  0.00    +0.000 A 
ATOM     26  N   UNL     1       0.574  15.693  20.631  0.00  0.00    +0.000 N 
ATOM     27  C   UNL     1      -0.012  16.418  19.536  0.00  0.00    +0.000 C 
ENDBRANCH  21  22
ENDBRANCH  17  21
ENDBRANCH  15  17
ENDBRANCH   8  11
BRANCH   5  28
ATOM     28  C   UNL     1       2.117   3.404  21.310  0.00  0.00    +0.000 C 
ATOM     29  F   UNL     1       0.776   3.182  21.216  0.00  0.00    +0.000 F 
ATOM     30  F   UNL     1       2.700   2.176  21.243  0.00  0.00    +0.000 F 
ATOM     31  F   UNL     1       2.326   3.855  22.578  0.00  0.00    +0.000 F 
ENDBRANCH   5  28
BRANCH   1  33
ATOM     32  C   UNL     1       4.105   2.900  16.546  0.00  0.00    +0.000 C 
ATOM     33  C   UNL     1       4.774   4.200  17.016  0.00  0.00    +0.000 C 
BRANCH  33  34
ATOM     34  N   UNL     1       4.977   5.260  15.987  0.00  0.00    +0.000 NA
ATOM     35  C   UNL     1       6.341   5.848  16.134  0.00  0.00    +0.000 C 
ATOM     36  C   UNL     1       7.218   4.843  15.447  0.00  0.00    +0.000 C 
ATOM     37  C   UNL     1       7.591   4.973  14.004  0.00  0.00    +0.000 C 
ATOM     38  C   UNL     1       6.371   4.179  14.413  0.00  0.00    +0.000 C 
ATOM     39  C   UNL     1       4.988   4.741  14.594  0.00  0.00    +0.000 C 
ENDBRANCH  33  34
ENDBRANCH   1  33
TORSDOF 7
ENDMDL
