MODEL 1
REMARK VINA RESULT:      -9.1      0.000      0.000
REMARK  Name = 
REMARK  9 active torsions:
REMARK  status: ('A' for Active; 'I' for Inactive)
REMARK    1  A    between atoms: C_1  and  C_2
REMARK    2  A    between atoms: C_7  and  C_9
REMARK    3  A    between atoms: C_13  and  C_14
REMARK    4  A    between atoms: N_16  and  C_17
REMARK    5  A    between atoms: C_21  and  C_22
REMARK    6  A    between atoms: C_22  and  C_23
REMARK    7  A    between atoms: C_22  and  S_24
REMARK    8  A    between atoms: S_24  and  C_25
REMARK    9  A    between atoms: N_29  and  C_30
REMARK                            x       y       z     vdW  Elec       q    Type
REMARK                         _______ _______ _______ _____ _____    ______ ____
ROOT
ATOM      1  C   UNL     1       1.507   8.874  19.366  0.00  0.00    +0.000 C 
ATOM      2  O   UNL     1       1.523   8.417  20.508  0.00  0.00    +0.000 OA
ATOM      3  N   UNL     1       2.024   8.280  18.230  0.00  0.00    +0.000 N 
ATOM      4  H   UNL     1       2.027   8.855  17.390  0.00  0.00    +0.000 HD
ENDROOT
BRANCH   1   9
ATOM      5  C   UNL     1      -0.908  11.768  19.326  0.00  0.00    +0.000 A 
ATOM      6  C   UNL     1      -0.036  12.763  18.889  0.00  0.00    +0.000 A 
ATOM      7  C   UNL     1       1.252  12.418  18.517  0.00  0.00    +0.000 A 
ATOM      8  N   UNL     1       1.759  11.178  18.639  0.00  0.00    +0.000 NA
ATOM      9  C   UNL     1       0.925  10.238  19.163  0.00  0.00    +0.000 A 
ATOM     10  C   UNL     1      -0.399  10.482  19.509  0.00  0.00    +0.000 A 
BRANCH   5  17
ATOM     11  C   UNL     1      -2.810   9.791  17.327  0.00  0.00    +0.000 C 
ATOM     12  C   UNL     1      -3.255  11.251  17.332  0.00  0.00    +0.000 C 
ATOM     13  C   UNL     1      -4.659  11.406  16.726  0.00  0.00    +0.000 C 
ATOM     14  C   UNL     1      -5.441  12.247  17.725  0.00  0.00    +0.000 C 
ATOM     15  C   UNL     1      -4.730  12.025  19.047  0.00  0.00    +0.000 C 
ATOM     16  N   UNL     1      -3.340  11.819  18.681  0.00  0.00    +0.000 N 
ATOM     17  C   UNL     1      -2.348  12.008  19.642  0.00  0.00    +0.000 C 
ATOM     18  O   UNL     1      -2.623  12.348  20.795  0.00  0.00    +0.000 OA
ENDBRANCH   5  17
ENDBRANCH   1   9
BRANCH   3  19
ATOM     19  C   UNL     1       2.626   7.000  18.166  0.00  0.00    +0.000 A 
ATOM     20  C   UNL     1       2.024   5.874  18.741  0.00  0.00    +0.000 A 
ATOM     21  C   UNL     1       2.651   4.634  18.707  0.00  0.00    +0.000 A 
ATOM     22  C   UNL     1       3.896   4.497  18.107  0.00  0.00    +0.000 A 
ATOM     23  C   UNL     1       4.524   5.599  17.502  0.00  0.00    +0.000 A 
ATOM     24  C   UNL     1       3.865   6.848  17.524  0.00  0.00    +0.000 A 
BRANCH  23  25
ATOM     25  C   UNL     1       5.898   5.452  16.866  0.00  0.00    +0.000 C 
ATOM     26  C   UNL     1       6.980   5.255  17.940  0.00  0.00    +0.000 C 
BRANCH  25  27
ATOM     27  S   UNL     1       5.998   4.021  15.721  0.00  0.00    +0.000 S 
BRANCH  27  28
ATOM     28  C   UNL     1       6.895   4.667  14.397  0.00  0.00    +0.000 A 
ATOM     29  N   UNL     1       7.883   5.532  14.446  0.00  0.00    +0.000 NA
ATOM     30  N   UNL     1       8.333   5.725  13.156  0.00  0.00    +0.000 NA
ATOM     31  C   UNL     1       7.610   4.967  12.363  0.00  0.00    +0.000 A 
ATOM     32  N   UNL     1       6.689   4.283  13.102  0.00  0.00    +0.000 N 
ATOM     33  C   UNL     1       5.723   3.351  12.588  0.00  0.00    +0.000 C 
ENDBRANCH  27  28
ENDBRANCH  25  27
ENDBRANCH  23  25
ENDBRANCH   3  19
TORSDOF 6
ENDMDL
MODEL 2
REMARK VINA RESULT:      -8.8      6.430      9.995
REMARK  Name = 
REMARK  9 active torsions:
REMARK  status: ('A' for Active; 'I' for Inactive)
REMARK    1  A    between atoms: C_1  and  C_2
REMARK    2  A    between atoms: C_7  and  C_9
REMARK    3  A    between atoms: C_13  and  C_14
REMARK    4  A    between atoms: N_16  and  C_17
REMARK    5  A    between atoms: C_21  and  C_22
REMARK    6  A    between atoms: C_22  and  C_23
REMARK    7  A    between atoms: C_22  and  S_24
REMARK    8  A    between atoms: S_24  and  C_25
REMARK    9  A    between atoms: N_29  and  C_30
REMARK                            x       y       z     vdW  Elec       q    Type
REMARK                         _______ _______ _______ _____ _____    ______ ____
ROOT
ATOM      1  C   UNL     1       7.754   7.628  18.010  0.00  0.00    +0.000 C 
ATOM      2  O   UNL     1       8.526   7.158  18.844  0.00  0.00    +0.000 OA
ATOM      3  N   UNL     1       7.618   8.961  17.668  0.00  0.00    +0.000 N 
ATOM      4  H   UNL     1       6.846   9.183  17.042  0.00  0.00    +0.000 HD
ENDROOT
BRANCH   1   9
ATOM      5  C   UNL     1       4.654   5.683  17.109  0.00  0.00    +0.000 A 
ATOM      6  C   UNL     1       5.115   5.082  15.940  0.00  0.00    +0.000 A 
ATOM      7  C   UNL     1       6.441   5.245  15.573  0.00  0.00    +0.000 A 
ATOM      8  N   UNL     1       7.308   6.034  16.233  0.00  0.00    +0.000 NA
ATOM      9  C   UNL     1       6.813   6.694  17.316  0.00  0.00    +0.000 A 
ATOM     10  C   UNL     1       5.513   6.546  17.788  0.00  0.00    +0.000 A 
BRANCH   5  17
ATOM     11  C   UNL     1       4.735   3.141  19.357  0.00  0.00    +0.000 C 
ATOM     12  C   UNL     1       3.621   2.998  18.323  0.00  0.00    +0.000 C 
ATOM     13  C   UNL     1       2.591   1.944  18.759  0.00  0.00    +0.000 C 
ATOM     14  C   UNL     1       1.233   2.613  18.599  0.00  0.00    +0.000 C 
ATOM     15  C   UNL     1       1.530   4.098  18.686  0.00  0.00    +0.000 C 
ATOM     16  N   UNL     1       2.862   4.236  18.124  0.00  0.00    +0.000 N 
ATOM     17  C   UNL     1       3.279   5.482  17.658  0.00  0.00    +0.000 C 
ATOM     18  O   UNL     1       2.542   6.470  17.709  0.00  0.00    +0.000 OA
ENDBRANCH   5  17
ENDBRANCH   1   9
BRANCH   3  19
ATOM     19  C   UNL     1       8.387  10.032  18.187  0.00  0.00    +0.000 A 
ATOM     20  C   UNL     1       9.371   9.826  19.161  0.00  0.00    +0.000 A 
ATOM     21  C   UNL     1      10.085  10.894  19.691  0.00  0.00    +0.000 A 
ATOM     22  C   UNL     1       9.823  12.190  19.265  0.00  0.00    +0.000 A 
ATOM     23  C   UNL     1       8.857  12.435  18.275  0.00  0.00    +0.000 A 
ATOM     24  C   UNL     1       8.154  11.337  17.728  0.00  0.00    +0.000 A 
BRANCH  23  25
ATOM     25  C   UNL     1       8.554  13.857  17.826  0.00  0.00    +0.000 C 
ATOM     26  C   UNL     1       7.049  14.044  17.579  0.00  0.00    +0.000 C 
BRANCH  25  27
ATOM     27  S   UNL     1       9.065  15.112  19.064  0.00  0.00    +0.000 S 
BRANCH  27  28
ATOM     28  C   UNL     1      10.385  15.895  18.276  0.00  0.00    +0.000 A 
ATOM     29  N   UNL     1      11.486  15.342  17.819  0.00  0.00    +0.000 NA
ATOM     30  N   UNL     1      12.236  16.335  17.224  0.00  0.00    +0.000 NA
ATOM     31  C   UNL     1      11.564  17.460  17.331  0.00  0.00    +0.000 A 
ATOM     32  N   UNL     1      10.393  17.230  17.989  0.00  0.00    +0.000 N 
ATOM     33  C   UNL     1       9.390  18.216  18.292  0.00  0.00    +0.000 C 
ENDBRANCH  27  28
ENDBRANCH  25  27
ENDBRANCH  23  25
ENDBRANCH   3  19
TORSDOF 6
ENDMDL
MODEL 3
REMARK VINA RESULT:      -8.7      3.111     10.191
REMARK  Name = 
REMARK  9 active torsions:
REMARK  status: ('A' for Active; 'I' for Inactive)
REMARK    1  A    between atoms: C_1  and  C_2
REMARK    2  A    between atoms: C_7  and  C_9
REMARK    3  A    between atoms: C_13  and  C_14
REMARK    4  A    between atoms: N_16  and  C_17
REMARK    5  A    between atoms: C_21  and  C_22
REMARK    6  A    between atoms: C_22  and  C_23
REMARK    7  A    between atoms: C_22  and  S_24
REMARK    8  A    between atoms: S_24  and  C_25
REMARK    9  A    between atoms: N_29  and  C_30
REMARK                            x       y       z     vdW  Elec       q    Type
REMARK                         _______ _______ _______ _____ _____    ______ ____
ROOT
ATOM      1  C   UNL     1       1.677   7.449  20.167  0.00  0.00    +0.000 C 
ATOM      2  O   UNL     1       2.041   8.247  19.305  0.00  0.00    +0.000 OA
ATOM      3  N   UNL     1       0.871   7.719  21.257  0.00  0.00    +0.000 N 
ATOM      4  H   UNL     1       0.769   6.964  21.932  0.00  0.00    +0.000 HD
ENDROOT
BRANCH   1   9
ATOM      5  C   UNL     1       3.428   4.339  18.953  0.00  0.00    +0.000 A 
ATOM      6  C   UNL     1       3.193   3.521  20.057  0.00  0.00    +0.000 A 
ATOM      7  C   UNL     1       2.380   3.982  21.079  0.00  0.00    +0.000 A 
ATOM      8  N   UNL     1       1.866   5.224  21.124  0.00  0.00    +0.000 NA
ATOM      9  C   UNL     1       2.188   6.044  20.086  0.00  0.00    +0.000 A 
ATOM     10  C   UNL     1       2.949   5.649  18.992  0.00  0.00    +0.000 A 
BRANCH   5  17
ATOM     11  C   UNL     1       6.630   5.428  19.236  0.00  0.00    +0.000 C 
ATOM     12  C   UNL     1       5.994   5.764  17.890  0.00  0.00    +0.000 C 
ATOM     13  C   UNL     1       7.058   6.187  16.864  0.00  0.00    +0.000 C 
ATOM     14  C   UNL     1       6.771   5.360  15.618  0.00  0.00    +0.000 C 
ATOM     15  C   UNL     1       6.030   4.141  16.135  0.00  0.00    +0.000 C 
ATOM     16  N   UNL     1       5.292   4.627  17.288  0.00  0.00    +0.000 N 
ATOM     17  C   UNL     1       4.192   3.903  17.746  0.00  0.00    +0.000 C 
ATOM     18  O   UNL     1       3.828   2.863  17.194  0.00  0.00    +0.000 OA
ENDBRANCH   5  17
ENDBRANCH   1   9
BRANCH   3  19
ATOM     19  C   UNL     1       0.270   8.967  21.554  0.00  0.00    +0.000 A 
ATOM     20  C   UNL     1      -0.045   9.337  22.867  0.00  0.00    +0.000 A 
ATOM     21  C   UNL     1      -0.675  10.547  23.136  0.00  0.00    +0.000 A 
ATOM     22  C   UNL     1      -1.011  11.405  22.097  0.00  0.00    +0.000 A 
ATOM     23  C   UNL     1      -0.693  11.078  20.768  0.00  0.00    +0.000 A 
ATOM     24  C   UNL     1      -0.032   9.856  20.511  0.00  0.00    +0.000 A 
BRANCH  23  25
ATOM     25  C   UNL     1      -1.083  12.009  19.628  0.00  0.00    +0.000 C 
ATOM     26  C   UNL     1       0.072  12.961  19.279  0.00  0.00    +0.000 C 
BRANCH  25  27
ATOM     27  S   UNL     1      -1.527  11.101  18.096  0.00  0.00    +0.000 S 
BRANCH  27  28
ATOM     28  C   UNL     1      -3.199  11.483  17.909  0.00  0.00    +0.000 A 
ATOM     29  N   UNL     1      -4.026  11.928  18.829  0.00  0.00    +0.000 NA
ATOM     30  N   UNL     1      -5.247  12.142  18.223  0.00  0.00    +0.000 NA
ATOM     31  C   UNL     1      -5.124  11.828  16.954  0.00  0.00    +0.000 A 
ATOM     32  N   UNL     1      -3.850  11.405  16.711  0.00  0.00    +0.000 N 
ATOM     33  C   UNL     1      -3.332  10.981  15.438  0.00  0.00    +0.000 C 
ENDBRANCH  27  28
ENDBRANCH  25  27
ENDBRANCH  23  25
ENDBRANCH   3  19
TORSDOF 6
ENDMDL
MODEL 4
REMARK VINA RESULT:      -8.5      3.888     10.567
REMARK  Name = 
REMARK  9 active torsions:
REMARK  status: ('A' for Active; 'I' for Inactive)
REMARK    1  A    between atoms: C_1  and  C_2
REMARK    2  A    between atoms: C_7  and  C_9
REMARK    3  A    between atoms: C_13  and  C_14
REMARK    4  A    between atoms: N_16  and  C_17
REMARK    5  A    between atoms: C_21  and  C_22
REMARK    6  A    between atoms: C_22  and  C_23
REMARK    7  A    between atoms: C_22  and  S_24
REMARK    8  A    between atoms: S_24  and  C_25
REMARK    9  A    between atoms: N_29  and  C_30
REMARK                            x       y       z     vdW  Elec       q    Type
REMARK                         _______ _______ _______ _____ _____    ______ ____
ROOT
ATOM      1  C   UNL     1       2.745   8.411  17.850  0.00  0.00    +0.000 C 
ATOM      2  O   UNL     1       2.995   9.392  17.150  0.00  0.00    +0.000 OA
ATOM      3  N   UNL     1       1.788   8.327  18.843  0.00  0.00    +0.000 N 
ATOM      4  H   UNL     1       1.800   7.474  19.400  0.00  0.00    +0.000 HD
ENDROOT
BRANCH   1   9
ATOM      5  C   UNL     1       4.301   5.022  18.400  0.00  0.00    +0.000 A 
ATOM      6  C   UNL     1       5.035   4.934  17.219  0.00  0.00    +0.000 A 
ATOM      7  C   UNL     1       5.080   6.025  16.367  0.00  0.00    +0.000 A 
ATOM      8  N   UNL     1       4.376   7.154  16.561  0.00  0.00    +0.000 NA
ATOM      9  C   UNL     1       3.585   7.186  17.668  0.00  0.00    +0.000 A 
ATOM     10  C   UNL     1       3.521   6.160  18.606  0.00  0.00    +0.000 A 
BRANCH   5  17
ATOM     11  C   UNL     1       1.341   3.373  18.200  0.00  0.00    +0.000 C 
ATOM     12  C   UNL     1       1.690   3.818  19.618  0.00  0.00    +0.000 C 
ATOM     13  C   UNL     1       0.809   3.105  20.656  0.00  0.00    +0.000 C 
ATOM     14  C   UNL     1       1.772   2.565  21.704  0.00  0.00    +0.000 C 
ATOM     15  C   UNL     1       3.095   2.436  20.971  0.00  0.00    +0.000 C 
ATOM     16  N   UNL     1       3.073   3.508  19.991  0.00  0.00    +0.000 N 
ATOM     17  C   UNL     1       4.275   3.952  19.442  0.00  0.00    +0.000 C 
ATOM     18  O   UNL     1       5.357   3.460  19.771  0.00  0.00    +0.000 OA
ENDBRANCH   5  17
ENDBRANCH   1   9
BRANCH   3  19
ATOM     19  C   UNL     1       0.877   9.349  19.206  0.00  0.00    +0.000 A 
ATOM     20  C   UNL     1       0.494  10.346  18.301  0.00  0.00    +0.000 A 
ATOM     21  C   UNL     1      -0.367  11.368  18.687  0.00  0.00    +0.000 A 
ATOM     22  C   UNL     1      -0.852  11.418  19.987  0.00  0.00    +0.000 A 
ATOM     23  C   UNL     1      -0.506  10.424  20.919  0.00  0.00    +0.000 A 
ATOM     24  C   UNL     1       0.351   9.379  20.506  0.00  0.00    +0.000 A 
BRANCH  23  25
ATOM     25  C   UNL     1      -1.019  10.494  22.349  0.00  0.00    +0.000 C 
ATOM     26  C   UNL     1      -0.048   9.796  23.314  0.00  0.00    +0.000 C 
BRANCH  25  27
ATOM     27  S   UNL     1      -1.233  12.219  22.940  0.00  0.00    +0.000 S 
BRANCH  27  28
ATOM     28  C   UNL     1      -2.946  12.352  23.087  0.00  0.00    +0.000 A 
ATOM     29  N   UNL     1      -3.702  11.906  24.064  0.00  0.00    +0.000 NA
ATOM     30  N   UNL     1      -5.002  12.278  23.788  0.00  0.00    +0.000 NA
ATOM     31  C   UNL     1      -4.995  12.945  22.657  0.00  0.00    +0.000 A 
ATOM     32  N   UNL     1      -3.720  13.015  22.177  0.00  0.00    +0.000 N 
ATOM     33  C   UNL     1      -3.313  13.669  20.963  0.00  0.00    +0.000 C 
ENDBRANCH  27  28
ENDBRANCH  25  27
ENDBRANCH  23  25
ENDBRANCH   3  19
TORSDOF 6
ENDMDL
MODEL 5
REMARK VINA RESULT:      -8.5      4.003      9.851
REMARK  Name = 
REMARK  9 active torsions:
REMARK  status: ('A' for Active; 'I' for Inactive)
REMARK    1  A    between atoms: C_1  and  C_2
REMARK    2  A    between atoms: C_7  and  C_9
REMARK    3  A    between atoms: C_13  and  C_14
REMARK    4  A    between atoms: N_16  and  C_17
REMARK    5  A    between atoms: C_21  and  C_22
REMARK    6  A    between atoms: C_22  and  C_23
REMARK    7  A    between atoms: C_22  and  S_24
REMARK    8  A    between atoms: S_24  and  C_25
REMARK    9  A    between atoms: N_29  and  C_30
REMARK                            x       y       z     vdW  Elec       q    Type
REMARK                         _______ _______ _______ _____ _____    ______ ____
ROOT
ATOM      1  C   UNL     1       1.751   9.156  18.493  0.00  0.00    +0.000 C 
ATOM      2  O   UNL     1       2.090   9.475  17.354  0.00  0.00    +0.000 OA
ATOM      3  N   UNL     1       1.159   9.973  19.438  0.00  0.00    +0.000 N 
ATOM      4  H   UNL     1       1.054   9.573  20.369  0.00  0.00    +0.000 HD
ENDROOT
BRANCH   1   9
ATOM      5  C   UNL     1       2.941   5.580  18.546  0.00  0.00    +0.000 A 
ATOM      6  C   UNL     1       2.670   5.288  19.882  0.00  0.00    +0.000 A 
ATOM      7  C   UNL     1       2.007   6.225  20.658  0.00  0.00    +0.000 A 
ATOM      8  N   UNL     1       1.683   7.458  20.228  0.00  0.00    +0.000 NA
ATOM      9  C   UNL     1       2.046   7.762  18.952  0.00  0.00    +0.000 A 
ATOM     10  C   UNL     1       2.662   6.866  18.085  0.00  0.00    +0.000 A 
BRANCH   5  17
ATOM     11  C   UNL     1       6.283   5.421  19.117  0.00  0.00    +0.000 C 
ATOM     12  C   UNL     1       5.930   5.626  17.646  0.00  0.00    +0.000 C 
ATOM     13  C   UNL     1       7.142   5.349  16.741  0.00  0.00    +0.000 C 
ATOM     14  C   UNL     1       6.632   4.409  15.657  0.00  0.00    +0.000 C 
ATOM     15  C   UNL     1       5.430   3.727  16.282  0.00  0.00    +0.000 C 
ATOM     16  N   UNL     1       4.873   4.724  17.180  0.00  0.00    +0.000 N 
ATOM     17  C   UNL     1       3.546   4.604  17.591  0.00  0.00    +0.000 C 
ATOM     18  O   UNL     1       2.833   3.674  17.208  0.00  0.00    +0.000 OA
ENDBRANCH   5  17
ENDBRANCH   1   9
BRANCH   3  19
ATOM     19  C   UNL     1       0.787  11.326  19.247  0.00  0.00    +0.000 A 
ATOM     20  C   UNL     1      -0.483  11.679  18.775  0.00  0.00    +0.000 A 
ATOM     21  C   UNL     1      -0.816  13.011  18.551  0.00  0.00    +0.000 A 
ATOM     22  C   UNL     1       0.116  14.013  18.785  0.00  0.00    +0.000 A 
ATOM     23  C   UNL     1       1.394  13.700  19.278  0.00  0.00    +0.000 A 
ATOM     24  C   UNL     1       1.712  12.345  19.523  0.00  0.00    +0.000 A 
BRANCH  23  25
ATOM     25  C   UNL     1       2.422  14.797  19.511  0.00  0.00    +0.000 C 
ATOM     26  C   UNL     1       3.491  14.341  20.517  0.00  0.00    +0.000 C 
BRANCH  25  27
ATOM     27  S   UNL     1       3.294  15.287  17.972  0.00  0.00    +0.000 S 
BRANCH  27  28
ATOM     28  C   UNL     1       4.566  16.288  18.567  0.00  0.00    +0.000 A 
ATOM     29  N   UNL     1       4.454  17.451  19.169  0.00  0.00    +0.000 NA
ATOM     30  N   UNL     1       5.723  17.866  19.514  0.00  0.00    +0.000 NA
ATOM     31  C   UNL     1       6.567  16.940  19.119  0.00  0.00    +0.000 A 
ATOM     32  N   UNL     1       5.882  15.928  18.514  0.00  0.00    +0.000 N 
ATOM     33  C   UNL     1       6.461  14.735  17.956  0.00  0.00    +0.000 C 
ENDBRANCH  27  28
ENDBRANCH  25  27
ENDBRANCH  23  25
ENDBRANCH   3  19
TORSDOF 6
ENDMDL
MODEL 6
REMARK VINA RESULT:      -8.4      1.171      1.792
REMARK  Name = 
REMARK  9 active torsions:
REMARK  status: ('A' for Active; 'I' for Inactive)
REMARK    1  A    between atoms: C_1  and  C_2
REMARK    2  A    between atoms: C_7  and  C_9
REMARK    3  A    between atoms: C_13  and  C_14
REMARK    4  A    between atoms: N_16  and  C_17
REMARK    5  A    between atoms: C_21  and  C_22
REMARK    6  A    between atoms: C_22  and  C_23
REMARK    7  A    between atoms: C_22  and  S_24
REMARK    8  A    between atoms: S_24  and  C_25
REMARK    9  A    between atoms: N_29  and  C_30
REMARK                            x       y       z     vdW  Elec       q    Type
REMARK                         _______ _______ _______ _____ _____    ______ ____
ROOT
ATOM      1  C   UNL     1       1.242   9.129  19.546  0.00  0.00    +0.000 C 
ATOM      2  O   UNL     1       1.108   8.788  20.720  0.00  0.00    +0.000 OA
ATOM      3  N   UNL     1       1.963   8.467  18.570  0.00  0.00    +0.000 N 
ATOM      4  H   UNL     1       2.062   8.956  17.682  0.00  0.00    +0.000 HD
ENDROOT
BRANCH   1   9
ATOM      5  C   UNL     1      -1.319  11.728  18.600  0.00  0.00    +0.000 A 
ATOM      6  C   UNL     1      -0.464  12.818  18.443  0.00  0.00    +0.000 A 
ATOM      7  C   UNL     1       0.904  12.623  18.535  0.00  0.00    +0.000 A 
ATOM      8  N   UNL     1       1.472  11.449  18.863  0.00  0.00    +0.000 NA
ATOM      9  C   UNL     1       0.618  10.418  19.112  0.00  0.00    +0.000 A 
ATOM     10  C   UNL     1      -0.764  10.508  18.988  0.00  0.00    +0.000 A 
BRANCH   5  17
ATOM     11  C   UNL     1      -2.591  14.001  20.777  0.00  0.00    +0.000 C 
ATOM     12  C   UNL     1      -3.330  12.665  20.797  0.00  0.00    +0.000 C 
ATOM     13  C   UNL     1      -4.679  12.788  21.522  0.00  0.00    +0.000 C 
ATOM     14  C   UNL     1      -5.701  12.155  20.589  0.00  0.00    +0.000 C 
ATOM     15  C   UNL     1      -5.073  12.262  19.211  0.00  0.00    +0.000 C 
ATOM     16  N   UNL     1      -3.645  12.165  19.456  0.00  0.00    +0.000 N 
ATOM     17  C   UNL     1      -2.799  11.801  18.409  0.00  0.00    +0.000 C 
ATOM     18  O   UNL     1      -3.234  11.557  17.281  0.00  0.00    +0.000 OA
ENDBRANCH   5  17
ENDBRANCH   1   9
BRANCH   3  19
ATOM     19  C   UNL     1       2.644   7.236  18.734  0.00  0.00    +0.000 A 
ATOM     20  C   UNL     1       2.262   6.310  19.712  0.00  0.00    +0.000 A 
ATOM     21  C   UNL     1       2.970   5.126  19.889  0.00  0.00    +0.000 A 
ATOM     22  C   UNL     1       4.079   4.851  19.100  0.00  0.00    +0.000 A 
ATOM     23  C   UNL     1       4.482   5.747  18.096  0.00  0.00    +0.000 A 
ATOM     24  C   UNL     1       3.740   6.935  17.911  0.00  0.00    +0.000 A 
BRANCH  23  25
ATOM     25  C   UNL     1       5.712   5.455  17.248  0.00  0.00    +0.000 C 
ATOM     26  C   UNL     1       6.818   4.805  18.094  0.00  0.00    +0.000 C 
BRANCH  25  27
ATOM     27  S   UNL     1       5.353   4.321  15.850  0.00  0.00    +0.000 S 
BRANCH  27  28
ATOM     28  C   UNL     1       6.530   4.792  14.679  0.00  0.00    +0.000 A 
ATOM     29  N   UNL     1       7.565   5.580  14.857  0.00  0.00    +0.000 NA
ATOM     30  N   UNL     1       8.256   5.637  13.665  0.00  0.00    +0.000 NA
ATOM     31  C   UNL     1       7.624   4.876  12.800  0.00  0.00    +0.000 A 
ATOM     32  N   UNL     1       6.528   4.325  13.395  0.00  0.00    +0.000 N 
ATOM     33  C   UNL     1       5.590   3.432  12.769  0.00  0.00    +0.000 C 
ENDBRANCH  27  28
ENDBRANCH  25  27
ENDBRANCH  23  25
ENDBRANCH   3  19
TORSDOF 6
ENDMDL
MODEL 7
REMARK VINA RESULT:      -8.3      6.142     10.020
REMARK  Name = 
REMARK  9 active torsions:
REMARK  status: ('A' for Active; 'I' for Inactive)
REMARK    1  A    between atoms: C_1  and  C_2
REMARK    2  A    between atoms: C_7  and  C_9
REMARK    3  A    between atoms: C_13  and  C_14
REMARK    4  A    between atoms: N_16  and  C_17
REMARK    5  A    between atoms: C_21  and  C_22
REMARK    6  A    between atoms: C_22  and  C_23
REMARK    7  A    between atoms: C_22  and  S_24
REMARK    8  A    between atoms: S_24  and  C_25
REMARK    9  A    between atoms: N_29  and  C_30
REMARK                            x       y       z     vdW  Elec       q    Type
REMARK                         _______ _______ _______ _____ _____    ______ ____
ROOT
ATOM      1  C   UNL     1       7.801   7.744  18.015  0.00  0.00    +0.000 C 
ATOM      2  O   UNL     1       8.559   7.284  18.868  0.00  0.00    +0.000 OA
ATOM      3  N   UNL     1       7.674   9.072  17.652  0.00  0.00    +0.000 N 
ATOM      4  H   UNL     1       6.913   9.286  17.011  0.00  0.00    +0.000 HD
ENDROOT
BRANCH   1   9
ATOM      5  C   UNL     1       4.717   5.777  17.107  0.00  0.00    +0.000 A 
ATOM      6  C   UNL     1       5.188   5.175  15.941  0.00  0.00    +0.000 A 
ATOM      7  C   UNL     1       6.514   5.345  15.580  0.00  0.00    +0.000 A 
ATOM      8  N   UNL     1       7.373   6.142  16.241  0.00  0.00    +0.000 NA
ATOM      9  C   UNL     1       6.869   6.802  17.320  0.00  0.00    +0.000 A 
ATOM     10  C   UNL     1       5.569   6.647  17.787  0.00  0.00    +0.000 A 
BRANCH   5  17
ATOM     11  C   UNL     1       4.789   3.191  19.305  0.00  0.00    +0.000 C 
ATOM     12  C   UNL     1       3.676   3.071  18.266  0.00  0.00    +0.000 C 
ATOM     13  C   UNL     1       2.643   2.011  18.681  0.00  0.00    +0.000 C 
ATOM     14  C   UNL     1       1.287   2.687  18.532  0.00  0.00    +0.000 C 
ATOM     15  C   UNL     1       1.588   4.170  18.649  0.00  0.00    +0.000 C 
ATOM     16  N   UNL     1       2.921   4.315  18.091  0.00  0.00    +0.000 N 
ATOM     17  C   UNL     1       3.341   5.569  17.650  0.00  0.00    +0.000 C 
ATOM     18  O   UNL     1       2.607   6.557  17.720  0.00  0.00    +0.000 OA
ENDBRANCH   5  17
ENDBRANCH   1   9
BRANCH   3  19
ATOM     19  C   UNL     1       8.437  10.148  18.168  0.00  0.00    +0.000 A 
ATOM     20  C   UNL     1       9.441   9.946  19.123  0.00  0.00    +0.000 A 
ATOM     21  C   UNL     1      10.150  11.020  19.650  0.00  0.00    +0.000 A 
ATOM     22  C   UNL     1       9.863  12.315  19.241  0.00  0.00    +0.000 A 
ATOM     23  C   UNL     1       8.876  12.556  18.271  0.00  0.00    +0.000 A 
ATOM     24  C   UNL     1       8.179  11.455  17.726  0.00  0.00    +0.000 A 
BRANCH  23  25
ATOM     25  C   UNL     1       8.545  13.979  17.841  0.00  0.00    +0.000 C 
ATOM     26  C   UNL     1       7.034  14.146  17.619  0.00  0.00    +0.000 C 
BRANCH  25  27
ATOM     27  S   UNL     1       9.059  15.228  19.083  0.00  0.00    +0.000 S 
BRANCH  27  28
ATOM     28  C   UNL     1       7.639  16.194  19.247  0.00  0.00    +0.000 A 
ATOM     29  N   UNL     1       7.276  17.216  18.506  0.00  0.00    +0.000 NA
ATOM     30  N   UNL     1       6.051  17.652  18.967  0.00  0.00    +0.000 NA
ATOM     31  C   UNL     1       5.703  16.878  19.969  0.00  0.00    +0.000 A 
ATOM     32  N   UNL     1       6.676  15.946  20.183  0.00  0.00    +0.000 N 
ATOM     33  C   UNL     1       6.651  14.920  21.192  0.00  0.00    +0.000 C 
ENDBRANCH  27  28
ENDBRANCH  25  27
ENDBRANCH  23  25
ENDBRANCH   3  19
TORSDOF 6
ENDMDL
MODEL 8
REMARK VINA RESULT:      -8.3      2.364      3.261
REMARK  Name = 
REMARK  9 active torsions:
REMARK  status: ('A' for Active; 'I' for Inactive)
REMARK    1  A    between atoms: C_1  and  C_2
REMARK    2  A    between atoms: C_7  and  C_9
REMARK    3  A    between atoms: C_13  and  C_14
REMARK    4  A    between atoms: N_16  and  C_17
REMARK    5  A    between atoms: C_21  and  C_22
REMARK    6  A    between atoms: C_22  and  C_23
REMARK    7  A    between atoms: C_22  and  S_24
REMARK    8  A    between atoms: S_24  and  C_25
REMARK    9  A    between atoms: N_29  and  C_30
REMARK                            x       y       z     vdW  Elec       q    Type
REMARK                         _______ _______ _______ _____ _____    ______ ____
ROOT
ATOM      1  C   UNL     1       1.645   8.129  19.151  0.00  0.00    +0.000 C 
ATOM      2  O   UNL     1       1.666   8.603  18.016  0.00  0.00    +0.000 OA
ATOM      3  N   UNL     1       2.033   6.855  19.523  0.00  0.00    +0.000 N 
ATOM      4  H   UNL     1       1.837   6.595  20.487  0.00  0.00    +0.000 HD
ENDROOT
BRANCH   1   9
ATOM      5  C   UNL     1      -0.143  10.882  21.004  0.00  0.00    +0.000 A 
ATOM      6  C   UNL     1       0.019  10.400  22.302  0.00  0.00    +0.000 A 
ATOM      7  C   UNL     1       0.799   9.276  22.514  0.00  0.00    +0.000 A 
ATOM      8  N   UNL     1       1.348   8.549  21.524  0.00  0.00    +0.000 NA
ATOM      9  C   UNL     1       1.096   8.975  20.256  0.00  0.00    +0.000 A 
ATOM     10  C   UNL     1       0.372  10.123  19.953  0.00  0.00    +0.000 A 
BRANCH   5  17
ATOM     11  C   UNL     1       2.139  13.325  20.417  0.00  0.00    +0.000 C 
ATOM     12  C   UNL     1       1.046  13.742  21.398  0.00  0.00    +0.000 C 
ATOM     13  C   UNL     1       1.034  15.265  21.601  0.00  0.00    +0.000 C 
ATOM     14  C   UNL     1      -0.417  15.688  21.418  0.00  0.00    +0.000 C 
ATOM     15  C   UNL     1      -1.024  14.594  20.559  0.00  0.00    +0.000 C 
ATOM     16  N   UNL     1      -0.300  13.392  20.937  0.00  0.00    +0.000 N 
ATOM     17  C   UNL     1      -0.866  12.146  20.672  0.00  0.00    +0.000 C 
ATOM     18  O   UNL     1      -1.968  12.039  20.128  0.00  0.00    +0.000 OA
ENDBRANCH   5  17
ENDBRANCH   1   9
BRANCH   3  19
ATOM     19  C   UNL     1       2.578   5.871  18.662  0.00  0.00    +0.000 A 
ATOM     20  C   UNL     1       1.997   4.604  18.533  0.00  0.00    +0.000 A 
ATOM     21  C   UNL     1       2.571   3.636  17.717  0.00  0.00    +0.000 A 
ATOM     22  C   UNL     1       3.742   3.911  17.024  0.00  0.00    +0.000 A 
ATOM     23  C   UNL     1       4.345   5.177  17.113  0.00  0.00    +0.000 A 
ATOM     24  C   UNL     1       3.739   6.160  17.927  0.00  0.00    +0.000 A 
BRANCH  23  25
ATOM     25  C   UNL     1       5.641   5.469  16.371  0.00  0.00    +0.000 C 
ATOM     26  C   UNL     1       6.718   5.991  17.336  0.00  0.00    +0.000 C 
BRANCH  25  27
ATOM     27  S   UNL     1       6.327   3.986  15.535  0.00  0.00    +0.000 S 
BRANCH  27  28
ATOM     28  C   UNL     1       7.040   4.656  14.114  0.00  0.00    +0.000 A 
ATOM     29  N   UNL     1       8.008   5.541  14.047  0.00  0.00    +0.000 NA
ATOM     30  N   UNL     1       8.290   5.749  12.712  0.00  0.00    +0.000 NA
ATOM     31  C   UNL     1       7.489   4.980  12.010  0.00  0.00    +0.000 A 
ATOM     32  N   UNL     1       6.681   4.274  12.853  0.00  0.00    +0.000 N 
ATOM     33  C   UNL     1       5.677   3.325  12.457  0.00  0.00    +0.000 C 
ENDBRANCH  27  28
ENDBRANCH  25  27
ENDBRANCH  23  25
ENDBRANCH   3  19
TORSDOF 6
ENDMDL
MODEL 9
REMARK VINA RESULT:      -8.3      3.034      9.920
REMARK  Name = 
REMARK  9 active torsions:
REMARK  status: ('A' for Active; 'I' for Inactive)
REMARK    1  A    between atoms: C_1  and  C_2
REMARK    2  A    between atoms: C_7  and  C_9
REMARK    3  A    between atoms: C_13  and  C_14
REMARK    4  A    between atoms: N_16  and  C_17
REMARK    5  A    between atoms: C_21  and  C_22
REMARK    6  A    between atoms: C_22  and  C_23
REMARK    7  A    between atoms: C_22  and  S_24
REMARK    8  A    between atoms: S_24  and  C_25
REMARK    9  A    between atoms: N_29  and  C_30
REMARK                            x       y       z     vdW  Elec       q    Type
REMARK                         _______ _______ _______ _____ _____    ______ ____
ROOT
ATOM      1  C   UNL     1       1.650   5.956  20.591  0.00  0.00    +0.000 C 
ATOM      2  O   UNL     1       0.485   5.604  20.768  0.00  0.00    +0.000 OA
ATOM      3  N   UNL     1       2.143   7.245  20.657  0.00  0.00    +0.000 N 
ATOM      4  H   UNL     1       3.112   7.366  20.366  0.00  0.00    +0.000 HD
ENDROOT
BRANCH   1   9
ATOM      5  C   UNL     1       4.789   4.295  19.327  0.00  0.00    +0.000 A 
ATOM      6  C   UNL     1       4.475   2.977  19.653  0.00  0.00    +0.000 A 
ATOM      7  C   UNL     1       3.218   2.685  20.154  0.00  0.00    +0.000 A 
ATOM      8  N   UNL     1       2.291   3.618  20.439  0.00  0.00    +0.000 NA
ATOM      9  C   UNL     1       2.651   4.911  20.209  0.00  0.00    +0.000 A 
ATOM     10  C   UNL     1       3.869   5.290  19.656  0.00  0.00    +0.000 A 
BRANCH   5  17
ATOM     11  C   UNL     1       4.073   6.166  16.587  0.00  0.00    +0.000 C 
ATOM     12  C   UNL     1       5.067   5.041  16.308  0.00  0.00    +0.000 C 
ATOM     13  C   UNL     1       5.773   5.248  14.959  0.00  0.00    +0.000 C 
ATOM     14  C   UNL     1       7.258   5.081  15.249  0.00  0.00    +0.000 C 
ATOM     15  C   UNL     1       7.393   5.397  16.727  0.00  0.00    +0.000 C 
ATOM     16  N   UNL     1       6.135   4.960  17.307  0.00  0.00    +0.000 N 
ATOM     17  C   UNL     1       6.070   4.706  18.677  0.00  0.00    +0.000 C 
ATOM     18  O   UNL     1       7.055   4.839  19.406  0.00  0.00    +0.000 OA
ENDBRANCH   5  17
ENDBRANCH   1   9
BRANCH   3  19
ATOM     19  C   UNL     1       1.397   8.401  20.993  0.00  0.00    +0.000 A 
ATOM     20  C   UNL     1       1.105   8.726  22.323  0.00  0.00    +0.000 A 
ATOM     21  C   UNL     1       0.333   9.841  22.632  0.00  0.00    +0.000 A 
ATOM     22  C   UNL     1      -0.170  10.646  21.618  0.00  0.00    +0.000 A 
ATOM     23  C   UNL     1       0.118  10.363  20.273  0.00  0.00    +0.000 A 
ATOM     24  C   UNL     1       0.923   9.241  19.973  0.00  0.00    +0.000 A 
BRANCH  23  25
ATOM     25  C   UNL     1      -0.453  11.232  19.162  0.00  0.00    +0.000 C 
ATOM     26  C   UNL     1       0.626  12.162  18.584  0.00  0.00    +0.000 C 
BRANCH  25  27
ATOM     27  S   UNL     1      -1.128  10.245  17.769  0.00  0.00    +0.000 S 
BRANCH  27  28
ATOM     28  C   UNL     1      -2.725  10.878  17.605  0.00  0.00    +0.000 A 
ATOM     29  N   UNL     1      -3.454  11.459  18.531  0.00  0.00    +0.000 NA
ATOM     30  N   UNL     1      -4.640  11.850  17.943  0.00  0.00    +0.000 NA
ATOM     31  C   UNL     1      -4.592  11.502  16.677  0.00  0.00    +0.000 A 
ATOM     32  N   UNL     1      -3.403  10.884  16.420  0.00  0.00    +0.000 N 
ATOM     33  C   UNL     1      -2.983  10.367  15.146  0.00  0.00    +0.000 C 
ENDBRANCH  27  28
ENDBRANCH  25  27
ENDBRANCH  23  25
ENDBRANCH   3  19
TORSDOF 6
ENDMDL
