MODEL 1
REMARK VINA RESULT:      -9.8      0.000      0.000
REMARK  Name = 
REMARK  7 active torsions:
REMARK  status: ('A' for Active; 'I' for Inactive)
REMARK    1  A    between atoms: C_1  and  N_2
REMARK    2  A    between atoms: C_6  and  C_7
REMARK    3  A    between atoms: C_7  and  C_8
REMARK    4  A    between atoms: C_8  and  C_9
REMARK    5  A    between atoms: C_13  and  N_14
REMARK    6  A    between atoms: C_19  and  C_20
REMARK    7  A    between atoms: C_26  and  C_27
REMARK                            x       y       z     vdW  Elec       q    Type
REMARK                         _______ _______ _______ _____ _____    ______ ____
ROOT
ATOM      1  N   UNL     1       2.371   7.356  19.256  0.00  0.00    +0.000 N 
ATOM      2  C   UNL     1       1.627   7.731  20.439  0.00  0.00    +0.000 C 
ATOM      3  C   UNL     1       0.984   9.009  20.082  0.00  0.00    +0.000 A 
ATOM      4  C   UNL     1       1.346   9.368  18.784  0.00  0.00    +0.000 A 
ATOM      5  C   UNL     1       1.077  10.634  18.303  0.00  0.00    +0.000 A 
ATOM      6  C   UNL     1       0.410  11.510  19.174  0.00  0.00    +0.000 A 
ATOM      7  C   UNL     1      -0.108  11.073  20.412  0.00  0.00    +0.000 A 
ATOM      8  C   UNL     1       0.274   9.843  20.933  0.00  0.00    +0.000 A 
ATOM      9  C   UNL     1       2.228   8.303  18.240  0.00  0.00    +0.000 C 
ATOM     10  O   UNL     1       2.721   8.346  17.129  0.00  0.00    +0.000 OA
ENDROOT
BRANCH   1  15
ATOM     11  C   UNL     1       5.428   5.250  18.806  0.00  0.00    +0.000 A 
ATOM     12  C   UNL     1       4.978   4.042  19.352  0.00  0.00    +0.000 A 
ATOM     13  C   UNL     1       3.674   3.903  19.855  0.00  0.00    +0.000 A 
ATOM     14  C   UNL     1       2.776   4.976  19.835  0.00  0.00    +0.000 A 
ATOM     15  C   UNL     1       3.172   6.188  19.301  0.00  0.00    +0.000 A 
ATOM     16  C   UNL     1       4.480   6.280  18.787  0.00  0.00    +0.000 A 
BRANCH  11  17
ATOM     17  C   UNL     1       6.915   5.551  18.265  0.00  0.00    +0.000 C 
ATOM     18  C   UNL     1       7.951   5.941  19.354  0.00  0.00    +0.000 C 
ATOM     19  O   UNL     1       8.208   7.225  18.758  0.00  0.00    +0.000 OA
ATOM     20  C   UNL     1       7.220   6.993  17.735  0.00  0.00    +0.000 C 
BRANCH  17  21
ATOM     21  C   UNL     1       7.397   4.437  17.310  0.00  0.00    +0.000 C 
BRANCH  21  27
ATOM     22  C   UNL     1       4.690   3.511  15.931  0.00  0.00    +0.000 C 
ATOM     23  N   UNL     1       5.806   4.172  15.309  0.00  0.00    +0.000 N 
ATOM     24  C   UNL     1       5.894   4.464  13.981  0.00  0.00    +0.000 A 
ATOM     25  N   UNL     1       7.031   5.070  13.741  0.00  0.00    +0.000 NA
ATOM     26  N   UNL     1       7.708   5.166  14.930  0.00  0.00    +0.000 NA
ATOM     27  C   UNL     1       6.974   4.616  15.880  0.00  0.00    +0.000 A 
ENDBRANCH  21  27
ENDBRANCH  17  21
ENDBRANCH  11  17
ENDBRANCH   1  15
BRANCH   6  28
ATOM     28  C   UNL     1       0.631  12.939  19.084  0.00  0.00    +0.000 C 
ATOM     29  C   UNL     1      -0.386  13.787  18.904  0.00  0.00    +0.000 C 
ATOM     30  C   UNL     1       0.112  15.171  18.962  0.00  0.00    +0.000 C 
ATOM     31  O   UNL     1       1.547  15.049  18.940  0.00  0.00    +0.000 OA
ATOM     32  C   UNL     1       1.889  13.683  19.278  0.00  0.00    +0.000 C 
ENDBRANCH   6  28
BRANCH   8  33
ATOM     33  C   UNL     1       0.109   9.574  22.406  0.00  0.00    +0.000 C 
ATOM     34  F   UNL     1       1.277   9.285  23.040  0.00  0.00    +0.000 F 
ATOM     35  F   UNL     1      -0.399  10.657  23.061  0.00  0.00    +0.000 F 
ATOM     36  F   UNL     1      -0.730   8.540  22.670  0.00  0.00    +0.000 F 
ENDBRANCH   8  33
TORSDOF 6
ENDMDL
MODEL 2
REMARK VINA RESULT:      -9.2      1.542      2.624
REMARK  Name = 
REMARK  7 active torsions:
REMARK  status: ('A' for Active; 'I' for Inactive)
REMARK    1  A    between atoms: C_1  and  N_2
REMARK    2  A    between atoms: C_6  and  C_7
REMARK    3  A    between atoms: C_7  and  C_8
REMARK    4  A    between atoms: C_8  and  C_9
REMARK    5  A    between atoms: C_13  and  N_14
REMARK    6  A    between atoms: C_19  and  C_20
REMARK    7  A    between atoms: C_26  and  C_27
REMARK                            x       y       z     vdW  Elec       q    Type
REMARK                         _______ _______ _______ _____ _____    ______ ____
ROOT
ATOM      1  N   UNL     1       2.261   7.330  19.128  0.00  0.00    +0.000 N 
ATOM      2  C   UNL     1       1.560   7.711  20.334  0.00  0.00    +0.000 C 
ATOM      3  C   UNL     1       1.074   9.077  20.064  0.00  0.00    +0.000 A 
ATOM      4  C   UNL     1       1.484   9.476  18.792  0.00  0.00    +0.000 A 
ATOM      5  C   UNL     1       1.370  10.794  18.396  0.00  0.00    +0.000 A 
ATOM      6  C   UNL     1       0.805  11.683  19.325  0.00  0.00    +0.000 A 
ATOM      7  C   UNL     1       0.232  11.230  20.533  0.00  0.00    +0.000 A 
ATOM      8  C   UNL     1       0.463   9.932  20.970  0.00  0.00    +0.000 A 
ATOM      9  C   UNL     1       2.237   8.352  18.177  0.00  0.00    +0.000 C 
ATOM     10  O   UNL     1       2.738   8.409  17.071  0.00  0.00    +0.000 OA
ENDROOT
BRANCH   1  15
ATOM     11  C   UNL     1       4.572   4.680  17.858  0.00  0.00    +0.000 A 
ATOM     12  C   UNL     1       4.397   3.704  18.847  0.00  0.00    +0.000 A 
ATOM     13  C   UNL     1       3.514   3.898  19.922  0.00  0.00    +0.000 A 
ATOM     14  C   UNL     1       2.782   5.084  20.049  0.00  0.00    +0.000 A 
ATOM     15  C   UNL     1       2.918   6.074  19.095  0.00  0.00    +0.000 A 
ATOM     16  C   UNL     1       3.795   5.832  18.020  0.00  0.00    +0.000 A 
BRANCH  11  17
ATOM     17  C   UNL     1       5.602   4.601  16.621  0.00  0.00    +0.000 C 
ATOM     18  C   UNL     1       5.288   5.554  15.436  0.00  0.00    +0.000 C 
ATOM     19  O   UNL     1       5.143   4.469  14.502  0.00  0.00    +0.000 OA
ATOM     20  C   UNL     1       5.358   3.493  15.541  0.00  0.00    +0.000 C 
BRANCH  17  21
ATOM     21  C   UNL     1       7.065   4.665  17.109  0.00  0.00    +0.000 C 
BRANCH  21  27
ATOM     22  C   UNL     1       8.091   5.700  19.930  0.00  0.00    +0.000 C 
ATOM     23  N   UNL     1       7.948   6.462  18.719  0.00  0.00    +0.000 N 
ATOM     24  C   UNL     1       8.190   7.798  18.609  0.00  0.00    +0.000 A 
ATOM     25  N   UNL     1       7.972   8.183  17.375  0.00  0.00    +0.000 NA
ATOM     26  N   UNL     1       7.565   7.082  16.665  0.00  0.00    +0.000 NA
ATOM     27  C   UNL     1       7.541   6.040  17.476  0.00  0.00    +0.000 A 
ENDBRANCH  21  27
ENDBRANCH  17  21
ENDBRANCH  11  17
ENDBRANCH   1  15
BRANCH   6  28
ATOM     28  C   UNL     1       1.195  13.078  19.330  0.00  0.00    +0.000 C 
ATOM     29  C   UNL     1       2.475  13.439  19.201  0.00  0.00    +0.000 C 
ATOM     30  C   UNL     1       2.567  14.907  19.127  0.00  0.00    +0.000 C 
ATOM     31  O   UNL     1       1.251  15.378  19.476  0.00  0.00    +0.000 OA
ATOM     32  C   UNL     1       0.328  14.270  19.350  0.00  0.00    +0.000 C 
ENDBRANCH   6  28
BRANCH   8  33
ATOM     33  C   UNL     1       0.257   9.587  22.423  0.00  0.00    +0.000 C 
ATOM     34  F   UNL     1      -0.275  10.604  23.153  0.00  0.00    +0.000 F 
ATOM     35  F   UNL     1      -0.607   8.544  22.573  0.00  0.00    +0.000 F 
ATOM     36  F   UNL     1       1.404   9.228  23.054  0.00  0.00    +0.000 F 
ENDBRANCH   8  33
TORSDOF 6
ENDMDL
MODEL 3
REMARK VINA RESULT:      -9.1      0.718      1.094
REMARK  Name = 
REMARK  7 active torsions:
REMARK  status: ('A' for Active; 'I' for Inactive)
REMARK    1  A    between atoms: C_1  and  N_2
REMARK    2  A    between atoms: C_6  and  C_7
REMARK    3  A    between atoms: C_7  and  C_8
REMARK    4  A    between atoms: C_8  and  C_9
REMARK    5  A    between atoms: C_13  and  N_14
REMARK    6  A    between atoms: C_19  and  C_20
REMARK    7  A    between atoms: C_26  and  C_27
REMARK                            x       y       z     vdW  Elec       q    Type
REMARK                         _______ _______ _______ _____ _____    ______ ____
ROOT
ATOM      1  N   UNL     1       2.025   7.599  19.476  0.00  0.00    +0.000 N 
ATOM      2  C   UNL     1       1.277   7.951  20.663  0.00  0.00    +0.000 C 
ATOM      3  C   UNL     1       0.689   9.267  20.354  0.00  0.00    +0.000 A 
ATOM      4  C   UNL     1       1.086   9.668  19.078  0.00  0.00    +0.000 A 
ATOM      5  C   UNL     1       0.874  10.963  18.649  0.00  0.00    +0.000 A 
ATOM      6  C   UNL     1       0.227  11.826  19.548  0.00  0.00    +0.000 A 
ATOM      7  C   UNL     1      -0.328  11.357  20.758  0.00  0.00    +0.000 A 
ATOM      8  C   UNL     1      -0.002  10.091  21.230  0.00  0.00    +0.000 A 
ATOM      9  C   UNL     1       1.936   8.593  18.501  0.00  0.00    +0.000 C 
ATOM     10  O   UNL     1       2.448   8.665  17.401  0.00  0.00    +0.000 OA
ENDROOT
BRANCH   1  15
ATOM     11  C   UNL     1       4.949   5.360  18.830  0.00  0.00    +0.000 A 
ATOM     12  C   UNL     1       4.497   4.181  19.434  0.00  0.00    +0.000 A 
ATOM     13  C   UNL     1       3.232   4.105  20.041  0.00  0.00    +0.000 A 
ATOM     14  C   UNL     1       2.379   5.215  20.071  0.00  0.00    +0.000 A 
ATOM     15  C   UNL     1       2.780   6.399  19.483  0.00  0.00    +0.000 A 
ATOM     16  C   UNL     1       4.045   6.428  18.865  0.00  0.00    +0.000 A 
BRANCH  11  17
ATOM     17  C   UNL     1       6.400   5.589  18.167  0.00  0.00    +0.000 C 
ATOM     18  C   UNL     1       7.297   4.325  18.082  0.00  0.00    +0.000 C 
ATOM     19  O   UNL     1       8.329   4.909  18.896  0.00  0.00    +0.000 OA
ATOM     20  C   UNL     1       7.551   6.106  19.095  0.00  0.00    +0.000 C 
BRANCH  17  21
ATOM     21  C   UNL     1       6.289   6.372  16.841  0.00  0.00    +0.000 C 
BRANCH  21  27
ATOM     22  C   UNL     1       4.298   4.130  15.794  0.00  0.00    +0.000 C 
ATOM     23  N   UNL     1       5.542   4.541  15.200  0.00  0.00    +0.000 N 
ATOM     24  C   UNL     1       6.097   3.976  14.091  0.00  0.00    +0.000 A 
ATOM     25  N   UNL     1       7.224   4.583  13.807  0.00  0.00    +0.000 NA
ATOM     26  N   UNL     1       7.420   5.555  14.756  0.00  0.00    +0.000 NA
ATOM     27  C   UNL     1       6.409   5.527  15.605  0.00  0.00    +0.000 A 
ENDBRANCH  21  27
ENDBRANCH  17  21
ENDBRANCH  11  17
ENDBRANCH   1  15
BRANCH   6  28
ATOM     28  C   UNL     1       0.504  13.247  19.524  0.00  0.00    +0.000 C 
ATOM     29  C   UNL     1      -0.316  14.102  18.907  0.00  0.00    +0.000 C 
ATOM     30  C   UNL     1       0.147  15.481  19.135  0.00  0.00    +0.000 C 
ATOM     31  O   UNL     1       1.452  15.339  19.730  0.00  0.00    +0.000 OA
ATOM     32  C   UNL     1       1.580  13.981  20.216  0.00  0.00    +0.000 C 
ENDBRANCH   6  28
BRANCH   8  33
ATOM     33  C   UNL     1      -0.202   9.765  22.687  0.00  0.00    +0.000 C 
ATOM     34  F   UNL     1      -0.853  10.739  23.378  0.00  0.00    +0.000 F 
ATOM     35  F   UNL     1      -0.957   8.641  22.851  0.00  0.00    +0.000 F 
ATOM     36  F   UNL     1       0.961   9.544  23.351  0.00  0.00    +0.000 F 
ENDBRANCH   8  33
TORSDOF 6
ENDMDL
MODEL 4
REMARK VINA RESULT:      -8.9      0.930      1.458
REMARK  Name = 
REMARK  7 active torsions:
REMARK  status: ('A' for Active; 'I' for Inactive)
REMARK    1  A    between atoms: C_1  and  N_2
REMARK    2  A    between atoms: C_6  and  C_7
REMARK    3  A    between atoms: C_7  and  C_8
REMARK    4  A    between atoms: C_8  and  C_9
REMARK    5  A    between atoms: C_13  and  N_14
REMARK    6  A    between atoms: C_19  and  C_20
REMARK    7  A    between atoms: C_26  and  C_27
REMARK                            x       y       z     vdW  Elec       q    Type
REMARK                         _______ _______ _______ _____ _____    ______ ____
ROOT
ATOM      1  N   UNL     1       2.141   7.404  19.051  0.00  0.00    +0.000 N 
ATOM      2  C   UNL     1       1.439   7.721  20.276  0.00  0.00    +0.000 C 
ATOM      3  C   UNL     1       0.999   9.117  20.099  0.00  0.00    +0.000 A 
ATOM      4  C   UNL     1       1.435   9.591  18.862  0.00  0.00    +0.000 A 
ATOM      5  C   UNL     1       1.366  10.937  18.560  0.00  0.00    +0.000 A 
ATOM      6  C   UNL     1       0.820  11.776  19.545  0.00  0.00    +0.000 A 
ATOM      7  C   UNL     1       0.220  11.258  20.712  0.00  0.00    +0.000 A 
ATOM      8  C   UNL     1       0.405   9.925  21.058  0.00  0.00    +0.000 A 
ATOM      9  C   UNL     1       2.159   8.490  18.175  0.00  0.00    +0.000 C 
ATOM     10  O   UNL     1       2.673   8.610  17.080  0.00  0.00    +0.000 OA
ENDROOT
BRANCH   1  15
ATOM     11  C   UNL     1       4.700   4.899  17.977  0.00  0.00    +0.000 A 
ATOM     12  C   UNL     1       4.210   3.754  18.616  0.00  0.00    +0.000 A 
ATOM     13  C   UNL     1       3.036   3.789  19.387  0.00  0.00    +0.000 A 
ATOM     14  C   UNL     1       2.316   4.978  19.550  0.00  0.00    +0.000 A 
ATOM     15  C   UNL     1       2.758   6.133  18.934  0.00  0.00    +0.000 A 
ATOM     16  C   UNL     1       3.926   6.052  18.152  0.00  0.00    +0.000 A 
BRANCH  11  17
ATOM     17  C   UNL     1       6.066   4.999  17.128  0.00  0.00    +0.000 C 
ATOM     18  C   UNL     1       7.373   4.916  17.962  0.00  0.00    +0.000 C 
ATOM     19  O   UNL     1       7.815   6.219  17.541  0.00  0.00    +0.000 OA
ATOM     20  C   UNL     1       6.607   6.429  16.784  0.00  0.00    +0.000 C 
BRANCH  17  21
ATOM     21  C   UNL     1       6.036   4.050  15.910  0.00  0.00    +0.000 C 
BRANCH  21  27
ATOM     22  C   UNL     1       5.391   3.420  12.865  0.00  0.00    +0.000 C 
ATOM     23  N   UNL     1       6.435   4.265  13.380  0.00  0.00    +0.000 N 
ATOM     24  C   UNL     1       7.366   4.902  12.616  0.00  0.00    +0.000 A 
ATOM     25  N   UNL     1       8.167   5.594  13.389  0.00  0.00    +0.000 NA
ATOM     26  N   UNL     1       7.763   5.396  14.686  0.00  0.00    +0.000 NA
ATOM     27  C   UNL     1       6.721   4.586  14.685  0.00  0.00    +0.000 A 
ENDBRANCH  21  27
ENDBRANCH  17  21
ENDBRANCH  11  17
ENDBRANCH   1  15
BRANCH   6  28
ATOM     28  C   UNL     1       1.253  13.155  19.651  0.00  0.00    +0.000 C 
ATOM     29  C   UNL     1       2.531  13.462  19.892  0.00  0.00    +0.000 C 
ATOM     30  C   UNL     1       2.704  14.923  19.838  0.00  0.00    +0.000 C 
ATOM     31  O   UNL     1       1.365  15.452  19.792  0.00  0.00    +0.000 OA
ATOM     32  C   UNL     1       0.469  14.381  19.415  0.00  0.00    +0.000 C 
ENDBRANCH   6  28
BRANCH   8  33
ATOM     33  C   UNL     1       0.174   9.485  22.481  0.00  0.00    +0.000 C 
ATOM     34  F   UNL     1      -0.619   8.385  22.587  0.00  0.00    +0.000 F 
ATOM     35  F   UNL     1       1.342   9.149  23.098  0.00  0.00    +0.000 F 
ATOM     36  F   UNL     1      -0.404  10.442  23.249  0.00  0.00    +0.000 F 
ENDBRANCH   8  33
TORSDOF 6
ENDMDL
MODEL 5
REMARK VINA RESULT:      -8.7      3.817      5.431
REMARK  Name = 
REMARK  7 active torsions:
REMARK  status: ('A' for Active; 'I' for Inactive)
REMARK    1  A    between atoms: C_1  and  N_2
REMARK    2  A    between atoms: C_6  and  C_7
REMARK    3  A    between atoms: C_7  and  C_8
REMARK    4  A    between atoms: C_8  and  C_9
REMARK    5  A    between atoms: C_13  and  N_14
REMARK    6  A    between atoms: C_19  and  C_20
REMARK    7  A    between atoms: C_26  and  C_27
REMARK                            x       y       z     vdW  Elec       q    Type
REMARK                         _______ _______ _______ _____ _____    ______ ____
ROOT
ATOM      1  N   UNL     1       0.648  10.101  19.295  0.00  0.00    +0.000 N 
ATOM      2  C   UNL     1      -0.512  10.426  18.494  0.00  0.00    +0.000 C 
ATOM      3  C   UNL     1      -1.319  11.312  19.353  0.00  0.00    +0.000 A 
ATOM      4  C   UNL     1      -0.682  11.476  20.583  0.00  0.00    +0.000 A 
ATOM      5  C   UNL     1      -1.345  12.057  21.646  0.00  0.00    +0.000 A 
ATOM      6  C   UNL     1      -2.662  12.484  21.410  0.00  0.00    +0.000 A 
ATOM      7  C   UNL     1      -3.224  12.475  20.115  0.00  0.00    +0.000 A 
ATOM      8  C   UNL     1      -2.598  11.780  19.088  0.00  0.00    +0.000 A 
ATOM      9  C   UNL     1       0.591  10.711  20.549  0.00  0.00    +0.000 C 
ATOM     10  O   UNL     1       1.358  10.649  21.490  0.00  0.00    +0.000 OA
ENDROOT
BRANCH   1  15
ATOM     11  C   UNL     1       2.534   6.890  18.969  0.00  0.00    +0.000 A 
ATOM     12  C   UNL     1       3.346   7.190  17.869  0.00  0.00    +0.000 A 
ATOM     13  C   UNL     1       3.294   8.444  17.238  0.00  0.00    +0.000 A 
ATOM     14  C   UNL     1       2.418   9.440  17.685  0.00  0.00    +0.000 A 
ATOM     15  C   UNL     1       1.600   9.192  18.770  0.00  0.00    +0.000 A 
ATOM     16  C   UNL     1       1.698   7.931  19.389  0.00  0.00    +0.000 A 
BRANCH  11  17
ATOM     17  C   UNL     1       2.454   5.471  19.729  0.00  0.00    +0.000 C 
ATOM     18  C   UNL     1       1.308   4.533  19.262  0.00  0.00    +0.000 C 
ATOM     19  O   UNL     1       0.703   4.497  20.567  0.00  0.00    +0.000 OA
ATOM     20  C   UNL     1       1.681   5.417  21.090  0.00  0.00    +0.000 C 
BRANCH  17  21
ATOM     21  C   UNL     1       3.839   4.791  19.787  0.00  0.00    +0.000 C 
BRANCH  21  27
ATOM     22  C   UNL     1       4.284   3.955  16.756  0.00  0.00    +0.000 C 
ATOM     23  N   UNL     1       4.044   3.085  17.876  0.00  0.00    +0.000 N 
ATOM     24  C   UNL     1       3.915   1.732  17.794  0.00  0.00    +0.000 A 
ATOM     25  N   UNL     1       3.709   1.238  18.991  0.00  0.00    +0.000 NA
ATOM     26  N   UNL     1       3.687   2.289  19.873  0.00  0.00    +0.000 NA
ATOM     27  C   UNL     1       3.881   3.409  19.201  0.00  0.00    +0.000 A 
ENDBRANCH  21  27
ENDBRANCH  17  21
ENDBRANCH  11  17
ENDBRANCH   1  15
BRANCH   6  28
ATOM     28  C   UNL     1      -3.631  12.494  22.487  0.00  0.00    +0.000 C 
ATOM     29  C   UNL     1      -3.268  12.227  23.745  0.00  0.00    +0.000 C 
ATOM     30  C   UNL     1      -4.422  12.417  24.640  0.00  0.00    +0.000 C 
ATOM     31  O   UNL     1      -5.551  12.574  23.759  0.00  0.00    +0.000 OA
ATOM     32  C   UNL     1      -5.051  12.885  22.436  0.00  0.00    +0.000 C 
ENDBRANCH   6  28
BRANCH   8  33
ATOM     33  C   UNL     1      -3.387  11.383  17.867  0.00  0.00    +0.000 C 
ATOM     34  F   UNL     1      -2.738  11.629  16.697  0.00  0.00    +0.000 F 
ATOM     35  F   UNL     1      -3.656  10.047  17.856  0.00  0.00    +0.000 F 
ATOM     36  F   UNL     1      -4.584  12.016  17.775  0.00  0.00    +0.000 F 
ENDBRANCH   8  33
TORSDOF 6
ENDMDL
MODEL 6
REMARK VINA RESULT:      -8.7      3.438      5.008
REMARK  Name = 
REMARK  7 active torsions:
REMARK  status: ('A' for Active; 'I' for Inactive)
REMARK    1  A    between atoms: C_1  and  N_2
REMARK    2  A    between atoms: C_6  and  C_7
REMARK    3  A    between atoms: C_7  and  C_8
REMARK    4  A    between atoms: C_8  and  C_9
REMARK    5  A    between atoms: C_13  and  N_14
REMARK    6  A    between atoms: C_19  and  C_20
REMARK    7  A    between atoms: C_26  and  C_27
REMARK                            x       y       z     vdW  Elec       q    Type
REMARK                         _______ _______ _______ _____ _____    ______ ____
ROOT
ATOM      1  N   UNL     1       0.943   9.368  20.516  0.00  0.00    +0.000 N 
ATOM      2  C   UNL     1       1.191  10.792  20.470  0.00  0.00    +0.000 C 
ATOM      3  C   UNL     1       0.284  11.358  21.486  0.00  0.00    +0.000 A 
ATOM      4  C   UNL     1      -0.460  10.334  22.071  0.00  0.00    +0.000 A 
ATOM      5  C   UNL     1      -1.548  10.622  22.871  0.00  0.00    +0.000 A 
ATOM      6  C   UNL     1      -1.837  11.982  23.075  0.00  0.00    +0.000 A 
ATOM      7  C   UNL     1      -0.969  13.000  22.626  0.00  0.00    +0.000 A 
ATOM      8  C   UNL     1       0.045  12.704  21.724  0.00  0.00    +0.000 A 
ATOM      9  C   UNL     1      -0.033   9.047  21.462  0.00  0.00    +0.000 C 
ATOM     10  O   UNL     1      -0.519   7.974  21.758  0.00  0.00    +0.000 OA
ENDROOT
BRANCH   1  15
ATOM     11  C   UNL     1       2.409   6.210  19.153  0.00  0.00    +0.000 A 
ATOM     12  C   UNL     1       2.858   6.663  17.907  0.00  0.00    +0.000 A 
ATOM     13  C   UNL     1       2.698   8.001  17.511  0.00  0.00    +0.000 A 
ATOM     14  C   UNL     1       2.075   8.932  18.350  0.00  0.00    +0.000 A 
ATOM     15  C   UNL     1       1.620   8.533  19.592  0.00  0.00    +0.000 A 
ATOM     16  C   UNL     1       1.819   7.189  19.962  0.00  0.00    +0.000 A 
BRANCH  11  17
ATOM     17  C   UNL     1       2.472   4.691  19.689  0.00  0.00    +0.000 C 
ATOM     18  C   UNL     1       1.097   3.989  19.852  0.00  0.00    +0.000 C 
ATOM     19  O   UNL     1       1.288   3.775  21.262  0.00  0.00    +0.000 OA
ATOM     20  C   UNL     1       2.551   4.468  21.237  0.00  0.00    +0.000 C 
BRANCH  17  21
ATOM     21  C   UNL     1       3.511   3.865  18.900  0.00  0.00    +0.000 C 
BRANCH  21  27
ATOM     22  C   UNL     1       5.438   4.285  16.412  0.00  0.00    +0.000 C 
ATOM     23  N   UNL     1       5.713   4.589  17.791  0.00  0.00    +0.000 N 
ATOM     24  C   UNL     1       6.898   5.070  18.258  0.00  0.00    +0.000 A 
ATOM     25  N   UNL     1       6.819   5.245  19.555  0.00  0.00    +0.000 NA
ATOM     26  N   UNL     1       5.562   4.858  19.948  0.00  0.00    +0.000 NA
ATOM     27  C   UNL     1       4.893   4.452  18.884  0.00  0.00    +0.000 A 
ENDBRANCH  21  27
ENDBRANCH  17  21
ENDBRANCH  11  17
ENDBRANCH   1  15
BRANCH   6  28
ATOM     28  C   UNL     1      -3.201  12.411  23.307  0.00  0.00    +0.000 C 
ATOM     29  C   UNL     1      -3.973  12.835  22.302  0.00  0.00    +0.000 C 
ATOM     30  C   UNL     1      -5.332  13.099  22.804  0.00  0.00    +0.000 C 
ATOM     31  O   UNL     1      -5.216  13.032  24.238  0.00  0.00    +0.000 OA
ATOM     32  C   UNL     1      -3.977  12.355  24.559  0.00  0.00    +0.000 C 
ENDBRANCH   6  28
BRANCH   8  33
ATOM     33  C   UNL     1       0.661  13.810  20.906  0.00  0.00    +0.000 C 
ATOM     34  F   UNL     1       0.374  13.728  19.579  0.00  0.00    +0.000 F 
ATOM     35  F   UNL     1       0.210  15.035  21.298  0.00  0.00    +0.000 F 
ATOM     36  F   UNL     1       2.015  13.853  20.998  0.00  0.00    +0.000 F 
ENDBRANCH   8  33
TORSDOF 6
ENDMDL
MODEL 7
REMARK VINA RESULT:      -8.6      3.340      4.870
REMARK  Name = 
REMARK  7 active torsions:
REMARK  status: ('A' for Active; 'I' for Inactive)
REMARK    1  A    between atoms: C_1  and  N_2
REMARK    2  A    between atoms: C_6  and  C_7
REMARK    3  A    between atoms: C_7  and  C_8
REMARK    4  A    between atoms: C_8  and  C_9
REMARK    5  A    between atoms: C_13  and  N_14
REMARK    6  A    between atoms: C_19  and  C_20
REMARK    7  A    between atoms: C_26  and  C_27
REMARK                            x       y       z     vdW  Elec       q    Type
REMARK                         _______ _______ _______ _____ _____    ______ ____
ROOT
ATOM      1  N   UNL     1       1.338   9.387  19.733  0.00  0.00    +0.000 N 
ATOM      2  C   UNL     1       1.090  10.685  19.144  0.00  0.00    +0.000 C 
ATOM      3  C   UNL     1       0.296  11.405  20.157  0.00  0.00    +0.000 A 
ATOM      4  C   UNL     1       0.077  10.575  21.256  0.00  0.00    +0.000 A 
ATOM      5  C   UNL     1      -0.839  10.923  22.229  0.00  0.00    +0.000 A 
ATOM      6  C   UNL     1      -1.504  12.148  22.059  0.00  0.00    +0.000 A 
ATOM      7  C   UNL     1      -1.139  13.055  21.041  0.00  0.00    +0.000 A 
ATOM      8  C   UNL     1      -0.310  12.644  20.005  0.00  0.00    +0.000 A 
ATOM      9  C   UNL     1       0.756   9.279  20.997  0.00  0.00    +0.000 C 
ATOM     10  O   UNL     1       0.726   8.343  21.772  0.00  0.00    +0.000 OA
ENDROOT
BRANCH   1  15
ATOM     11  C   UNL     1       2.701   6.019  18.852  0.00  0.00    +0.000 A 
ATOM     12  C   UNL     1       3.269   6.300  17.604  0.00  0.00    +0.000 A 
ATOM     13  C   UNL     1       3.224   7.591  17.051  0.00  0.00    +0.000 A 
ATOM     14  C   UNL     1       2.599   8.645  17.728  0.00  0.00    +0.000 A 
ATOM     15  C   UNL     1       2.029   8.417  18.965  0.00  0.00    +0.000 A 
ATOM     16  C   UNL     1       2.114   7.115  19.496  0.00  0.00    +0.000 A 
BRANCH  11  17
ATOM     17  C   UNL     1       2.627   4.571  19.555  0.00  0.00    +0.000 C 
ATOM     18  C   UNL     1       1.215   3.927  19.602  0.00  0.00    +0.000 C 
ATOM     19  O   UNL     1       1.204   3.873  21.039  0.00  0.00    +0.000 OA
ATOM     20  C   UNL     1       2.486   4.526  21.115  0.00  0.00    +0.000 C 
BRANCH  17  21
ATOM     21  C   UNL     1       3.729   3.633  19.016  0.00  0.00    +0.000 C 
BRANCH  21  27
ATOM     22  C   UNL     1       5.499   3.882  16.391  0.00  0.00    +0.000 C 
ATOM     23  N   UNL     1       5.830   4.338  17.715  0.00  0.00    +0.000 N 
ATOM     24  C   UNL     1       7.012   4.918  18.063  0.00  0.00    +0.000 A 
ATOM     25  N   UNL     1       6.992   5.222  19.338  0.00  0.00    +0.000 NA
ATOM     26  N   UNL     1       5.779   4.821  19.839  0.00  0.00    +0.000 NA
ATOM     27  C   UNL     1       5.077   4.278  18.862  0.00  0.00    +0.000 A 
ENDBRANCH  21  27
ENDBRANCH  17  21
ENDBRANCH  11  17
ENDBRANCH   1  15
BRANCH   6  28
ATOM     28  C   UNL     1      -2.846  12.328  22.573  0.00  0.00    +0.000 C 
ATOM     29  C   UNL     1      -3.092  12.307  23.887  0.00  0.00    +0.000 C 
ATOM     30  C   UNL     1      -4.510  12.624  24.127  0.00  0.00    +0.000 C 
ATOM     31  O   UNL     1      -5.123  12.584  22.824  0.00  0.00    +0.000 OA
ATOM     32  C   UNL     1      -4.074  12.661  21.829  0.00  0.00    +0.000 C 
ENDBRANCH   6  28
BRANCH   8  33
ATOM     33  C   UNL     1      -0.287  13.423  18.715  0.00  0.00    +0.000 C 
ATOM     34  F   UNL     1      -0.762  14.692  18.838  0.00  0.00    +0.000 F 
ATOM     35  F   UNL     1       0.981  13.557  18.233  0.00  0.00    +0.000 F 
ATOM     36  F   UNL     1      -1.013  12.842  17.726  0.00  0.00    +0.000 F 
ENDBRANCH   8  33
TORSDOF 6
ENDMDL
MODEL 8
REMARK VINA RESULT:      -8.6      0.618      1.179
REMARK  Name = 
REMARK  7 active torsions:
REMARK  status: ('A' for Active; 'I' for Inactive)
REMARK    1  A    between atoms: C_1  and  N_2
REMARK    2  A    between atoms: C_6  and  C_7
REMARK    3  A    between atoms: C_7  and  C_8
REMARK    4  A    between atoms: C_8  and  C_9
REMARK    5  A    between atoms: C_13  and  N_14
REMARK    6  A    between atoms: C_19  and  C_20
REMARK    7  A    between atoms: C_26  and  C_27
REMARK                            x       y       z     vdW  Elec       q    Type
REMARK                         _______ _______ _______ _____ _____    ______ ____
ROOT
ATOM      1  N   UNL     1       2.339   7.413  19.257  0.00  0.00    +0.000 N 
ATOM      2  C   UNL     1       1.595   7.744  20.452  0.00  0.00    +0.000 C 
ATOM      3  C   UNL     1       0.943   9.029  20.140  0.00  0.00    +0.000 A 
ATOM      4  C   UNL     1       1.302   9.434  18.854  0.00  0.00    +0.000 A 
ATOM      5  C   UNL     1       1.025  10.714  18.416  0.00  0.00    +0.000 A 
ATOM      6  C   UNL     1       0.353  11.556  19.318  0.00  0.00    +0.000 A 
ATOM      7  C   UNL     1      -0.160  11.075  20.541  0.00  0.00    +0.000 A 
ATOM      8  C   UNL     1       0.230   9.831  21.020  0.00  0.00    +0.000 A 
ATOM      9  C   UNL     1       2.189   8.393  18.273  0.00  0.00    +0.000 C 
ATOM     10  O   UNL     1       2.679   8.476  17.164  0.00  0.00    +0.000 OA
ENDROOT
BRANCH   1  15
ATOM     11  C   UNL     1       5.381   5.324  18.660  0.00  0.00    +0.000 A 
ATOM     12  C   UNL     1       4.963   4.112  19.223  0.00  0.00    +0.000 A 
ATOM     13  C   UNL     1       3.684   3.965  19.785  0.00  0.00    +0.000 A 
ATOM     14  C   UNL     1       2.781   5.034  19.810  0.00  0.00    +0.000 A 
ATOM     15  C   UNL     1       3.146   6.249  19.262  0.00  0.00    +0.000 A 
ATOM     16  C   UNL     1       4.428   6.349  18.688  0.00  0.00    +0.000 A 
BRANCH  11  17
ATOM     17  C   UNL     1       6.841   5.633  18.051  0.00  0.00    +0.000 C 
ATOM     18  C   UNL     1       7.897   6.122  19.078  0.00  0.00    +0.000 C 
ATOM     19  O   UNL     1       8.095   7.372  18.394  0.00  0.00    +0.000 OA
ATOM     20  C   UNL     1       7.082   7.047  17.422  0.00  0.00    +0.000 C 
BRANCH  17  21
ATOM     21  C   UNL     1       7.326   4.475  17.152  0.00  0.00    +0.000 C 
BRANCH  21  27
ATOM     22  C   UNL     1       8.031   5.356  14.183  0.00  0.00    +0.000 C 
ATOM     23  N   UNL     1       6.836   4.696  14.639  0.00  0.00    +0.000 N 
ATOM     24  C   UNL     1       5.771   4.386  13.848  0.00  0.00    +0.000 A 
ATOM     25  N   UNL     1       4.853   3.787  14.566  0.00  0.00    +0.000 NA
ATOM     26  N   UNL     1       5.318   3.715  15.855  0.00  0.00    +0.000 NA
ATOM     27  C   UNL     1       6.514   4.272  15.905  0.00  0.00    +0.000 A 
ENDBRANCH  21  27
ENDBRANCH  17  21
ENDBRANCH  11  17
ENDBRANCH   1  15
BRANCH   6  28
ATOM     28  C   UNL     1       0.566  12.989  19.275  0.00  0.00    +0.000 C 
ATOM     29  C   UNL     1       1.686  13.506  18.760  0.00  0.00    +0.000 C 
ATOM     30  C   UNL     1       1.586  14.975  18.744  0.00  0.00    +0.000 C 
ATOM     31  O   UNL     1       0.414  15.275  19.527  0.00  0.00    +0.000 OA
ATOM     32  C   UNL     1      -0.372  14.064  19.644  0.00  0.00    +0.000 C 
ENDBRANCH   6  28
BRANCH   8  33
ATOM     33  C   UNL     1       0.068   9.510  22.483  0.00  0.00    +0.000 C 
ATOM     34  F   UNL     1       1.242   9.230  23.111  0.00  0.00    +0.000 F 
ATOM     35  F   UNL     1      -0.467  10.559  23.170  0.00  0.00    +0.000 F 
ATOM     36  F   UNL     1      -0.746   8.449  22.712  0.00  0.00    +0.000 F 
ENDBRANCH   8  33
TORSDOF 6
ENDMDL
MODEL 9
REMARK VINA RESULT:      -8.5      4.368      9.740
REMARK  Name = 
REMARK  7 active torsions:
REMARK  status: ('A' for Active; 'I' for Inactive)
REMARK    1  A    between atoms: C_1  and  N_2
REMARK    2  A    between atoms: C_6  and  C_7
REMARK    3  A    between atoms: C_7  and  C_8
REMARK    4  A    between atoms: C_8  and  C_9
REMARK    5  A    between atoms: C_13  and  N_14
REMARK    6  A    between atoms: C_19  and  C_20
REMARK    7  A    between atoms: C_26  and  C_27
REMARK                            x       y       z     vdW  Elec       q    Type
REMARK                         _______ _______ _______ _____ _____    ______ ____
ROOT
ATOM      1  N   UNL     1       1.368   9.067  18.980  0.00  0.00    +0.000 N 
ATOM      2  C   UNL     1       1.446   7.825  19.717  0.00  0.00    +0.000 C 
ATOM      3  C   UNL     1       2.628   7.140  19.163  0.00  0.00    +0.000 A 
ATOM      4  C   UNL     1       3.191   7.921  18.153  0.00  0.00    +0.000 A 
ATOM      5  C   UNL     1       4.155   7.399  17.314  0.00  0.00    +0.000 A 
ATOM      6  C   UNL     1       4.542   6.069  17.550  0.00  0.00    +0.000 A 
ATOM      7  C   UNL     1       4.096   5.357  18.684  0.00  0.00    +0.000 A 
ATOM      8  C   UNL     1       3.042   5.846  19.445  0.00  0.00    +0.000 A 
ATOM      9  C   UNL     1       2.393   9.170  18.038  0.00  0.00    +0.000 C 
ATOM     10  O   UNL     1       2.632  10.042  17.226  0.00  0.00    +0.000 OA
ENDROOT
BRANCH   1  15
ATOM     11  C   UNL     1      -1.933  10.720  18.385  0.00  0.00    +0.000 A 
ATOM     12  C   UNL     1      -2.026  11.510  19.537  0.00  0.00    +0.000 A 
ATOM     13  C   UNL     1      -1.007  11.519  20.505  0.00  0.00    +0.000 A 
ATOM     14  C   UNL     1       0.138  10.729  20.354  0.00  0.00    +0.000 A 
ATOM     15  C   UNL     1       0.277   9.936  19.231  0.00  0.00    +0.000 A 
ATOM     16  C   UNL     1      -0.755   9.972  18.273  0.00  0.00    +0.000 A 
BRANCH  11  17
ATOM     17  C   UNL     1      -3.061  10.573  17.243  0.00  0.00    +0.000 C 
ATOM     18  C   UNL     1      -2.774   9.495  16.163  0.00  0.00    +0.000 C 
ATOM     19  O   UNL     1      -2.783  10.456  15.093  0.00  0.00    +0.000 OA
ATOM     20  C   UNL     1      -2.985  11.543  16.016  0.00  0.00    +0.000 C 
BRANCH  17  21
ATOM     21  C   UNL     1      -4.472  10.483  17.863  0.00  0.00    +0.000 C 
BRANCH  21  27
ATOM     22  C   UNL     1      -5.363  12.295  20.315  0.00  0.00    +0.000 C 
ATOM     23  N   UNL     1      -5.645  12.511  18.921  0.00  0.00    +0.000 N 
ATOM     24  C   UNL     1      -6.405  13.530  18.432  0.00  0.00    +0.000 A 
ATOM     25  N   UNL     1      -6.462  13.445  17.125  0.00  0.00    +0.000 NA
ATOM     26  N   UNL     1      -5.737  12.342  16.750  0.00  0.00    +0.000 NA
ATOM     27  C   UNL     1      -5.248  11.769  17.835  0.00  0.00    +0.000 A 
ENDBRANCH  21  27
ENDBRANCH  17  21
ENDBRANCH  11  17
ENDBRANCH   1  15
BRANCH   6  28
ATOM     28  C   UNL     1       4.998   5.236  16.456  0.00  0.00    +0.000 C 
ATOM     29  C   UNL     1       5.413   5.773  15.305  0.00  0.00    +0.000 C 
ATOM     30  C   UNL     1       5.920   4.709  14.422  0.00  0.00    +0.000 C 
ATOM     31  O   UNL     1       5.530   3.480  15.062  0.00  0.00    +0.000 OA
ATOM     32  C   UNL     1       5.193   3.775  16.439  0.00  0.00    +0.000 C 
ENDBRANCH   6  28
BRANCH   8  33
ATOM     33  C   UNL     1       2.275   4.911  20.344  0.00  0.00    +0.000 C 
ATOM     34  F   UNL     1       1.068   4.539  19.839  0.00  0.00    +0.000 F 
ATOM     35  F   UNL     1       2.953   3.747  20.552  0.00  0.00    +0.000 F 
ATOM     36  F   UNL     1       2.026   5.434  21.571  0.00  0.00    +0.000 F 
ENDBRANCH   8  33
TORSDOF 6
ENDMDL
