MODEL 1
REMARK VINA RESULT:      -8.1      0.000      0.000
REMARK  Name = 
REMARK  13 active torsions:
REMARK  status: ('A' for Active; 'I' for Inactive)
REMARK    1  A    between atoms: C_1  and  C_2
REMARK    2  A    between atoms: C_2  and  C_3
REMARK    3  A    between atoms: C_2  and  C_10
REMARK    4  A    between atoms: C_3  and  C_4
REMARK    5  A    between atoms: N_8  and  C_9
REMARK    6  A    between atoms: C_14  and  N_15
REMARK    7  A    between atoms: C_16  and  C_18
REMARK    8  A    between atoms: C_20  and  C_21
REMARK    9  A    between atoms: N_23  and  C_24
REMARK   10  A    between atoms: C_24  and  C_25
REMARK   11  A    between atoms: C_25  and  C_26
REMARK   12  A    between atoms: C_25  and  C_27
REMARK   13  A    between atoms: C_25  and  O_28
REMARK                            x       y       z     vdW  Elec       q    Type
REMARK                         _______ _______ _______ _____ _____    ______ ____
ROOT
ATOM      1  N   UNL     1       2.394   6.616  18.726  0.00  0.00    +0.000 N 
ATOM      2  C   UNL     1       2.060   6.712  20.068  0.00  0.00    +0.000 C 
ATOM      3  O   UNL     1       2.176   5.837  20.920  0.00  0.00    +0.000 OA
ATOM      4  H   UNL     1       2.328   7.482  18.198  0.00  0.00    +0.000 HD
ENDROOT
BRANCH   1   9
ATOM      5  C   UNL     1       4.767   4.328  16.979  0.00  0.00    +0.000 A 
ATOM      6  C   UNL     1       3.960   3.189  16.834  0.00  0.00    +0.000 A 
ATOM      7  C   UNL     1       2.638   3.191  17.267  0.00  0.00    +0.000 A 
ATOM      8  C   UNL     1       2.106   4.321  17.883  0.00  0.00    +0.000 A 
ATOM      9  C   UNL     1       2.882   5.463  18.073  0.00  0.00    +0.000 A 
ATOM     10  C   UNL     1       4.201   5.468  17.595  0.00  0.00    +0.000 A 
BRANCH   5  12
ATOM     11  C   UNL     1       7.227   4.737  17.610  0.00  0.00    +0.000 C 
ATOM     12  C   UNL     1       6.221   4.368  16.501  0.00  0.00    +0.000 C 
BRANCH  12  13
ATOM     13  C   UNL     1       6.353   5.323  15.289  0.00  0.00    +0.000 C 
BRANCH  13  14
ATOM     14  C   UNL     1       6.368   4.600  13.982  0.00  0.00    +0.000 A 
ATOM     15  N   UNL     1       5.517   3.673  13.592  0.00  0.00    +0.000 NA
ATOM     16  N   UNL     1       5.919   3.213  12.360  0.00  0.00    +0.000 NA
ATOM     17  C   UNL     1       6.999   3.875  12.020  0.00  0.00    +0.000 A 
ATOM     18  N   UNL     1       7.302   4.776  12.994  0.00  0.00    +0.000 N 
ATOM     19  C   UNL     1       8.384   5.722  12.965  0.00  0.00    +0.000 C 
ENDBRANCH  13  14
ENDBRANCH  12  13
ENDBRANCH   5  12
ENDBRANCH   1   9
BRANCH   2  20
ATOM     20  C   UNL     1       1.543   8.048  20.497  0.00  0.00    +0.000 A 
ATOM     21  C   UNL     1       1.024   8.898  19.527  0.00  0.00    +0.000 A 
ATOM     22  C   UNL     1       0.541  10.133  19.939  0.00  0.00    +0.000 A 
ATOM     23  C   UNL     1       0.613  10.484  21.288  0.00  0.00    +0.000 A 
ATOM     24  C   UNL     1       1.149   9.570  22.181  0.00  0.00    +0.000 A 
ATOM     25  N   UNL     1       1.609   8.350  21.822  0.00  0.00    +0.000 NA
BRANCH  22  26
ATOM     26  C   UNL     1      -0.019  11.114  18.976  0.00  0.00    +0.000 C 
ATOM     27  O   UNL     1       0.569  12.174  18.789  0.00  0.00    +0.000 OA
ATOM     28  N   UNL     1      -1.217  10.789  18.373  0.00  0.00    +0.000 N 
ATOM     29  H   UNL     1      -1.710   9.938  18.613  0.00  0.00    +0.000 HD
BRANCH  28  30
ATOM     30  C   UNL     1      -1.870  11.696  17.435  0.00  0.00    +0.000 C 
BRANCH  30  31
ATOM     31  C   UNL     1      -3.131  11.089  16.776  0.00  0.00    +0.000 C 
ATOM     32  C   UNL     1      -2.921  10.717  15.306  0.00  0.00    +0.000 C 
ATOM     33  C   UNL     1      -3.582   9.851  17.556  0.00  0.00    +0.000 C 
BRANCH  31  34
ATOM     34  O   UNL     1      -4.197  12.047  16.852  0.00  0.00    +0.000 OA
ATOM     35  H   UNL     1      -3.973  12.763  16.234  0.00  0.00    +0.000 HD
ENDBRANCH  31  34
ENDBRANCH  30  31
ENDBRANCH  28  30
ENDBRANCH  22  26
ENDBRANCH   2  20
TORSDOF 9
ENDMDL
MODEL 2
REMARK VINA RESULT:      -8.1      2.983      9.439
REMARK  Name = 
REMARK  13 active torsions:
REMARK  status: ('A' for Active; 'I' for Inactive)
REMARK    1  A    between atoms: C_1  and  C_2
REMARK    2  A    between atoms: C_2  and  C_3
REMARK    3  A    between atoms: C_2  and  C_10
REMARK    4  A    between atoms: C_3  and  C_4
REMARK    5  A    between atoms: N_8  and  C_9
REMARK    6  A    between atoms: C_14  and  N_15
REMARK    7  A    between atoms: C_16  and  C_18
REMARK    8  A    between atoms: C_20  and  C_21
REMARK    9  A    between atoms: N_23  and  C_24
REMARK   10  A    between atoms: C_24  and  C_25
REMARK   11  A    between atoms: C_25  and  C_26
REMARK   12  A    between atoms: C_25  and  C_27
REMARK   13  A    between atoms: C_25  and  O_28
REMARK                            x       y       z     vdW  Elec       q    Type
REMARK                         _______ _______ _______ _____ _____    ______ ____
ROOT
ATOM      1  N   UNL     1       2.147   7.125  20.748  0.00  0.00    +0.000 N 
ATOM      2  C   UNL     1       1.640   5.848  20.570  0.00  0.00    +0.000 C 
ATOM      3  O   UNL     1       0.461   5.514  20.593  0.00  0.00    +0.000 OA
ATOM      4  H   UNL     1       3.146   7.224  20.586  0.00  0.00    +0.000 HD
ENDROOT
BRANCH   1   9
ATOM      5  C   UNL     1       0.179  10.250  20.220  0.00  0.00    +0.000 A 
ATOM      6  C   UNL     1      -0.170  10.557  21.544  0.00  0.00    +0.000 A 
ATOM      7  C   UNL     1       0.273   9.767  22.600  0.00  0.00    +0.000 A 
ATOM      8  C   UNL     1       1.049   8.638  22.351  0.00  0.00    +0.000 A 
ATOM      9  C   UNL     1       1.395   8.282  21.047  0.00  0.00    +0.000 A 
ATOM     10  C   UNL     1       0.979   9.107  19.991  0.00  0.00    +0.000 A 
BRANCH   5  12
ATOM     11  C   UNL     1      -0.965  10.294  17.916  0.00  0.00    +0.000 C 
ATOM     12  C   UNL     1      -0.278  11.105  19.033  0.00  0.00    +0.000 C 
BRANCH  12  13
ATOM     13  C   UNL     1       0.917  11.919  18.477  0.00  0.00    +0.000 C 
BRANCH  13  14
ATOM     14  C   UNL     1       0.738  13.392  18.640  0.00  0.00    +0.000 A 
ATOM     15  N   UNL     1      -0.408  14.042  18.666  0.00  0.00    +0.000 NA
ATOM     16  N   UNL     1      -0.135  15.387  18.761  0.00  0.00    +0.000 NA
ATOM     17  C   UNL     1       1.168  15.528  18.801  0.00  0.00    +0.000 A 
ATOM     18  N   UNL     1       1.757  14.303  18.757  0.00  0.00    +0.000 N 
ATOM     19  C   UNL     1       3.168  14.038  18.831  0.00  0.00    +0.000 C 
ENDBRANCH  13  14
ENDBRANCH  12  13
ENDBRANCH   5  12
ENDBRANCH   1   9
BRANCH   2  20
ATOM     20  C   UNL     1       2.664   4.796  20.283  0.00  0.00    +0.000 A 
ATOM     21  C   UNL     1       3.779   5.146  19.531  0.00  0.00    +0.000 A 
ATOM     22  C   UNL     1       4.726   4.163  19.278  0.00  0.00    +0.000 A 
ATOM     23  C   UNL     1       4.517   2.869  19.758  0.00  0.00    +0.000 A 
ATOM     24  C   UNL     1       3.374   2.615  20.498  0.00  0.00    +0.000 A 
ATOM     25  N   UNL     1       2.441   3.550  20.785  0.00  0.00    +0.000 NA
BRANCH  22  26
ATOM     26  C   UNL     1       5.943   4.438  18.473  0.00  0.00    +0.000 C 
ATOM     27  O   UNL     1       6.876   5.046  18.985  0.00  0.00    +0.000 OA
ATOM     28  N   UNL     1       5.931   4.025  17.157  0.00  0.00    +0.000 N 
ATOM     29  H   UNL     1       5.110   3.594  16.750  0.00  0.00    +0.000 HD
BRANCH  28  30
ATOM     30  C   UNL     1       7.063   4.273  16.269  0.00  0.00    +0.000 C 
BRANCH  30  31
ATOM     31  C   UNL     1       6.650   4.883  14.909  0.00  0.00    +0.000 C 
ATOM     32  C   UNL     1       6.222   3.831  13.883  0.00  0.00    +0.000 C 
ATOM     33  C   UNL     1       5.515   5.890  15.113  0.00  0.00    +0.000 C 
BRANCH  31  34
ATOM     34  O   UNL     1       7.767   5.609  14.373  0.00  0.00    +0.000 OA
ATOM     35  H   UNL     1       7.544   6.553  14.443  0.00  0.00    +0.000 HD
ENDBRANCH  31  34
ENDBRANCH  30  31
ENDBRANCH  28  30
ENDBRANCH  22  26
ENDBRANCH   2  20
TORSDOF 9
ENDMDL
MODEL 3
REMARK VINA RESULT:      -8.1      2.002      2.921
REMARK  Name = 
REMARK  13 active torsions:
REMARK  status: ('A' for Active; 'I' for Inactive)
REMARK    1  A    between atoms: C_1  and  C_2
REMARK    2  A    between atoms: C_2  and  C_3
REMARK    3  A    between atoms: C_2  and  C_10
REMARK    4  A    between atoms: C_3  and  C_4
REMARK    5  A    between atoms: N_8  and  C_9
REMARK    6  A    between atoms: C_14  and  N_15
REMARK    7  A    between atoms: C_16  and  C_18
REMARK    8  A    between atoms: C_20  and  C_21
REMARK    9  A    between atoms: N_23  and  C_24
REMARK   10  A    between atoms: C_24  and  C_25
REMARK   11  A    between atoms: C_25  and  C_26
REMARK   12  A    between atoms: C_25  and  C_27
REMARK   13  A    between atoms: C_25  and  O_28
REMARK                            x       y       z     vdW  Elec       q    Type
REMARK                         _______ _______ _______ _____ _____    ______ ____
ROOT
ATOM      1  N   UNL     1       1.183   6.199  21.001  0.00  0.00    +0.000 N 
ATOM      2  C   UNL     1       1.661   7.415  20.542  0.00  0.00    +0.000 C 
ATOM      3  O   UNL     1       2.583   7.594  19.754  0.00  0.00    +0.000 OA
ATOM      4  H   UNL     1       0.340   6.247  21.568  0.00  0.00    +0.000 HD
ENDROOT
BRANCH   1   9
ATOM      5  C   UNL     1       2.751   3.457  19.017  0.00  0.00    +0.000 A 
ATOM      6  C   UNL     1       2.849   2.457  19.997  0.00  0.00    +0.000 A 
ATOM      7  C   UNL     1       2.365   2.671  21.284  0.00  0.00    +0.000 A 
ATOM      8  C   UNL     1       1.802   3.898  21.624  0.00  0.00    +0.000 A 
ATOM      9  C   UNL     1       1.712   4.927  20.687  0.00  0.00    +0.000 A 
ATOM     10  C   UNL     1       2.163   4.690  19.380  0.00  0.00    +0.000 A 
BRANCH   5  12
ATOM     11  C   UNL     1       4.108   1.978  17.407  0.00  0.00    +0.000 C 
ATOM     12  C   UNL     1       3.259   3.253  17.586  0.00  0.00    +0.000 C 
BRANCH  12  13
ATOM     13  C   UNL     1       4.033   4.508  17.115  0.00  0.00    +0.000 C 
BRANCH  13  14
ATOM     14  C   UNL     1       5.473   4.482  17.509  0.00  0.00    +0.000 A 
ATOM     15  N   UNL     1       5.950   4.579  18.734  0.00  0.00    +0.000 NA
ATOM     16  N   UNL     1       7.323   4.581  18.660  0.00  0.00    +0.000 NA
ATOM     17  C   UNL     1       7.655   4.475  17.396  0.00  0.00    +0.000 A 
ATOM     18  N   UNL     1       6.528   4.380  16.639  0.00  0.00    +0.000 N 
ATOM     19  C   UNL     1       6.477   4.200  15.214  0.00  0.00    +0.000 C 
ENDBRANCH  13  14
ENDBRANCH  12  13
ENDBRANCH   5  12
ENDBRANCH   1   9
BRANCH   2  20
ATOM     20  C   UNL     1       0.927   8.616  21.050  0.00  0.00    +0.000 A 
ATOM     21  C   UNL     1       0.287   9.437  20.130  0.00  0.00    +0.000 A 
ATOM     22  C   UNL     1      -0.397  10.544  20.614  0.00  0.00    +0.000 A 
ATOM     23  C   UNL     1      -0.397  10.805  21.985  0.00  0.00    +0.000 A 
ATOM     24  C   UNL     1       0.271   9.929  22.825  0.00  0.00    +0.000 A 
ATOM     25  N   UNL     1       0.929   8.829  22.394  0.00  0.00    +0.000 NA
BRANCH  22  26
ATOM     26  C   UNL     1      -1.100  11.487  19.708  0.00  0.00    +0.000 C 
ATOM     27  O   UNL     1      -1.439  12.586  20.133  0.00  0.00    +0.000 OA
ATOM     28  N   UNL     1      -1.378  11.043  18.432  0.00  0.00    +0.000 N 
ATOM     29  H   UNL     1      -1.149  10.100  18.145  0.00  0.00    +0.000 HD
BRANCH  28  30
ATOM     30  C   UNL     1      -2.092  11.878  17.472  0.00  0.00    +0.000 C 
BRANCH  30  31
ATOM     31  C   UNL     1      -3.239  11.133  16.748  0.00  0.00    +0.000 C 
ATOM     32  C   UNL     1      -2.862  10.678  15.337  0.00  0.00    +0.000 C 
ATOM     33  C   UNL     1      -3.677   9.922  17.577  0.00  0.00    +0.000 C 
BRANCH  31  34
ATOM     34  O   UNL     1      -4.371  12.011  16.654  0.00  0.00    +0.000 OA
ATOM     35  H   UNL     1      -4.709  12.128  17.557  0.00  0.00    +0.000 HD
ENDBRANCH  31  34
ENDBRANCH  30  31
ENDBRANCH  28  30
ENDBRANCH  22  26
ENDBRANCH   2  20
TORSDOF 9
ENDMDL
MODEL 4
REMARK VINA RESULT:      -8.0      6.235      9.700
REMARK  Name = 
REMARK  13 active torsions:
REMARK  status: ('A' for Active; 'I' for Inactive)
REMARK    1  A    between atoms: C_1  and  C_2
REMARK    2  A    between atoms: C_2  and  C_3
REMARK    3  A    between atoms: C_2  and  C_10
REMARK    4  A    between atoms: C_3  and  C_4
REMARK    5  A    between atoms: N_8  and  C_9
REMARK    6  A    between atoms: C_14  and  N_15
REMARK    7  A    between atoms: C_16  and  C_18
REMARK    8  A    between atoms: C_20  and  C_21
REMARK    9  A    between atoms: N_23  and  C_24
REMARK   10  A    between atoms: C_24  and  C_25
REMARK   11  A    between atoms: C_25  and  C_26
REMARK   12  A    between atoms: C_25  and  C_27
REMARK   13  A    between atoms: C_25  and  O_28
REMARK                            x       y       z     vdW  Elec       q    Type
REMARK                         _______ _______ _______ _____ _____    ______ ____
ROOT
ATOM      1  N   UNL     1       7.858   8.625  17.703  0.00  0.00    +0.000 N 
ATOM      2  C   UNL     1       7.836   7.294  18.086  0.00  0.00    +0.000 C 
ATOM      3  O   UNL     1       8.391   6.799  19.061  0.00  0.00    +0.000 OA
ATOM      4  H   UNL     1       7.248   8.866  16.925  0.00  0.00    +0.000 HD
ENDROOT
BRANCH   1   9
ATOM      5  C   UNL     1       9.529  11.922  18.212  0.00  0.00    +0.000 A 
ATOM      6  C   UNL     1       9.933  11.797  19.550  0.00  0.00    +0.000 A 
ATOM      7  C   UNL     1       9.695  10.626  20.261  0.00  0.00    +0.000 A 
ATOM      8  C   UNL     1       9.022   9.566  19.658  0.00  0.00    +0.000 A 
ATOM      9  C   UNL     1       8.578   9.660  18.339  0.00  0.00    +0.000 A 
ATOM     10  C   UNL     1       8.859  10.829  17.615  0.00  0.00    +0.000 A 
BRANCH   5  12
ATOM     11  C   UNL     1      11.138  13.182  16.649  0.00  0.00    +0.000 C 
ATOM     12  C   UNL     1       9.787  13.190  17.392  0.00  0.00    +0.000 C 
BRANCH  12  13
ATOM     13  C   UNL     1       9.656  14.440  18.297  0.00  0.00    +0.000 C 
BRANCH  13  14
ATOM     14  C   UNL     1       8.269  14.991  18.325  0.00  0.00    +0.000 A 
ATOM     15  N   UNL     1       7.153  14.309  18.166  0.00  0.00    +0.000 NA
ATOM     16  N   UNL     1       6.101  15.195  18.190  0.00  0.00    +0.000 NA
ATOM     17  C   UNL     1       6.596  16.395  18.373  0.00  0.00    +0.000 A 
ATOM     18  N   UNL     1       7.948  16.314  18.492  0.00  0.00    +0.000 N 
ATOM     19  C   UNL     1       8.843  17.409  18.752  0.00  0.00    +0.000 C 
ENDBRANCH  13  14
ENDBRANCH  12  13
ENDBRANCH   5  12
ENDBRANCH   1   9
BRANCH   2  20
ATOM     20  C   UNL     1       7.006   6.400  17.219  0.00  0.00    +0.000 A 
ATOM     21  C   UNL     1       5.829   5.879  17.742  0.00  0.00    +0.000 A 
ATOM     22  C   UNL     1       5.064   5.057  16.926  0.00  0.00    +0.000 A 
ATOM     23  C   UNL     1       5.509   4.766  15.635  0.00  0.00    +0.000 A 
ATOM     24  C   UNL     1       6.697   5.331  15.202  0.00  0.00    +0.000 A 
ATOM     25  N   UNL     1       7.458   6.154  15.959  0.00  0.00    +0.000 NA
BRANCH  22  26
ATOM     26  C   UNL     1       3.799   4.442  17.400  0.00  0.00    +0.000 C 
ATOM     27  O   UNL     1       3.167   3.711  16.645  0.00  0.00    +0.000 OA
ATOM     28  N   UNL     1       3.377   4.775  18.670  0.00  0.00    +0.000 N 
ATOM     29  H   UNL     1       3.887   5.443  19.233  0.00  0.00    +0.000 HD
BRANCH  28  30
ATOM     30  C   UNL     1       2.131   4.252  19.222  0.00  0.00    +0.000 C 
BRANCH  30  31
ATOM     31  C   UNL     1       2.289   2.858  19.875  0.00  0.00    +0.000 C 
ATOM     32  C   UNL     1       3.722   2.566  20.326  0.00  0.00    +0.000 C 
ATOM     33  C   UNL     1       1.341   2.732  21.070  0.00  0.00    +0.000 C 
BRANCH  31  34
ATOM     34  O   UNL     1       1.902   1.857  18.922  0.00  0.00    +0.000 OA
ATOM     35  H   UNL     1       0.931   1.839  18.916  0.00  0.00    +0.000 HD
ENDBRANCH  31  34
ENDBRANCH  30  31
ENDBRANCH  28  30
ENDBRANCH  22  26
ENDBRANCH   2  20
TORSDOF 9
ENDMDL
MODEL 5
REMARK VINA RESULT:      -7.9      6.203      9.476
REMARK  Name = 
REMARK  13 active torsions:
REMARK  status: ('A' for Active; 'I' for Inactive)
REMARK    1  A    between atoms: C_1  and  C_2
REMARK    2  A    between atoms: C_2  and  C_3
REMARK    3  A    between atoms: C_2  and  C_10
REMARK    4  A    between atoms: C_3  and  C_4
REMARK    5  A    between atoms: N_8  and  C_9
REMARK    6  A    between atoms: C_14  and  N_15
REMARK    7  A    between atoms: C_16  and  C_18
REMARK    8  A    between atoms: C_20  and  C_21
REMARK    9  A    between atoms: N_23  and  C_24
REMARK   10  A    between atoms: C_24  and  C_25
REMARK   11  A    between atoms: C_25  and  C_26
REMARK   12  A    between atoms: C_25  and  C_27
REMARK   13  A    between atoms: C_25  and  O_28
REMARK                            x       y       z     vdW  Elec       q    Type
REMARK                         _______ _______ _______ _____ _____    ______ ____
ROOT
ATOM      1  N   UNL     1       7.883   9.037  17.846  0.00  0.00    +0.000 N 
ATOM      2  C   UNL     1       7.933   7.686  18.149  0.00  0.00    +0.000 C 
ATOM      3  O   UNL     1       8.648   7.146  18.986  0.00  0.00    +0.000 OA
ATOM      4  H   UNL     1       7.149   9.311  17.198  0.00  0.00    +0.000 HD
ENDROOT
BRANCH   1   9
ATOM      5  C   UNL     1       9.688  12.282  18.201  0.00  0.00    +0.000 A 
ATOM      6  C   UNL     1      10.226  12.134  19.489  0.00  0.00    +0.000 A 
ATOM      7  C   UNL     1      10.031  10.961  20.212  0.00  0.00    +0.000 A 
ATOM      8  C   UNL     1       9.270   9.927  19.676  0.00  0.00    +0.000 A 
ATOM      9  C   UNL     1       8.693  10.046  18.411  0.00  0.00    +0.000 A 
ATOM     10  C   UNL     1       8.930  11.214  17.670  0.00  0.00    +0.000 A 
BRANCH   5  12
ATOM     11  C   UNL     1      11.318  13.687  16.791  0.00  0.00    +0.000 C 
ATOM     12  C   UNL     1       9.894  13.552  17.369  0.00  0.00    +0.000 C 
BRANCH  12  13
ATOM     13  C   UNL     1       9.509  14.799  18.202  0.00  0.00    +0.000 C 
BRANCH  13  14
ATOM     14  C   UNL     1       8.038  15.049  18.223  0.00  0.00    +0.000 A 
ATOM     15  N   UNL     1       7.114  14.331  17.615  0.00  0.00    +0.000 NA
ATOM     16  N   UNL     1       5.896  14.933  17.826  0.00  0.00    +0.000 NA
ATOM     17  C   UNL     1       6.100  15.998  18.564  0.00  0.00    +0.000 A 
ATOM     18  N   UNL     1       7.424  16.095  18.862  0.00  0.00    +0.000 N 
ATOM     19  C   UNL     1       8.034  17.097  19.693  0.00  0.00    +0.000 C 
ENDBRANCH  13  14
ENDBRANCH  12  13
ENDBRANCH   5  12
ENDBRANCH   1   9
BRANCH   2  20
ATOM     20  C   UNL     1       6.975   6.830  17.384  0.00  0.00    +0.000 A 
ATOM     21  C   UNL     1       5.679   6.693  17.869  0.00  0.00    +0.000 A 
ATOM     22  C   UNL     1       4.797   5.902  17.146  0.00  0.00    +0.000 A 
ATOM     23  C   UNL     1       5.240   5.260  15.988  0.00  0.00    +0.000 A 
ATOM     24  C   UNL     1       6.551   5.456  15.585  0.00  0.00    +0.000 A 
ATOM     25  N   UNL     1       7.433   6.236  16.248  0.00  0.00    +0.000 NA
BRANCH  22  26
ATOM     26  C   UNL     1       3.397   5.684  17.590  0.00  0.00    +0.000 C 
ATOM     27  O   UNL     1       2.780   6.610  18.106  0.00  0.00    +0.000 OA
ATOM     28  N   UNL     1       2.880   4.414  17.437  0.00  0.00    +0.000 N 
ATOM     29  H   UNL     1       3.448   3.657  17.077  0.00  0.00    +0.000 HD
BRANCH  28  30
ATOM     30  C   UNL     1       1.526   4.084  17.869  0.00  0.00    +0.000 C 
BRANCH  30  31
ATOM     31  C   UNL     1       1.486   3.262  19.179  0.00  0.00    +0.000 C 
ATOM     32  C   UNL     1       1.000   4.072  20.382  0.00  0.00    +0.000 C 
ATOM     33  C   UNL     1       0.591   2.033  18.995  0.00  0.00    +0.000 C 
BRANCH  31  34
ATOM     34  O   UNL     1       2.809   2.781  19.461  0.00  0.00    +0.000 OA
ATOM     35  H   UNL     1       2.821   2.536  20.402  0.00  0.00    +0.000 HD
ENDBRANCH  31  34
ENDBRANCH  30  31
ENDBRANCH  28  30
ENDBRANCH  22  26
ENDBRANCH   2  20
TORSDOF 9
ENDMDL
MODEL 6
REMARK VINA RESULT:      -7.9      2.694      9.750
REMARK  Name = 
REMARK  13 active torsions:
REMARK  status: ('A' for Active; 'I' for Inactive)
REMARK    1  A    between atoms: C_1  and  C_2
REMARK    2  A    between atoms: C_2  and  C_3
REMARK    3  A    between atoms: C_2  and  C_10
REMARK    4  A    between atoms: C_3  and  C_4
REMARK    5  A    between atoms: N_8  and  C_9
REMARK    6  A    between atoms: C_14  and  N_15
REMARK    7  A    between atoms: C_16  and  C_18
REMARK    8  A    between atoms: C_20  and  C_21
REMARK    9  A    between atoms: N_23  and  C_24
REMARK   10  A    between atoms: C_24  and  C_25
REMARK   11  A    between atoms: C_25  and  C_26
REMARK   12  A    between atoms: C_25  and  C_27
REMARK   13  A    between atoms: C_25  and  O_28
REMARK                            x       y       z     vdW  Elec       q    Type
REMARK                         _______ _______ _______ _____ _____    ______ ____
ROOT
ATOM      1  N   UNL     1       0.482   8.095  21.332  0.00  0.00    +0.000 N 
ATOM      2  C   UNL     1       1.396   7.883  20.313  0.00  0.00    +0.000 C 
ATOM      3  O   UNL     1       1.856   8.725  19.550  0.00  0.00    +0.000 OA
ATOM      4  H   UNL     1       0.301   7.292  21.930  0.00  0.00    +0.000 HD
ENDROOT
BRANCH   1   9
ATOM      5  C   UNL     1      -1.127  11.426  20.849  0.00  0.00    +0.000 A 
ATOM      6  C   UNL     1      -1.447  11.747  22.177  0.00  0.00    +0.000 A 
ATOM      7  C   UNL     1      -1.099  10.897  23.221  0.00  0.00    +0.000 A 
ATOM      8  C   UNL     1      -0.451   9.693  22.956  0.00  0.00    +0.000 A 
ATOM      9  C   UNL     1      -0.140   9.322  21.648  0.00  0.00    +0.000 A 
ATOM     10  C   UNL     1      -0.456  10.205  20.605  0.00  0.00    +0.000 A 
BRANCH   5  12
ATOM     11  C   UNL     1      -1.264  13.841  19.975  0.00  0.00    +0.000 C 
ATOM     12  C   UNL     1      -1.480  12.344  19.675  0.00  0.00    +0.000 C 
BRANCH  12  13
ATOM     13  C   UNL     1      -2.932  12.072  19.209  0.00  0.00    +0.000 C 
BRANCH  13  14
ATOM     14  C   UNL     1      -2.998  11.478  17.841  0.00  0.00    +0.000 A 
ATOM     15  N   UNL     1      -2.016  10.875  17.202  0.00  0.00    +0.000 NA
ATOM     16  N   UNL     1      -2.466  10.536  15.947  0.00  0.00    +0.000 NA
ATOM     17  C   UNL     1      -3.713  10.930  15.851  0.00  0.00    +0.000 A 
ATOM     18  N   UNL     1      -4.099  11.501  17.024  0.00  0.00    +0.000 N 
ATOM     19  C   UNL     1      -5.409  12.009  17.328  0.00  0.00    +0.000 C 
ENDBRANCH  13  14
ENDBRANCH  12  13
ENDBRANCH   5  12
ENDBRANCH   1   9
BRANCH   2  20
ATOM     20  C   UNL     1       1.883   6.475  20.182  0.00  0.00    +0.000 A 
ATOM     21  C   UNL     1       2.705   6.157  19.108  0.00  0.00    +0.000 A 
ATOM     22  C   UNL     1       3.157   4.849  19.001  0.00  0.00    +0.000 A 
ATOM     23  C   UNL     1       2.756   3.905  19.948  0.00  0.00    +0.000 A 
ATOM     24  C   UNL     1       1.933   4.316  20.984  0.00  0.00    +0.000 A 
ATOM     25  N   UNL     1       1.492   5.585  21.135  0.00  0.00    +0.000 NA
BRANCH  22  26
ATOM     26  C   UNL     1       4.027   4.410  17.881  0.00  0.00    +0.000 C 
ATOM     27  O   UNL     1       4.191   3.212  17.682  0.00  0.00    +0.000 OA
ATOM     28  N   UNL     1       4.650   5.398  17.147  0.00  0.00    +0.000 N 
ATOM     29  H   UNL     1       4.550   6.375  17.392  0.00  0.00    +0.000 HD
BRANCH  28  30
ATOM     30  C   UNL     1       5.552   5.076  16.044  0.00  0.00    +0.000 C 
BRANCH  30  31
ATOM     31  C   UNL     1       7.019   5.484  16.315  0.00  0.00    +0.000 C 
ATOM     32  C   UNL     1       7.153   6.893  16.897  0.00  0.00    +0.000 C 
ATOM     33  C   UNL     1       7.673   4.475  17.264  0.00  0.00    +0.000 C 
BRANCH  31  34
ATOM     34  O   UNL     1       7.747   5.433  15.079  0.00  0.00    +0.000 OA
ATOM     35  H   UNL     1       8.659   5.185  15.303  0.00  0.00    +0.000 HD
ENDBRANCH  31  34
ENDBRANCH  30  31
ENDBRANCH  28  30
ENDBRANCH  22  26
ENDBRANCH   2  20
TORSDOF 9
ENDMDL
MODEL 7
REMARK VINA RESULT:      -7.9      2.056      2.859
REMARK  Name = 
REMARK  13 active torsions:
REMARK  status: ('A' for Active; 'I' for Inactive)
REMARK    1  A    between atoms: C_1  and  C_2
REMARK    2  A    between atoms: C_2  and  C_3
REMARK    3  A    between atoms: C_2  and  C_10
REMARK    4  A    between atoms: C_3  and  C_4
REMARK    5  A    between atoms: N_8  and  C_9
REMARK    6  A    between atoms: C_14  and  N_15
REMARK    7  A    between atoms: C_16  and  C_18
REMARK    8  A    between atoms: C_20  and  C_21
REMARK    9  A    between atoms: N_23  and  C_24
REMARK   10  A    between atoms: C_24  and  C_25
REMARK   11  A    between atoms: C_25  and  C_26
REMARK   12  A    between atoms: C_25  and  C_27
REMARK   13  A    between atoms: C_25  and  O_28
REMARK                            x       y       z     vdW  Elec       q    Type
REMARK                         _______ _______ _______ _____ _____    ______ ____
ROOT
ATOM      1  N   UNL     1       2.348   6.867  18.719  0.00  0.00    +0.000 N 
ATOM      2  C   UNL     1       2.113   6.952  20.082  0.00  0.00    +0.000 C 
ATOM      3  O   UNL     1       2.414   6.124  20.934  0.00  0.00    +0.000 OA
ATOM      4  H   UNL     1       2.123   7.702  18.185  0.00  0.00    +0.000 HD
ENDROOT
BRANCH   1   9
ATOM      5  C   UNL     1       4.691   4.953  16.537  0.00  0.00    +0.000 A 
ATOM      6  C   UNL     1       4.209   3.649  16.728  0.00  0.00    +0.000 A 
ATOM      7  C   UNL     1       3.099   3.410  17.532  0.00  0.00    +0.000 A 
ATOM      8  C   UNL     1       2.469   4.466  18.185  0.00  0.00    +0.000 A 
ATOM      9  C   UNL     1       2.934   5.773  18.045  0.00  0.00    +0.000 A 
ATOM     10  C   UNL     1       4.027   6.011  17.198  0.00  0.00    +0.000 A 
BRANCH   5  12
ATOM     11  C   UNL     1       5.729   4.784  14.189  0.00  0.00    +0.000 C 
ATOM     12  C   UNL     1       5.901   5.257  15.646  0.00  0.00    +0.000 C 
BRANCH  12  13
ATOM     13  C   UNL     1       7.184   4.664  16.278  0.00  0.00    +0.000 C 
BRANCH  13  14
ATOM     14  C   UNL     1       7.416   5.142  17.673  0.00  0.00    +0.000 A 
ATOM     15  N   UNL     1       7.451   4.396  18.759  0.00  0.00    +0.000 NA
ATOM     16  N   UNL     1       7.619   5.225  19.843  0.00  0.00    +0.000 NA
ATOM     17  C   UNL     1       7.693   6.456  19.396  0.00  0.00    +0.000 A 
ATOM     18  N   UNL     1       7.600   6.451  18.039  0.00  0.00    +0.000 N 
ATOM     19  C   UNL     1       7.691   7.599  17.179  0.00  0.00    +0.000 C 
ENDBRANCH  13  14
ENDBRANCH  12  13
ENDBRANCH   5  12
ENDBRANCH   1   9
BRANCH   2  20
ATOM     20  C   UNL     1       1.456   8.218  20.532  0.00  0.00    +0.000 A 
ATOM     21  C   UNL     1       0.869   9.035  19.573  0.00  0.00    +0.000 A 
ATOM     22  C   UNL     1       0.255  10.204  20.004  0.00  0.00    +0.000 A 
ATOM     23  C   UNL     1       0.270  10.526  21.362  0.00  0.00    +0.000 A 
ATOM     24  C   UNL     1       0.882   9.650  22.243  0.00  0.00    +0.000 A 
ATOM     25  N   UNL     1       1.470   8.492  21.865  0.00  0.00    +0.000 NA
BRANCH  22  26
ATOM     26  C   UNL     1      -0.387  11.146  19.054  0.00  0.00    +0.000 C 
ATOM     27  O   UNL     1       0.033  12.296  18.974  0.00  0.00    +0.000 OA
ATOM     28  N   UNL     1      -1.469  10.678  18.339  0.00  0.00    +0.000 N 
ATOM     29  H   UNL     1      -1.833   9.746  18.491  0.00  0.00    +0.000 HD
BRANCH  28  30
ATOM     30  C   UNL     1      -2.193  11.531  17.402  0.00  0.00    +0.000 C 
BRANCH  30  31
ATOM     31  C   UNL     1      -3.327  10.792  16.653  0.00  0.00    +0.000 C 
ATOM     32  C   UNL     1      -4.681  11.496  16.769  0.00  0.00    +0.000 C 
ATOM     33  C   UNL     1      -2.958  10.634  15.175  0.00  0.00    +0.000 C 
BRANCH  31  34
ATOM     34  O   UNL     1      -3.455   9.471  17.199  0.00  0.00    +0.000 OA
ATOM     35  H   UNL     1      -3.573   9.577  18.158  0.00  0.00    +0.000 HD
ENDBRANCH  31  34
ENDBRANCH  30  31
ENDBRANCH  28  30
ENDBRANCH  22  26
ENDBRANCH   2  20
TORSDOF 9
ENDMDL
MODEL 8
REMARK VINA RESULT:      -7.9      2.657      3.924
REMARK  Name = 
REMARK  13 active torsions:
REMARK  status: ('A' for Active; 'I' for Inactive)
REMARK    1  A    between atoms: C_1  and  C_2
REMARK    2  A    between atoms: C_2  and  C_3
REMARK    3  A    between atoms: C_2  and  C_10
REMARK    4  A    between atoms: C_3  and  C_4
REMARK    5  A    between atoms: N_8  and  C_9
REMARK    6  A    between atoms: C_14  and  N_15
REMARK    7  A    between atoms: C_16  and  C_18
REMARK    8  A    between atoms: C_20  and  C_21
REMARK    9  A    between atoms: N_23  and  C_24
REMARK   10  A    between atoms: C_24  and  C_25
REMARK   11  A    between atoms: C_25  and  C_26
REMARK   12  A    between atoms: C_25  and  C_27
REMARK   13  A    between atoms: C_25  and  O_28
REMARK                            x       y       z     vdW  Elec       q    Type
REMARK                         _______ _______ _______ _____ _____    ______ ____
ROOT
ATOM      1  N   UNL     1       2.288   6.867  18.776  0.00  0.00    +0.000 N 
ATOM      2  C   UNL     1       1.825   6.899  20.082  0.00  0.00    +0.000 C 
ATOM      3  O   UNL     1       1.779   5.960  20.870  0.00  0.00    +0.000 OA
ATOM      4  H   UNL     1       2.349   7.770  18.313  0.00  0.00    +0.000 HD
ENDROOT
BRANCH   1   9
ATOM      5  C   UNL     1       4.489   4.679  16.706  0.00  0.00    +0.000 A 
ATOM      6  C   UNL     1       3.766   3.477  16.750  0.00  0.00    +0.000 A 
ATOM      7  C   UNL     1       2.548   3.402  17.417  0.00  0.00    +0.000 A 
ATOM      8  C   UNL     1       2.043   4.517  18.080  0.00  0.00    +0.000 A 
ATOM      9  C   UNL     1       2.744   5.723  18.085  0.00  0.00    +0.000 A 
ATOM     10  C   UNL     1       3.951   5.803  17.374  0.00  0.00    +0.000 A 
BRANCH   5  12
ATOM     11  C   UNL     1       6.027   3.744  14.868  0.00  0.00    +0.000 C 
ATOM     12  C   UNL     1       5.826   4.805  15.969  0.00  0.00    +0.000 C 
BRANCH  12  13
ATOM     13  C   UNL     1       6.995   4.781  16.985  0.00  0.00    +0.000 C 
BRANCH  13  14
ATOM     14  C   UNL     1       7.409   6.148  17.421  0.00  0.00    +0.000 A 
ATOM     15  N   UNL     1       7.377   7.244  16.691  0.00  0.00    +0.000 NA
ATOM     16  N   UNL     1       7.906   8.272  17.437  0.00  0.00    +0.000 NA
ATOM     17  C   UNL     1       8.239   7.783  18.608  0.00  0.00    +0.000 A 
ATOM     18  N   UNL     1       7.919   6.462  18.655  0.00  0.00    +0.000 N 
ATOM     19  C   UNL     1       8.083   5.590  19.786  0.00  0.00    +0.000 C 
ENDBRANCH  13  14
ENDBRANCH  12  13
ENDBRANCH   5  12
ENDBRANCH   1   9
BRANCH   2  20
ATOM     20  C   UNL     1       1.379   8.243  20.562  0.00  0.00    +0.000 A 
ATOM     21  C   UNL     1       1.254   9.268  19.632  0.00  0.00    +0.000 A 
ATOM     22  C   UNL     1       0.831  10.510  20.089  0.00  0.00    +0.000 A 
ATOM     23  C   UNL     1       0.575  10.690  21.449  0.00  0.00    +0.000 A 
ATOM     24  C   UNL     1       0.730   9.608  22.300  0.00  0.00    +0.000 A 
ATOM     25  N   UNL     1       1.116   8.379  21.891  0.00  0.00    +0.000 NA
BRANCH  22  26
ATOM     26  C   UNL     1       0.681  11.670  19.175  0.00  0.00    +0.000 C 
ATOM     27  O   UNL     1      -0.334  11.770  18.495  0.00  0.00    +0.000 OA
ATOM     28  N   UNL     1       1.734  12.558  19.109  0.00  0.00    +0.000 N 
ATOM     29  H   UNL     1       2.587  12.398  19.629  0.00  0.00    +0.000 HD
BRANCH  28  30
ATOM     30  C   UNL     1       1.703  13.715  18.220  0.00  0.00    +0.000 C 
BRANCH  30  31
ATOM     31  C   UNL     1       1.392  15.041  18.953  0.00  0.00    +0.000 C 
ATOM     32  C   UNL     1       2.174  16.233  18.395  0.00  0.00    +0.000 C 
ATOM     33  C   UNL     1      -0.109  15.335  18.882  0.00  0.00    +0.000 C 
BRANCH  31  34
ATOM     34  O   UNL     1       1.727  14.889  20.340  0.00  0.00    +0.000 OA
ATOM     35  H   UNL     1       1.511  13.972  20.580  0.00  0.00    +0.000 HD
ENDBRANCH  31  34
ENDBRANCH  30  31
ENDBRANCH  28  30
ENDBRANCH  22  26
ENDBRANCH   2  20
TORSDOF 9
ENDMDL
MODEL 9
REMARK VINA RESULT:      -7.8      1.590      2.019
REMARK  Name = 
REMARK  13 active torsions:
REMARK  status: ('A' for Active; 'I' for Inactive)
REMARK    1  A    between atoms: C_1  and  C_2
REMARK    2  A    between atoms: C_2  and  C_3
REMARK    3  A    between atoms: C_2  and  C_10
REMARK    4  A    between atoms: C_3  and  C_4
REMARK    5  A    between atoms: N_8  and  C_9
REMARK    6  A    between atoms: C_14  and  N_15
REMARK    7  A    between atoms: C_16  and  C_18
REMARK    8  A    between atoms: C_20  and  C_21
REMARK    9  A    between atoms: N_23  and  C_24
REMARK   10  A    between atoms: C_24  and  C_25
REMARK   11  A    between atoms: C_25  and  C_26
REMARK   12  A    between atoms: C_25  and  C_27
REMARK   13  A    between atoms: C_25  and  O_28
REMARK                            x       y       z     vdW  Elec       q    Type
REMARK                         _______ _______ _______ _____ _____    ______ ____
ROOT
ATOM      1  N   UNL     1       2.400   6.676  20.070  0.00  0.00    +0.000 N 
ATOM      2  C   UNL     1       1.972   7.868  19.508  0.00  0.00    +0.000 C 
ATOM      3  O   UNL     1       2.135   8.237  18.350  0.00  0.00    +0.000 OA
ATOM      4  H   UNL     1       2.076   6.500  21.018  0.00  0.00    +0.000 HD
ENDROOT
BRANCH   1   9
ATOM      5  C   UNL     1       4.777   5.104  17.664  0.00  0.00    +0.000 A 
ATOM      6  C   UNL     1       4.764   3.778  18.124  0.00  0.00    +0.000 A 
ATOM      7  C   UNL     1       3.949   3.400  19.186  0.00  0.00    +0.000 A 
ATOM      8  C   UNL     1       3.155   4.345  19.829  0.00  0.00    +0.000 A 
ATOM      9  C   UNL     1       3.160   5.679  19.422  0.00  0.00    +0.000 A 
ATOM     10  C   UNL     1       3.952   6.044  18.323  0.00  0.00    +0.000 A 
BRANCH   5  12
ATOM     11  C   UNL     1       5.016   6.677  15.643  0.00  0.00    +0.000 C 
ATOM     12  C   UNL     1       5.650   5.554  16.488  0.00  0.00    +0.000 C 
BRANCH  12  13
ATOM     13  C   UNL     1       6.021   4.336  15.607  0.00  0.00    +0.000 C 
BRANCH  13  14
ATOM     14  C   UNL     1       6.856   4.707  14.427  0.00  0.00    +0.000 A 
ATOM     15  N   UNL     1       7.890   5.524  14.428  0.00  0.00    +0.000 NA
ATOM     16  N   UNL     1       8.336   5.653  13.133  0.00  0.00    +0.000 NA
ATOM     17  C   UNL     1       7.572   4.905  12.373  0.00  0.00    +0.000 A 
ATOM     18  N   UNL     1       6.648   4.271  13.144  0.00  0.00    +0.000 N 
ATOM     19  C   UNL     1       5.666   3.327  12.685  0.00  0.00    +0.000 C 
ENDBRANCH  13  14
ENDBRANCH  12  13
ENDBRANCH   5  12
ENDBRANCH   1   9
BRANCH   2  20
ATOM     20  C   UNL     1       1.199   8.759  20.428  0.00  0.00    +0.000 A 
ATOM     21  C   UNL     1       0.307   9.668  19.872  0.00  0.00    +0.000 A 
ATOM     22  C   UNL     1      -0.410  10.485  20.736  0.00  0.00    +0.000 A 
ATOM     23  C   UNL     1      -0.196  10.385  22.111  0.00  0.00    +0.000 A 
ATOM     24  C   UNL     1       0.716   9.449  22.572  0.00  0.00    +0.000 A 
ATOM     25  N   UNL     1       1.416   8.620  21.765  0.00  0.00    +0.000 NA
BRANCH  22  26
ATOM     26  C   UNL     1      -1.375  11.496  20.236  0.00  0.00    +0.000 C 
ATOM     27  O   UNL     1      -1.430  12.594  20.780  0.00  0.00    +0.000 OA
ATOM     28  N   UNL     1      -2.202  11.116  19.200  0.00  0.00    +0.000 N 
ATOM     29  H   UNL     1      -2.179  10.175  18.829  0.00  0.00    +0.000 HD
BRANCH  28  30
ATOM     30  C   UNL     1      -3.209  12.022  18.655  0.00  0.00    +0.000 C 
BRANCH  30  31
ATOM     31  C   UNL     1      -4.087  11.372  17.560  0.00  0.00    +0.000 C 
ATOM     32  C   UNL     1      -5.330  12.197  17.219  0.00  0.00    +0.000 C 
ATOM     33  C   UNL     1      -3.258  11.149  16.292  0.00  0.00    +0.000 C 
BRANCH  31  34
ATOM     34  O   UNL     1      -4.513  10.080  18.018  0.00  0.00    +0.000 OA
ATOM     35  H   UNL     1      -4.435  10.089  18.987  0.00  0.00    +0.000 HD
ENDBRANCH  31  34
ENDBRANCH  30  31
ENDBRANCH  28  30
ENDBRANCH  22  26
ENDBRANCH   2  20
TORSDOF 9
ENDMDL
