MODEL 1
REMARK VINA RESULT:      -9.9      0.000      0.000
REMARK  Name = 
REMARK  10 active torsions:
REMARK  status: ('A' for Active; 'I' for Inactive)
REMARK    1  A    between atoms: C_1  and  C_2
REMARK    2  A    between atoms: N_4  and  C_5
REMARK    3  A    between atoms: N_8  and  C_9
REMARK    4  A    between atoms: C_13  and  C_14
REMARK    5  A    between atoms: N_20  and  C_21
REMARK    6  A    between atoms: C_25  and  C_26
REMARK    7  A    between atoms: C_26  and  C_27
REMARK    8  A    between atoms: C_26  and  C_29
REMARK    9  A    between atoms: C_29  and  C_32
REMARK   10  A    between atoms: N_36  and  C_37
REMARK                            x       y       z     vdW  Elec       q    Type
REMARK                         _______ _______ _______ _____ _____    ______ ____
ROOT
ATOM      1  C   UNL     1       0.672  11.877  19.768  0.00  0.00    +0.000 A 
ATOM      2  C   UNL     1       1.361  11.092  18.841  0.00  0.00    +0.000 A 
ATOM      3  C   UNL     1       1.563   9.751  19.098  0.00  0.00    +0.000 A 
ATOM      4  C   UNL     1       1.233   9.146  20.297  0.00  0.00    +0.000 A 
ATOM      5  C   UNL     1       0.695   9.912  21.317  0.00  0.00    +0.000 A 
ATOM      6  C   UNL     1       0.398  11.267  21.021  0.00  0.00    +0.000 A 
ATOM      7  C   UNL     1       1.548   7.688  20.215  0.00  0.00    +0.000 C 
ATOM      8  N   UNL     1       2.071   7.533  18.861  0.00  0.00    +0.000 N 
ATOM      9  C   UNL     1       2.090   8.747  18.179  0.00  0.00    +0.000 C 
ATOM     10  O   UNL     1       2.419   9.028  17.039  0.00  0.00    +0.000 OA
ENDROOT
BRANCH   1  18
ATOM     11  C   UNL     1      -2.276  12.677  19.612  0.00  0.00    +0.000 C 
ATOM     12  C   UNL     1      -1.137  13.654  19.311  0.00  0.00    +0.000 C 
ATOM     13  C   UNL     1      -1.352  14.878  20.260  0.00  0.00    +0.000 C 
ATOM     14  N   UNL     1      -0.362  15.961  20.085  0.00  0.00    +0.000 NA
ATOM     15  C   UNL     1      -0.612  17.029  21.051  0.00  0.00    +0.000 C 
ATOM     16  C   UNL     1       0.999  15.405  20.250  0.00  0.00    +0.000 C 
ATOM     17  C   UNL     1       1.269  14.235  19.279  0.00  0.00    +0.000 C 
ATOM     18  N   UNL     1       0.272  13.160  19.469  0.00  0.00    +0.000 N 
ENDBRANCH   1  18
BRANCH   8  19
ATOM     19  C   UNL     1       2.538   6.292  18.362  0.00  0.00    +0.000 A 
ATOM     20  C   UNL     1       1.850   5.101  18.619  0.00  0.00    +0.000 A 
ATOM     21  C   UNL     1       2.276   3.890  18.079  0.00  0.00    +0.000 A 
ATOM     22  C   UNL     1       3.419   3.843  17.290  0.00  0.00    +0.000 A 
ATOM     23  C   UNL     1       4.161   5.009  17.045  0.00  0.00    +0.000 A 
ATOM     24  C   UNL     1       3.699   6.226  17.578  0.00  0.00    +0.000 A 
BRANCH  23  25
ATOM     25  C   UNL     1       5.466   4.982  16.245  0.00  0.00    +0.000 C 
ATOM     26  C   UNL     1       5.455   3.778  15.293  0.00  0.00    +0.000 C 
ATOM     27  F   UNL     1       5.570   6.076  15.415  0.00  0.00    +0.000 F 
BRANCH  25  28
ATOM     28  C   UNL     1       6.718   4.935  17.166  0.00  0.00    +0.000 C 
ATOM     29  F   UNL     1       6.412   4.233  18.304  0.00  0.00    +0.000 F 
ATOM     30  F   UNL     1       7.695   4.183  16.569  0.00  0.00    +0.000 F 
BRANCH  28  31
ATOM     31  C   UNL     1       7.276   6.280  17.515  0.00  0.00    +0.000 A 
ATOM     32  N   UNL     1       7.285   7.369  16.766  0.00  0.00    +0.000 NA
ATOM     33  N   UNL     1       7.916   8.370  17.461  0.00  0.00    +0.000 NA
ATOM     34  C   UNL     1       8.292   7.877  18.615  0.00  0.00    +0.000 A 
ATOM     35  N   UNL     1       7.915   6.572  18.695  0.00  0.00    +0.000 N 
ATOM     36  C   UNL     1       8.167   5.693  19.807  0.00  0.00    +0.000 C 
ENDBRANCH  28  31
ENDBRANCH  25  28
ENDBRANCH  23  25
ENDBRANCH   8  19
BRANCH   5  37
ATOM     37  C   UNL     1       0.417   9.360  22.689  0.00  0.00    +0.000 C 
ATOM     38  F   UNL     1      -0.202  10.243  23.519  0.00  0.00    +0.000 F 
ATOM     39  F   UNL     1      -0.393   8.265  22.647  0.00  0.00    +0.000 F 
ATOM     40  F   UNL     1       1.546   8.965  23.338  0.00  0.00    +0.000 F 
ENDBRANCH   5  37
TORSDOF 6
ENDMDL
MODEL 2
REMARK VINA RESULT:      -9.5      0.864      1.400
REMARK  Name = 
REMARK  10 active torsions:
REMARK  status: ('A' for Active; 'I' for Inactive)
REMARK    1  A    between atoms: C_1  and  C_2
REMARK    2  A    between atoms: N_4  and  C_5
REMARK    3  A    between atoms: N_8  and  C_9
REMARK    4  A    between atoms: C_13  and  C_14
REMARK    5  A    between atoms: N_20  and  C_21
REMARK    6  A    between atoms: C_25  and  C_26
REMARK    7  A    between atoms: C_26  and  C_27
REMARK    8  A    between atoms: C_26  and  C_29
REMARK    9  A    between atoms: C_29  and  C_32
REMARK   10  A    between atoms: N_36  and  C_37
REMARK                            x       y       z     vdW  Elec       q    Type
REMARK                         _______ _______ _______ _____ _____    ______ ____
ROOT
ATOM      1  C   UNL     1       0.224  11.800  19.709  0.00  0.00    +0.000 A 
ATOM      2  C   UNL     1       1.033  11.080  18.825  0.00  0.00    +0.000 A 
ATOM      3  C   UNL     1       1.397   9.786  19.134  0.00  0.00    +0.000 A 
ATOM      4  C   UNL     1       1.115   9.182  20.346  0.00  0.00    +0.000 A 
ATOM      5  C   UNL     1       0.456   9.905  21.326  0.00  0.00    +0.000 A 
ATOM      6  C   UNL     1      -0.003  11.200  20.975  0.00  0.00    +0.000 A 
ATOM      7  C   UNL     1       1.616   7.774  20.322  0.00  0.00    +0.000 C 
ATOM      8  N   UNL     1       2.191   7.645  18.987  0.00  0.00    +0.000 N 
ATOM      9  C   UNL     1       2.073   8.829  18.263  0.00  0.00    +0.000 C 
ATOM     10  O   UNL     1       2.394   9.113  17.123  0.00  0.00    +0.000 OA
ENDROOT
BRANCH   1  18
ATOM     11  C   UNL     1      -2.564  12.656  20.629  0.00  0.00    +0.000 C 
ATOM     12  C   UNL     1      -1.701  13.513  19.699  0.00  0.00    +0.000 C 
ATOM     13  C   UNL     1      -1.568  14.908  20.391  0.00  0.00    +0.000 C 
ATOM     14  N   UNL     1      -0.794  15.899  19.615  0.00  0.00    +0.000 NA
ATOM     15  C   UNL     1      -0.680  17.146  20.367  0.00  0.00    +0.000 C 
ATOM     16  C   UNL     1       0.541  15.339  19.310  0.00  0.00    +0.000 C 
ATOM     17  C   UNL     1       0.447  13.990  18.565  0.00  0.00    +0.000 C 
ATOM     18  N   UNL     1      -0.328  13.010  19.356  0.00  0.00    +0.000 N 
ENDBRANCH   1  18
BRANCH   8  19
ATOM     19  C   UNL     1       2.826   6.459  18.543  0.00  0.00    +0.000 A 
ATOM     20  C   UNL     1       2.576   5.228  19.159  0.00  0.00    +0.000 A 
ATOM     21  C   UNL     1       3.154   4.053  18.684  0.00  0.00    +0.000 A 
ATOM     22  C   UNL     1       4.018   4.092  17.596  0.00  0.00    +0.000 A 
ATOM     23  C   UNL     1       4.328   5.313  16.979  0.00  0.00    +0.000 A 
ATOM     24  C   UNL     1       3.712   6.485  17.457  0.00  0.00    +0.000 A 
BRANCH  23  25
ATOM     25  C   UNL     1       5.334   5.404  15.828  0.00  0.00    +0.000 C 
ATOM     26  C   UNL     1       4.823   4.579  14.639  0.00  0.00    +0.000 C 
ATOM     27  F   UNL     1       5.427   6.689  15.342  0.00  0.00    +0.000 F 
BRANCH  25  28
ATOM     28  C   UNL     1       6.753   4.927  16.251  0.00  0.00    +0.000 C 
ATOM     29  F   UNL     1       6.845   3.571  16.063  0.00  0.00    +0.000 F 
ATOM     30  F   UNL     1       7.682   5.442  15.386  0.00  0.00    +0.000 F 
BRANCH  28  31
ATOM     31  C   UNL     1       7.131   5.288  17.653  0.00  0.00    +0.000 A 
ATOM     32  N   UNL     1       7.128   4.504  18.718  0.00  0.00    +0.000 NA
ATOM     33  N   UNL     1       7.518   5.244  19.806  0.00  0.00    +0.000 NA
ATOM     34  C   UNL     1       7.743   6.468  19.394  0.00  0.00    +0.000 A 
ATOM     35  N   UNL     1       7.513   6.545  18.055  0.00  0.00    +0.000 N 
ATOM     36  C   UNL     1       7.639   7.731  17.249  0.00  0.00    +0.000 C 
ENDBRANCH  28  31
ENDBRANCH  25  28
ENDBRANCH  23  25
ENDBRANCH   8  19
BRANCH   5  37
ATOM     37  C   UNL     1       0.213   9.365  22.709  0.00  0.00    +0.000 C 
ATOM     38  F   UNL     1      -0.497   8.204  22.727  0.00  0.00    +0.000 F 
ATOM     39  F   UNL     1       1.376   9.095  23.366  0.00  0.00    +0.000 F 
ATOM     40  F   UNL     1      -0.472  10.234  23.502  0.00  0.00    +0.000 F 
ENDBRANCH   5  37
TORSDOF 6
ENDMDL
MODEL 3
REMARK VINA RESULT:      -9.2      1.721      2.286
REMARK  Name = 
REMARK  10 active torsions:
REMARK  status: ('A' for Active; 'I' for Inactive)
REMARK    1  A    between atoms: C_1  and  C_2
REMARK    2  A    between atoms: N_4  and  C_5
REMARK    3  A    between atoms: N_8  and  C_9
REMARK    4  A    between atoms: C_13  and  C_14
REMARK    5  A    between atoms: N_20  and  C_21
REMARK    6  A    between atoms: C_25  and  C_26
REMARK    7  A    between atoms: C_26  and  C_27
REMARK    8  A    between atoms: C_26  and  C_29
REMARK    9  A    between atoms: C_29  and  C_32
REMARK   10  A    between atoms: N_36  and  C_37
REMARK                            x       y       z     vdW  Elec       q    Type
REMARK                         _______ _______ _______ _____ _____    ______ ____
ROOT
ATOM      1  C   UNL     1       0.965  11.467  19.595  0.00  0.00    +0.000 A 
ATOM      2  C   UNL     1       1.685  10.387  19.079  0.00  0.00    +0.000 A 
ATOM      3  C   UNL     1       1.622   9.161  19.710  0.00  0.00    +0.000 A 
ATOM      4  C   UNL     1       0.981   8.957  20.919  0.00  0.00    +0.000 A 
ATOM      5  C   UNL     1       0.388  10.031  21.560  0.00  0.00    +0.000 A 
ATOM      6  C   UNL     1       0.369  11.268  20.868  0.00  0.00    +0.000 A 
ATOM      7  C   UNL     1       1.074   7.512  21.286  0.00  0.00    +0.000 C 
ATOM      8  N   UNL     1       1.811   6.927  20.170  0.00  0.00    +0.000 N 
ATOM      9  C   UNL     1       2.148   7.890  19.221  0.00  0.00    +0.000 C 
ATOM     10  O   UNL     1       2.725   7.802  18.151  0.00  0.00    +0.000 OA
ENDROOT
BRANCH   1  18
ATOM     11  C   UNL     1      -1.744  12.504  18.628  0.00  0.00    +0.000 C 
ATOM     12  C   UNL     1      -0.427  13.224  18.325  0.00  0.00    +0.000 C 
ATOM     13  C   UNL     1      -0.598  14.685  18.856  0.00  0.00    +0.000 C 
ATOM     14  N   UNL     1       0.569  15.557  18.614  0.00  0.00    +0.000 NA
ATOM     15  C   UNL     1       0.336  16.878  19.193  0.00  0.00    +0.000 C 
ATOM     16  C   UNL     1       1.774  14.928  19.197  0.00  0.00    +0.000 C 
ATOM     17  C   UNL     1       2.011  13.505  18.643  0.00  0.00    +0.000 C 
ATOM     18  N   UNL     1       0.835  12.645  18.895  0.00  0.00    +0.000 N 
ENDBRANCH   1  18
BRANCH   8  19
ATOM     19  C   UNL     1       2.163   5.556  20.123  0.00  0.00    +0.000 A 
ATOM     20  C   UNL     1       2.017   4.732  21.245  0.00  0.00    +0.000 A 
ATOM     21  C   UNL     1       2.306   3.371  21.182  0.00  0.00    +0.000 A 
ATOM     22  C   UNL     1       2.774   2.812  19.998  0.00  0.00    +0.000 A 
ATOM     23  C   UNL     1       2.974   3.614  18.865  0.00  0.00    +0.000 A 
ATOM     24  C   UNL     1       2.650   4.981  18.941  0.00  0.00    +0.000 A 
BRANCH  23  25
ATOM     25  C   UNL     1       3.559   3.048  17.568  0.00  0.00    +0.000 C 
ATOM     26  C   UNL     1       4.106   1.638  17.828  0.00  0.00    +0.000 C 
ATOM     27  F   UNL     1       2.584   2.869  16.612  0.00  0.00    +0.000 F 
BRANCH  25  28
ATOM     28  C   UNL     1       4.672   3.962  16.979  0.00  0.00    +0.000 C 
ATOM     29  F   UNL     1       5.355   3.270  16.011  0.00  0.00    +0.000 F 
ATOM     30  F   UNL     1       4.095   5.000  16.297  0.00  0.00    +0.000 F 
BRANCH  28  31
ATOM     31  C   UNL     1       5.622   4.509  17.998  0.00  0.00    +0.000 A 
ATOM     32  N   UNL     1       5.738   4.154  19.266  0.00  0.00    +0.000 NA
ATOM     33  N   UNL     1       6.713   4.927  19.848  0.00  0.00    +0.000 NA
ATOM     34  C   UNL     1       7.168   5.747  18.934  0.00  0.00    +0.000 A 
ATOM     35  N   UNL     1       6.515   5.525  17.760  0.00  0.00    +0.000 N 
ATOM     36  C   UNL     1       6.731   6.244  16.531  0.00  0.00    +0.000 C 
ENDBRANCH  28  31
ENDBRANCH  25  28
ENDBRANCH  23  25
ENDBRANCH   8  19
BRANCH   5  37
ATOM     37  C   UNL     1      -0.226   9.921  22.930  0.00  0.00    +0.000 C 
ATOM     38  F   UNL     1      -0.800  11.075  23.367  0.00  0.00    +0.000 F 
ATOM     39  F   UNL     1      -1.210   8.980  22.977  0.00  0.00    +0.000 F 
ATOM     40  F   UNL     1       0.676   9.567  23.886  0.00  0.00    +0.000 F 
ENDBRANCH   5  37
TORSDOF 6
ENDMDL
MODEL 4
REMARK VINA RESULT:      -9.2      1.758      2.499
REMARK  Name = 
REMARK  10 active torsions:
REMARK  status: ('A' for Active; 'I' for Inactive)
REMARK    1  A    between atoms: C_1  and  C_2
REMARK    2  A    between atoms: N_4  and  C_5
REMARK    3  A    between atoms: N_8  and  C_9
REMARK    4  A    between atoms: C_13  and  C_14
REMARK    5  A    between atoms: N_20  and  C_21
REMARK    6  A    between atoms: C_25  and  C_26
REMARK    7  A    between atoms: C_26  and  C_27
REMARK    8  A    between atoms: C_26  and  C_29
REMARK    9  A    between atoms: C_29  and  C_32
REMARK   10  A    between atoms: N_36  and  C_37
REMARK                            x       y       z     vdW  Elec       q    Type
REMARK                         _______ _______ _______ _____ _____    ______ ____
ROOT
ATOM      1  C   UNL     1      -0.262  12.100  20.009  0.00  0.00    +0.000 A 
ATOM      2  C   UNL     1       0.594  11.441  19.122  0.00  0.00    +0.000 A 
ATOM      3  C   UNL     1       1.015  10.158  19.406  0.00  0.00    +0.000 A 
ATOM      4  C   UNL     1       0.743   9.512  20.598  0.00  0.00    +0.000 A 
ATOM      5  C   UNL     1       0.036  10.179  21.584  0.00  0.00    +0.000 A 
ATOM      6  C   UNL     1      -0.479  11.459  21.257  0.00  0.00    +0.000 A 
ATOM      7  C   UNL     1       1.311   8.131  20.549  0.00  0.00    +0.000 C 
ATOM      8  N   UNL     1       1.912   8.061  19.220  0.00  0.00    +0.000 N 
ATOM      9  C   UNL     1       1.748   9.256  18.523  0.00  0.00    +0.000 C 
ATOM     10  O   UNL     1       2.072   9.582  17.395  0.00  0.00    +0.000 OA
ENDROOT
BRANCH   1  18
ATOM     11  C   UNL     1      -3.071  12.834  20.968  0.00  0.00    +0.000 C 
ATOM     12  C   UNL     1      -2.253  13.735  20.039  0.00  0.00    +0.000 C 
ATOM     13  C   UNL     1      -2.168  15.126  20.747  0.00  0.00    +0.000 C 
ATOM     14  N   UNL     1      -1.443  16.155  19.974  0.00  0.00    +0.000 NA
ATOM     15  C   UNL     1      -1.370  17.398  20.739  0.00  0.00    +0.000 C 
ATOM     16  C   UNL     1      -0.090  15.653  19.648  0.00  0.00    +0.000 C 
ATOM     17  C   UNL     1      -0.139  14.309  18.888  0.00  0.00    +0.000 C 
ATOM     18  N   UNL     1      -0.865  13.291  19.676  0.00  0.00    +0.000 N 
ENDBRANCH   1  18
BRANCH   8  19
ATOM     19  C   UNL     1       2.608   6.918  18.759  0.00  0.00    +0.000 A 
ATOM     20  C   UNL     1       2.297   5.638  19.231  0.00  0.00    +0.000 A 
ATOM     21  C   UNL     1       2.941   4.508  18.732  0.00  0.00    +0.000 A 
ATOM     22  C   UNL     1       3.933   4.640  17.768  0.00  0.00    +0.000 A 
ATOM     23  C   UNL     1       4.304   5.910  17.300  0.00  0.00    +0.000 A 
ATOM     24  C   UNL     1       3.622   7.036  17.797  0.00  0.00    +0.000 A 
BRANCH  23  25
ATOM     25  C   UNL     1       5.443   6.099  16.295  0.00  0.00    +0.000 C 
ATOM     26  C   UNL     1       4.977   7.028  15.166  0.00  0.00    +0.000 C 
ATOM     27  F   UNL     1       6.512   6.756  16.864  0.00  0.00    +0.000 F 
BRANCH  25  28
ATOM     28  C   UNL     1       5.943   4.746  15.713  0.00  0.00    +0.000 C 
ATOM     29  F   UNL     1       6.603   4.052  16.696  0.00  0.00    +0.000 F 
ATOM     30  F   UNL     1       4.867   3.953  15.416  0.00  0.00    +0.000 F 
BRANCH  28  31
ATOM     31  C   UNL     1       6.807   4.881  14.498  0.00  0.00    +0.000 A 
ATOM     32  N   UNL     1       7.925   5.574  14.375  0.00  0.00    +0.000 NA
ATOM     33  N   UNL     1       8.379   5.446  13.086  0.00  0.00    +0.000 NA
ATOM     34  C   UNL     1       7.529   4.688  12.439  0.00  0.00    +0.000 A 
ATOM     35  N   UNL     1       6.527   4.311  13.280  0.00  0.00    +0.000 N 
ATOM     36  C   UNL     1       5.400   3.488  12.926  0.00  0.00    +0.000 C 
ENDBRANCH  28  31
ENDBRANCH  25  28
ENDBRANCH  23  25
ENDBRANCH   8  19
BRANCH   5  37
ATOM     37  C   UNL     1      -0.201   9.594  22.950  0.00  0.00    +0.000 C 
ATOM     38  F   UNL     1      -0.944  10.392  23.765  0.00  0.00    +0.000 F 
ATOM     39  F   UNL     1      -0.866   8.407  22.892  0.00  0.00    +0.000 F 
ATOM     40  F   UNL     1       0.954   9.345  23.625  0.00  0.00    +0.000 F 
ENDBRANCH   5  37
TORSDOF 6
ENDMDL
MODEL 5
REMARK VINA RESULT:      -9.2      3.630      5.247
REMARK  Name = 
REMARK  10 active torsions:
REMARK  status: ('A' for Active; 'I' for Inactive)
REMARK    1  A    between atoms: C_1  and  C_2
REMARK    2  A    between atoms: N_4  and  C_5
REMARK    3  A    between atoms: N_8  and  C_9
REMARK    4  A    between atoms: C_13  and  C_14
REMARK    5  A    between atoms: N_20  and  C_21
REMARK    6  A    between atoms: C_25  and  C_26
REMARK    7  A    between atoms: C_26  and  C_27
REMARK    8  A    between atoms: C_26  and  C_29
REMARK    9  A    between atoms: C_29  and  C_32
REMARK   10  A    between atoms: N_36  and  C_37
REMARK                            x       y       z     vdW  Elec       q    Type
REMARK                         _______ _______ _______ _____ _____    ______ ____
ROOT
ATOM      1  C   UNL     1      -2.256  13.108  21.497  0.00  0.00    +0.000 A 
ATOM      2  C   UNL     1      -1.138  12.289  21.675  0.00  0.00    +0.000 A 
ATOM      3  C   UNL     1      -0.771  11.408  20.678  0.00  0.00    +0.000 A 
ATOM      4  C   UNL     1      -1.526  11.185  19.541  0.00  0.00    +0.000 A 
ATOM      5  C   UNL     1      -2.730  11.850  19.386  0.00  0.00    +0.000 A 
ATOM      6  C   UNL     1      -3.061  12.825  20.362  0.00  0.00    +0.000 A 
ATOM      7  C   UNL     1      -0.815  10.207  18.663  0.00  0.00    +0.000 C 
ATOM      8  N   UNL     1       0.407   9.915  19.406  0.00  0.00    +0.000 N 
ATOM      9  C   UNL     1       0.454  10.617  20.609  0.00  0.00    +0.000 C 
ATOM     10  O   UNL     1       1.304  10.670  21.480  0.00  0.00    +0.000 OA
ENDROOT
BRANCH   1  18
ATOM     11  C   UNL     1      -4.328  12.833  23.728  0.00  0.00    +0.000 C 
ATOM     12  C   UNL     1      -3.571  14.136  23.459  0.00  0.00    +0.000 C 
ATOM     13  C   UNL     1      -2.878  14.523  24.806  0.00  0.00    +0.000 C 
ATOM     14  N   UNL     1      -2.124  15.792  24.755  0.00  0.00    +0.000 NA
ATOM     15  C   UNL     1      -1.469  16.038  26.039  0.00  0.00    +0.000 C 
ATOM     16  C   UNL     1      -1.133  15.725  23.660  0.00  0.00    +0.000 C 
ATOM     17  C   UNL     1      -1.793  15.409  22.300  0.00  0.00    +0.000 C 
ATOM     18  N   UNL     1      -2.541  14.136  22.366  0.00  0.00    +0.000 N 
ENDBRANCH   1  18
BRANCH   8  19
ATOM     19  C   UNL     1       1.374   8.987  18.948  0.00  0.00    +0.000 A 
ATOM     20  C   UNL     1       2.224   9.293  17.880  0.00  0.00    +0.000 A 
ATOM     21  C   UNL     1       3.215   8.403  17.468  0.00  0.00    +0.000 A 
ATOM     22  C   UNL     1       3.355   7.175  18.103  0.00  0.00    +0.000 A 
ATOM     23  C   UNL     1       2.493   6.814  19.149  0.00  0.00    +0.000 A 
ATOM     24  C   UNL     1       1.517   7.737  19.568  0.00  0.00    +0.000 A 
BRANCH  23  25
ATOM     25  C   UNL     1       2.569   5.439  19.820  0.00  0.00    +0.000 C 
ATOM     26  C   UNL     1       4.038   5.016  19.950  0.00  0.00    +0.000 C 
ATOM     27  F   UNL     1       2.108   5.486  21.117  0.00  0.00    +0.000 F 
BRANCH  25  28
ATOM     28  C   UNL     1       1.760   4.361  19.043  0.00  0.00    +0.000 C 
ATOM     29  F   UNL     1       0.614   4.072  19.739  0.00  0.00    +0.000 F 
ATOM     30  F   UNL     1       1.304   4.895  17.866  0.00  0.00    +0.000 F 
BRANCH  28  31
ATOM     31  C   UNL     1       2.526   3.109  18.752  0.00  0.00    +0.000 A 
ATOM     32  N   UNL     1       2.539   1.989  19.454  0.00  0.00    +0.000 NA
ATOM     33  N   UNL     1       3.395   1.104  18.848  0.00  0.00    +0.000 NA
ATOM     34  C   UNL     1       3.899   1.697  17.794  0.00  0.00    +0.000 A 
ATOM     35  N   UNL     1       3.387   2.953  17.693  0.00  0.00    +0.000 N 
ATOM     36  C   UNL     1       3.716   3.914  16.672  0.00  0.00    +0.000 C 
ENDBRANCH  28  31
ENDBRANCH  25  28
ENDBRANCH  23  25
ENDBRANCH   8  19
BRANCH   5  37
ATOM     37  C   UNL     1      -3.666  11.580  18.240  0.00  0.00    +0.000 C 
ATOM     38  F   UNL     1      -4.069  10.282  18.156  0.00  0.00    +0.000 F 
ATOM     39  F   UNL     1      -4.810  12.315  18.326  0.00  0.00    +0.000 F 
ATOM     40  F   UNL     1      -3.119  11.879  17.030  0.00  0.00    +0.000 F 
ENDBRANCH   5  37
TORSDOF 6
ENDMDL
MODEL 6
REMARK VINA RESULT:      -9.1      3.662      5.363
REMARK  Name = 
REMARK  10 active torsions:
REMARK  status: ('A' for Active; 'I' for Inactive)
REMARK    1  A    between atoms: C_1  and  C_2
REMARK    2  A    between atoms: N_4  and  C_5
REMARK    3  A    between atoms: N_8  and  C_9
REMARK    4  A    between atoms: C_13  and  C_14
REMARK    5  A    between atoms: N_20  and  C_21
REMARK    6  A    between atoms: C_25  and  C_26
REMARK    7  A    between atoms: C_26  and  C_27
REMARK    8  A    between atoms: C_26  and  C_29
REMARK    9  A    between atoms: C_29  and  C_32
REMARK   10  A    between atoms: N_36  and  C_37
REMARK                            x       y       z     vdW  Elec       q    Type
REMARK                         _______ _______ _______ _____ _____    ______ ____
ROOT
ATOM      1  C   UNL     1      -2.506  13.128  21.327  0.00  0.00    +0.000 A 
ATOM      2  C   UNL     1      -1.355  12.357  21.509  0.00  0.00    +0.000 A 
ATOM      3  C   UNL     1      -0.949  11.492  20.514  0.00  0.00    +0.000 A 
ATOM      4  C   UNL     1      -1.691  11.236  19.375  0.00  0.00    +0.000 A 
ATOM      5  C   UNL     1      -2.922  11.850  19.216  0.00  0.00    +0.000 A 
ATOM      6  C   UNL     1      -3.295  12.811  20.190  0.00  0.00    +0.000 A 
ATOM      7  C   UNL     1      -0.936  10.289  18.500  0.00  0.00    +0.000 C 
ATOM      8  N   UNL     1       0.295  10.049  19.246  0.00  0.00    +0.000 N 
ATOM      9  C   UNL     1       0.308  10.753  20.448  0.00  0.00    +0.000 C 
ATOM     10  O   UNL     1       1.153  10.843  21.321  0.00  0.00    +0.000 OA
ENDROOT
BRANCH   1  18
ATOM     11  C   UNL     1      -1.799  16.051  20.771  0.00  0.00    +0.000 C 
ATOM     12  C   UNL     1      -2.497  15.599  22.057  0.00  0.00    +0.000 C 
ATOM     13  C   UNL     1      -3.813  16.437  22.154  0.00  0.00    +0.000 C 
ATOM     14  N   UNL     1      -4.613  16.168  23.367  0.00  0.00    +0.000 NA
ATOM     15  C   UNL     1      -5.845  16.954  23.339  0.00  0.00    +0.000 C 
ATOM     16  C   UNL     1      -4.909  14.721  23.442  0.00  0.00    +0.000 C 
ATOM     17  C   UNL     1      -3.624  13.865  23.415  0.00  0.00    +0.000 C 
ATOM     18  N   UNL     1      -2.837  14.144  22.195  0.00  0.00    +0.000 N 
ENDBRANCH   1  18
BRANCH   8  19
ATOM     19  C   UNL     1       1.300   9.162  18.792  0.00  0.00    +0.000 A 
ATOM     20  C   UNL     1       2.123   9.491  17.708  0.00  0.00    +0.000 A 
ATOM     21  C   UNL     1       3.151   8.645  17.299  0.00  0.00    +0.000 A 
ATOM     22  C   UNL     1       3.359   7.435  17.952  0.00  0.00    +0.000 A 
ATOM     23  C   UNL     1       2.528   7.050  19.014  0.00  0.00    +0.000 A 
ATOM     24  C   UNL     1       1.513   7.931  19.429  0.00  0.00    +0.000 A 
BRANCH  23  25
ATOM     25  C   UNL     1       2.680   5.693  19.706  0.00  0.00    +0.000 C 
ATOM     26  C   UNL     1       4.162   5.296  19.731  0.00  0.00    +0.000 C 
ATOM     27  F   UNL     1       2.319   5.761  21.034  0.00  0.00    +0.000 F 
BRANCH  25  28
ATOM     28  C   UNL     1       1.832   4.585  19.017  0.00  0.00    +0.000 C 
ATOM     29  F   UNL     1       0.708   4.349  19.767  0.00  0.00    +0.000 F 
ATOM     30  F   UNL     1       1.343   5.059  17.829  0.00  0.00    +0.000 F 
BRANCH  28  31
ATOM     31  C   UNL     1       2.573   3.308  18.770  0.00  0.00    +0.000 A 
ATOM     32  N   UNL     1       3.037   2.853  17.618  0.00  0.00    +0.000 NA
ATOM     33  N   UNL     1       3.628   1.634  17.837  0.00  0.00    +0.000 NA
ATOM     34  C   UNL     1       3.508   1.357  19.112  0.00  0.00    +0.000 A 
ATOM     35  N   UNL     1       2.854   2.374  19.737  0.00  0.00    +0.000 N 
ATOM     36  C   UNL     1       2.522   2.422  21.137  0.00  0.00    +0.000 C 
ENDBRANCH  28  31
ENDBRANCH  25  28
ENDBRANCH  23  25
ENDBRANCH   8  19
BRANCH   5  37
ATOM     37  C   UNL     1      -3.842  11.539  18.067  0.00  0.00    +0.000 C 
ATOM     38  F   UNL     1      -3.279  11.740  16.845  0.00  0.00    +0.000 F 
ATOM     39  F   UNL     1      -4.252  10.241  18.075  0.00  0.00    +0.000 F 
ATOM     40  F   UNL     1      -4.977  12.290  18.083  0.00  0.00    +0.000 F 
ENDBRANCH   5  37
TORSDOF 6
ENDMDL
MODEL 7
REMARK VINA RESULT:      -9.0      1.500      2.588
REMARK  Name = 
REMARK  10 active torsions:
REMARK  status: ('A' for Active; 'I' for Inactive)
REMARK    1  A    between atoms: C_1  and  C_2
REMARK    2  A    between atoms: N_4  and  C_5
REMARK    3  A    between atoms: N_8  and  C_9
REMARK    4  A    between atoms: C_13  and  C_14
REMARK    5  A    between atoms: N_20  and  C_21
REMARK    6  A    between atoms: C_25  and  C_26
REMARK    7  A    between atoms: C_26  and  C_27
REMARK    8  A    between atoms: C_26  and  C_29
REMARK    9  A    between atoms: C_29  and  C_32
REMARK   10  A    between atoms: N_36  and  C_37
REMARK                            x       y       z     vdW  Elec       q    Type
REMARK                         _______ _______ _______ _____ _____    ______ ____
ROOT
ATOM      1  C   UNL     1       0.240  11.737  19.719  0.00  0.00    +0.000 A 
ATOM      2  C   UNL     1       1.082  10.954  18.925  0.00  0.00    +0.000 A 
ATOM      3  C   UNL     1       1.384   9.665  19.315  0.00  0.00    +0.000 A 
ATOM      4  C   UNL     1       1.004   9.127  20.531  0.00  0.00    +0.000 A 
ATOM      5  C   UNL     1       0.305   9.913  21.431  0.00  0.00    +0.000 A 
ATOM      6  C   UNL     1      -0.089  11.203  20.993  0.00  0.00    +0.000 A 
ATOM      7  C   UNL     1       1.461   7.706  20.603  0.00  0.00    +0.000 C 
ATOM      8  N   UNL     1       2.119   7.498  19.317  0.00  0.00    +0.000 N 
ATOM      9  C   UNL     1       2.086   8.651  18.535  0.00  0.00    +0.000 C 
ATOM     10  O   UNL     1       2.489   8.872  17.407  0.00  0.00    +0.000 OA
ENDROOT
BRANCH   1  18
ATOM     11  C   UNL     1      -2.553  12.739  20.459  0.00  0.00    +0.000 C 
ATOM     12  C   UNL     1      -1.617  13.513  19.527  0.00  0.00    +0.000 C 
ATOM     13  C   UNL     1      -1.464  14.939  20.150  0.00  0.00    +0.000 C 
ATOM     14  N   UNL     1      -0.618  15.857  19.359  0.00  0.00    +0.000 NA
ATOM     15  C   UNL     1      -0.491  17.139  20.049  0.00  0.00    +0.000 C 
ATOM     16  C   UNL     1       0.707  15.235  19.148  0.00  0.00    +0.000 C 
ATOM     17  C   UNL     1       0.597  13.851  18.472  0.00  0.00    +0.000 C 
ATOM     18  N   UNL     1      -0.250  12.944  19.276  0.00  0.00    +0.000 N 
ENDBRANCH   1  18
BRANCH   8  19
ATOM     19  C   UNL     1       2.744   6.276  18.970  0.00  0.00    +0.000 A 
ATOM     20  C   UNL     1       2.249   5.051  19.432  0.00  0.00    +0.000 A 
ATOM     21  C   UNL     1       2.828   3.845  19.042  0.00  0.00    +0.000 A 
ATOM     22  C   UNL     1       3.934   3.844  18.200  0.00  0.00    +0.000 A 
ATOM     23  C   UNL     1       4.485   5.053  17.750  0.00  0.00    +0.000 A 
ATOM     24  C   UNL     1       3.869   6.258  18.134  0.00  0.00    +0.000 A 
BRANCH  23  25
ATOM     25  C   UNL     1       5.747   5.092  16.884  0.00  0.00    +0.000 C 
ATOM     26  C   UNL     1       6.634   6.263  17.328  0.00  0.00    +0.000 C 
ATOM     27  F   UNL     1       6.527   3.974  17.081  0.00  0.00    +0.000 F 
BRANCH  25  28
ATOM     28  C   UNL     1       5.416   5.206  15.368  0.00  0.00    +0.000 C 
ATOM     29  F   UNL     1       4.506   4.236  15.034  0.00  0.00    +0.000 F 
ATOM     30  F   UNL     1       4.748   6.379  15.136  0.00  0.00    +0.000 F 
BRANCH  28  31
ATOM     31  C   UNL     1       6.611   5.134  14.470  0.00  0.00    +0.000 A 
ATOM     32  N   UNL     1       7.784   5.720  14.639  0.00  0.00    +0.000 NA
ATOM     33  N   UNL     1       8.585   5.410  13.567  0.00  0.00    +0.000 NA
ATOM     34  C   UNL     1       7.888   4.652  12.757  0.00  0.00    +0.000 A 
ATOM     35  N   UNL     1       6.647   4.452  13.278  0.00  0.00    +0.000 N 
ATOM     36  C   UNL     1       5.594   3.684  12.667  0.00  0.00    +0.000 C 
ENDBRANCH  28  31
ENDBRANCH  25  28
ENDBRANCH  23  25
ENDBRANCH   8  19
BRANCH   5  37
ATOM     37  C   UNL     1      -0.044   9.445  22.818  0.00  0.00    +0.000 C 
ATOM     38  F   UNL     1      -0.774   8.296  22.840  0.00  0.00    +0.000 F 
ATOM     39  F   UNL     1       1.064   9.192  23.569  0.00  0.00    +0.000 F 
ATOM     40  F   UNL     1      -0.769  10.361  23.517  0.00  0.00    +0.000 F 
ENDBRANCH   5  37
TORSDOF 6
ENDMDL
MODEL 8
REMARK VINA RESULT:      -9.0      3.103      4.171
REMARK  Name = 
REMARK  10 active torsions:
REMARK  status: ('A' for Active; 'I' for Inactive)
REMARK    1  A    between atoms: C_1  and  C_2
REMARK    2  A    between atoms: N_4  and  C_5
REMARK    3  A    between atoms: N_8  and  C_9
REMARK    4  A    between atoms: C_13  and  C_14
REMARK    5  A    between atoms: N_20  and  C_21
REMARK    6  A    between atoms: C_25  and  C_26
REMARK    7  A    between atoms: C_26  and  C_27
REMARK    8  A    between atoms: C_26  and  C_29
REMARK    9  A    between atoms: C_29  and  C_32
REMARK   10  A    between atoms: N_36  and  C_37
REMARK                            x       y       z     vdW  Elec       q    Type
REMARK                         _______ _______ _______ _____ _____    ______ ____
ROOT
ATOM      1  C   UNL     1      -1.569  11.801  21.658  0.00  0.00    +0.000 A 
ATOM      2  C   UNL     1      -0.585  10.811  21.732  0.00  0.00    +0.000 A 
ATOM      3  C   UNL     1      -0.115  10.229  20.573  0.00  0.00    +0.000 A 
ATOM      4  C   UNL     1      -0.654  10.472  19.323  0.00  0.00    +0.000 A 
ATOM      5  C   UNL     1      -1.742  11.321  19.208  0.00  0.00    +0.000 A 
ATOM      6  C   UNL     1      -2.164  11.994  20.383  0.00  0.00    +0.000 A 
ATOM      7  C   UNL     1       0.121   9.711  18.297  0.00  0.00    +0.000 C 
ATOM      8  N   UNL     1       1.146   9.033  19.084  0.00  0.00    +0.000 N 
ATOM      9  C   UNL     1       1.025   9.326  20.441  0.00  0.00    +0.000 C 
ATOM     10  O   UNL     1       1.694   8.989  21.402  0.00  0.00    +0.000 OA
ENDROOT
BRANCH   1  18
ATOM     11  C   UNL     1      -0.071  14.344  22.456  0.00  0.00    +0.000 C 
ATOM     12  C   UNL     1      -1.232  13.777  23.277  0.00  0.00    +0.000 C 
ATOM     13  C   UNL     1      -2.280  14.929  23.403  0.00  0.00    +0.000 C 
ATOM     14  N   UNL     1      -3.469  14.581  24.207  0.00  0.00    +0.000 NA
ATOM     15  C   UNL     1      -4.411  15.699  24.219  0.00  0.00    +0.000 C 
ATOM     16  C   UNL     1      -4.096  13.366  23.645  0.00  0.00    +0.000 C 
ATOM     17  C   UNL     1      -3.104  12.185  23.568  0.00  0.00    +0.000 C 
ATOM     18  N   UNL     1      -1.922  12.548  22.758  0.00  0.00    +0.000 N 
ENDBRANCH   1  18
BRANCH   8  19
ATOM     19  C   UNL     1       2.095   8.156  18.505  0.00  0.00    +0.000 A 
ATOM     20  C   UNL     1       3.043   8.617  17.584  0.00  0.00    +0.000 A 
ATOM     21  C   UNL     1       4.014   7.766  17.061  0.00  0.00    +0.000 A 
ATOM     22  C   UNL     1       4.038   6.426  17.429  0.00  0.00    +0.000 A 
ATOM     23  C   UNL     1       3.078   5.916  18.317  0.00  0.00    +0.000 A 
ATOM     24  C   UNL     1       2.122   6.798  18.855  0.00  0.00    +0.000 A 
BRANCH  23  25
ATOM     25  C   UNL     1       3.027   4.431  18.685  0.00  0.00    +0.000 C 
ATOM     26  C   UNL     1       2.791   4.289  20.195  0.00  0.00    +0.000 C 
ATOM     27  F   UNL     1       1.946   3.805  18.106  0.00  0.00    +0.000 F 
BRANCH  25  28
ATOM     28  C   UNL     1       4.322   3.678  18.265  0.00  0.00    +0.000 C 
ATOM     29  F   UNL     1       4.286   2.405  18.775  0.00  0.00    +0.000 F 
ATOM     30  F   UNL     1       4.320   3.490  16.909  0.00  0.00    +0.000 F 
BRANCH  28  31
ATOM     31  C   UNL     1       5.591   4.365  18.665  0.00  0.00    +0.000 A 
ATOM     32  N   UNL     1       5.907   4.848  19.854  0.00  0.00    +0.000 NA
ATOM     33  N   UNL     1       7.153   5.419  19.775  0.00  0.00    +0.000 NA
ATOM     34  C   UNL     1       7.573   5.288  18.541  0.00  0.00    +0.000 A 
ATOM     35  N   UNL     1       6.630   4.636  17.808  0.00  0.00    +0.000 N 
ATOM     36  C   UNL     1       6.726   4.321  16.407  0.00  0.00    +0.000 C 
ENDBRANCH  28  31
ENDBRANCH  25  28
ENDBRANCH  23  25
ENDBRANCH   8  19
BRANCH   5  37
ATOM     37  C   UNL     1      -2.461  11.548  17.906  0.00  0.00    +0.000 C 
ATOM     38  F   UNL     1      -3.609  12.268  18.034  0.00  0.00    +0.000 F 
ATOM     39  F   UNL     1      -1.697  12.232  17.010  0.00  0.00    +0.000 F 
ATOM     40  F   UNL     1      -2.815  10.388  17.289  0.00  0.00    +0.000 F 
ENDBRANCH   5  37
TORSDOF 6
ENDMDL
MODEL 9
REMARK VINA RESULT:      -8.9      2.821      9.332
REMARK  Name = 
REMARK  10 active torsions:
REMARK  status: ('A' for Active; 'I' for Inactive)
REMARK    1  A    between atoms: C_1  and  C_2
REMARK    2  A    between atoms: N_4  and  C_5
REMARK    3  A    between atoms: N_8  and  C_9
REMARK    4  A    between atoms: C_13  and  C_14
REMARK    5  A    between atoms: N_20  and  C_21
REMARK    6  A    between atoms: C_25  and  C_26
REMARK    7  A    between atoms: C_26  and  C_27
REMARK    8  A    between atoms: C_26  and  C_29
REMARK    9  A    between atoms: C_29  and  C_32
REMARK   10  A    between atoms: N_36  and  C_37
REMARK                            x       y       z     vdW  Elec       q    Type
REMARK                         _______ _______ _______ _____ _____    ______ ____
ROOT
ATOM      1  C   UNL     1       4.261   5.000  18.368  0.00  0.00    +0.000 A 
ATOM      2  C   UNL     1       3.677   6.263  18.239  0.00  0.00    +0.000 A 
ATOM      3  C   UNL     1       2.750   6.684  19.171  0.00  0.00    +0.000 A 
ATOM      4  C   UNL     1       2.254   5.872  20.174  0.00  0.00    +0.000 A 
ATOM      5  C   UNL     1       2.675   4.556  20.251  0.00  0.00    +0.000 A 
ATOM      6  C   UNL     1       3.698   4.150  19.356  0.00  0.00    +0.000 A 
ATOM      7  C   UNL     1       1.307   6.660  21.020  0.00  0.00    +0.000 C 
ATOM      8  N   UNL     1       1.329   7.984  20.406  0.00  0.00    +0.000 N 
ATOM      9  C   UNL     1       2.180   8.021  19.304  0.00  0.00    +0.000 C 
ATOM     10  O   UNL     1       2.493   8.931  18.556  0.00  0.00    +0.000 OA
ENDROOT
BRANCH   1  18
ATOM     11  C   UNL     1       4.055   2.757  16.299  0.00  0.00    +0.000 C 
ATOM     12  C   UNL     1       5.363   3.501  16.585  0.00  0.00    +0.000 C 
ATOM     13  C   UNL     1       5.848   4.071  15.212  0.00  0.00    +0.000 C 
ATOM     14  N   UNL     1       7.134   4.795  15.278  0.00  0.00    +0.000 NA
ATOM     15  C   UNL     1       7.473   5.335  13.963  0.00  0.00    +0.000 C 
ATOM     16  C   UNL     1       7.032   5.874  16.284  0.00  0.00    +0.000 C 
ATOM     17  C   UNL     1       6.618   5.336  17.671  0.00  0.00    +0.000 C 
ATOM     18  N   UNL     1       5.329   4.618  17.588  0.00  0.00    +0.000 N 
ENDBRANCH   1  18
BRANCH   8  19
ATOM     19  C   UNL     1       0.530   9.055  20.875  0.00  0.00    +0.000 A 
ATOM     20  C   UNL     1       0.130   9.129  22.214  0.00  0.00    +0.000 A 
ATOM     21  C   UNL     1      -0.605  10.213  22.688  0.00  0.00    +0.000 A 
ATOM     22  C   UNL     1      -0.980  11.234  21.822  0.00  0.00    +0.000 A 
ATOM     23  C   UNL     1      -0.635  11.173  20.464  0.00  0.00    +0.000 A 
ATOM     24  C   UNL     1       0.131  10.084  20.010  0.00  0.00    +0.000 A 
BRANCH  23  25
ATOM     25  C   UNL     1      -1.095  12.240  19.466  0.00  0.00    +0.000 C 
ATOM     26  C   UNL     1      -1.596  11.558  18.186  0.00  0.00    +0.000 C 
ATOM     27  F   UNL     1      -2.188  12.933  19.938  0.00  0.00    +0.000 F 
BRANCH  25  28
ATOM     28  C   UNL     1       0.034  13.258  19.133  0.00  0.00    +0.000 C 
ATOM     29  F   UNL     1       0.983  12.638  18.361  0.00  0.00    +0.000 F 
ATOM     30  F   UNL     1      -0.464  14.240  18.319  0.00  0.00    +0.000 F 
BRANCH  28  31
ATOM     31  C   UNL     1       0.667  13.888  20.334  0.00  0.00    +0.000 A 
ATOM     32  N   UNL     1       1.753  13.492  20.976  0.00  0.00    +0.000 NA
ATOM     33  N   UNL     1       1.967  14.338  22.035  0.00  0.00    +0.000 NA
ATOM     34  C   UNL     1       1.005  15.229  22.033  0.00  0.00    +0.000 A 
ATOM     35  N   UNL     1       0.167  14.988  20.988  0.00  0.00    +0.000 N 
ATOM     36  C   UNL     1      -1.014  15.746  20.669  0.00  0.00    +0.000 C 
ENDBRANCH  28  31
ENDBRANCH  25  28
ENDBRANCH  23  25
ENDBRANCH   8  19
BRANCH   5  37
ATOM     37  C   UNL     1       2.100   3.574  21.237  0.00  0.00    +0.000 C 
ATOM     38  F   UNL     1       0.751   3.423  21.134  0.00  0.00    +0.000 F 
ATOM     39  F   UNL     1       2.622   2.326  21.083  0.00  0.00    +0.000 F 
ATOM     40  F   UNL     1       2.339   3.924  22.530  0.00  0.00    +0.000 F 
ENDBRANCH   5  37
TORSDOF 6
ENDMDL
