MODEL 1
REMARK VINA RESULT:      -8.0      0.000      0.000
REMARK  Name = 
REMARK  8 active torsions:
REMARK  status: ('A' for Active; 'I' for Inactive)
REMARK    1  A    between atoms: C_1  and  C_2
REMARK    2  A    between atoms: C_2  and  S_3
REMARK    3  A    between atoms: C_2  and  C_10
REMARK    4  A    between atoms: S_3  and  C_4
REMARK    5  A    between atoms: N_8  and  C_9
REMARK    6  A    between atoms: C_14  and  N_15
REMARK    7  A    between atoms: C_16  and  C_18
REMARK    8  A    between atoms: C_20  and  C_21
REMARK                            x       y       z     vdW  Elec       q    Type
REMARK                         _______ _______ _______ _____ _____    ______ ____
ROOT
ATOM      1  N   UNL     1       1.196   9.086  19.388  0.00  0.00    +0.000 N 
ATOM      2  C   UNL     1       1.947   9.008  18.229  0.00  0.00    +0.000 C 
ATOM      3  O   UNL     1       2.105   9.897  17.400  0.00  0.00    +0.000 OA
ATOM      4  H   UNL     1       1.267   8.286  20.012  0.00  0.00    +0.000 HD
ENDROOT
BRANCH   1   9
ATOM      5  C   UNL     1      -1.730  11.391  19.673  0.00  0.00    +0.000 A 
ATOM      6  C   UNL     1      -1.220  12.333  20.580  0.00  0.00    +0.000 A 
ATOM      7  C   UNL     1       0.082  12.230  21.061  0.00  0.00    +0.000 A 
ATOM      8  C   UNL     1       0.889  11.169  20.666  0.00  0.00    +0.000 A 
ATOM      9  C   UNL     1       0.415  10.192  19.791  0.00  0.00    +0.000 A 
ATOM     10  C   UNL     1      -0.887  10.321  19.284  0.00  0.00    +0.000 A 
BRANCH   5  12
ATOM     11  C   UNL     1      -3.180  11.540  17.553  0.00  0.00    +0.000 C 
ATOM     12  C   UNL     1      -3.143  11.505  19.091  0.00  0.00    +0.000 C 
BRANCH  12  13
ATOM     13  S   UNL     1      -3.973  13.007  19.763  0.00  0.00    +0.000 S 
BRANCH  13  14
ATOM     14  C   UNL     1      -5.461  12.357  20.351  0.00  0.00    +0.000 A 
ATOM     15  N   UNL     1      -5.750  12.017  21.585  0.00  0.00    +0.000 NA
ATOM     16  N   UNL     1      -7.007  11.450  21.577  0.00  0.00    +0.000 NA
ATOM     17  C   UNL     1      -7.449  11.481  20.339  0.00  0.00    +0.000 A 
ATOM     18  N   UNL     1      -6.516  12.068  19.537  0.00  0.00    +0.000 N 
ATOM     19  C   UNL     1      -6.638  12.300  18.125  0.00  0.00    +0.000 C 
ENDBRANCH  13  14
ENDBRANCH  12  13
ENDBRANCH   5  12
ENDBRANCH   1   9
BRANCH   2  20
ATOM     20  C   UNL     1       2.656   7.710  17.998  0.00  0.00    +0.000 A 
ATOM     21  C   UNL     1       1.973   6.545  18.307  0.00  0.00    +0.000 A 
ATOM     22  C   UNL     1       2.606   5.327  18.092  0.00  0.00    +0.000 A 
ATOM     23  C   UNL     1       3.915   5.317  17.613  0.00  0.00    +0.000 A 
ATOM     24  C   UNL     1       4.523   6.537  17.344  0.00  0.00    +0.000 A 
ATOM     25  N   UNL     1       3.925   7.742  17.513  0.00  0.00    +0.000 NA
BRANCH  22  26
ATOM     26  C   UNL     1       1.926   4.055  18.466  0.00  0.00    +0.000 C 
ATOM     27  O   UNL     1       1.136   3.538  17.685  0.00  0.00    +0.000 OA
ATOM     28  N   UNL     1       2.302   3.496  19.675  0.00  0.00    +0.000 N 
ATOM     29  C   UNL     1       1.886   2.195  20.186  0.00  0.00    +0.000 C 
ATOM     30  C   UNL     1       1.558   2.878  21.510  0.00  0.00    +0.000 C 
ATOM     31  C   UNL     1       2.209   4.152  20.981  0.00  0.00    +0.000 C 
ENDBRANCH  22  26
ENDBRANCH   2  20
TORSDOF 6
ENDMDL
MODEL 2
REMARK VINA RESULT:      -7.9      4.625     10.245
REMARK  Name = 
REMARK  8 active torsions:
REMARK  status: ('A' for Active; 'I' for Inactive)
REMARK    1  A    between atoms: C_1  and  C_2
REMARK    2  A    between atoms: C_2  and  S_3
REMARK    3  A    between atoms: C_2  and  C_10
REMARK    4  A    between atoms: S_3  and  C_4
REMARK    5  A    between atoms: N_8  and  C_9
REMARK    6  A    between atoms: C_14  and  N_15
REMARK    7  A    between atoms: C_16  and  C_18
REMARK    8  A    between atoms: C_20  and  C_21
REMARK                            x       y       z     vdW  Elec       q    Type
REMARK                         _______ _______ _______ _____ _____    ______ ____
ROOT
ATOM      1  N   UNL     1       2.079   6.909  18.800  0.00  0.00    +0.000 N 
ATOM      2  C   UNL     1       1.899   7.009  20.168  0.00  0.00    +0.000 C 
ATOM      3  O   UNL     1       2.175   6.157  21.005  0.00  0.00    +0.000 OA
ATOM      4  H   UNL     1       1.894   7.757  18.269  0.00  0.00    +0.000 HD
ENDROOT
BRANCH   1   9
ATOM      5  C   UNL     1       4.304   4.748  16.717  0.00  0.00    +0.000 A 
ATOM      6  C   UNL     1       3.592   3.539  16.762  0.00  0.00    +0.000 A 
ATOM      7  C   UNL     1       2.378   3.448  17.437  0.00  0.00    +0.000 A 
ATOM      8  C   UNL     1       1.866   4.556  18.103  0.00  0.00    +0.000 A 
ATOM      9  C   UNL     1       2.554   5.770  18.113  0.00  0.00    +0.000 A 
ATOM     10  C   UNL     1       3.760   5.863  17.401  0.00  0.00    +0.000 A 
BRANCH   5  12
ATOM     11  C   UNL     1       5.739   3.934  14.744  0.00  0.00    +0.000 C 
ATOM     12  C   UNL     1       5.619   4.890  15.943  0.00  0.00    +0.000 C 
BRANCH  12  13
ATOM     13  S   UNL     1       7.042   4.630  17.085  0.00  0.00    +0.000 S 
BRANCH  13  14
ATOM     14  C   UNL     1       7.452   6.251  17.517  0.00  0.00    +0.000 A 
ATOM     15  N   UNL     1       7.355   7.324  16.768  0.00  0.00    +0.000 NA
ATOM     16  N   UNL     1       7.888   8.378  17.480  0.00  0.00    +0.000 NA
ATOM     17  C   UNL     1       8.275   7.913  18.647  0.00  0.00    +0.000 A 
ATOM     18  N   UNL     1       7.996   6.582  18.723  0.00  0.00    +0.000 N 
ATOM     19  C   UNL     1       8.253   5.724  19.846  0.00  0.00    +0.000 C 
ENDBRANCH  13  14
ENDBRANCH  12  13
ENDBRANCH   5  12
ENDBRANCH   1   9
BRANCH   2  20
ATOM     20  C   UNL     1       1.340   8.308  20.657  0.00  0.00    +0.000 A 
ATOM     21  C   UNL     1       0.995   9.255  19.706  0.00  0.00    +0.000 A 
ATOM     22  C   UNL     1       0.463  10.465  20.136  0.00  0.00    +0.000 A 
ATOM     23  C   UNL     1       0.333  10.702  21.503  0.00  0.00    +0.000 A 
ATOM     24  C   UNL     1       0.718   9.698  22.382  0.00  0.00    +0.000 A 
ATOM     25  N   UNL     1       1.211   8.495  21.998  0.00  0.00    +0.000 NA
BRANCH  22  26
ATOM     26  C   UNL     1       0.135  11.530  19.146  0.00  0.00    +0.000 C 
ATOM     27  O   UNL     1      -0.695  11.309  18.271  0.00  0.00    +0.000 OA
ATOM     28  N   UNL     1       0.756  12.751  19.337  0.00  0.00    +0.000 N 
ATOM     29  C   UNL     1       0.490  13.976  18.591  0.00  0.00    +0.000 C 
ATOM     30  C   UNL     1       1.997  14.134  18.413  0.00  0.00    +0.000 C 
ATOM     31  C   UNL     1       2.204  12.972  19.379  0.00  0.00    +0.000 C 
ENDBRANCH  22  26
ENDBRANCH   2  20
TORSDOF 6
ENDMDL
MODEL 3
REMARK VINA RESULT:      -7.9      1.799      2.689
REMARK  Name = 
REMARK  8 active torsions:
REMARK  status: ('A' for Active; 'I' for Inactive)
REMARK    1  A    between atoms: C_1  and  C_2
REMARK    2  A    between atoms: C_2  and  S_3
REMARK    3  A    between atoms: C_2  and  C_10
REMARK    4  A    between atoms: S_3  and  C_4
REMARK    5  A    between atoms: N_8  and  C_9
REMARK    6  A    between atoms: C_14  and  N_15
REMARK    7  A    between atoms: C_16  and  C_18
REMARK    8  A    between atoms: C_20  and  C_21
REMARK                            x       y       z     vdW  Elec       q    Type
REMARK                         _______ _______ _______ _____ _____    ______ ____
ROOT
ATOM      1  N   UNL     1       0.814   9.034  18.866  0.00  0.00    +0.000 N 
ATOM      2  C   UNL     1       1.915   9.049  18.028  0.00  0.00    +0.000 C 
ATOM      3  O   UNL     1       2.349  10.015  17.410  0.00  0.00    +0.000 OA
ATOM      4  H   UNL     1       0.666   8.169  19.380  0.00  0.00    +0.000 HD
ENDROOT
BRANCH   1   9
ATOM      5  C   UNL     1      -0.920  11.799  20.684  0.00  0.00    +0.000 A 
ATOM      6  C   UNL     1      -1.716  12.318  19.650  0.00  0.00    +0.000 A 
ATOM      7  C   UNL     1      -1.709  11.741  18.384  0.00  0.00    +0.000 A 
ATOM      8  C   UNL     1      -0.886  10.652  18.119  0.00  0.00    +0.000 A 
ATOM      9  C   UNL     1      -0.055  10.122  19.105  0.00  0.00    +0.000 A 
ATOM     10  C   UNL     1      -0.092  10.687  20.389  0.00  0.00    +0.000 A 
BRANCH   5  12
ATOM     11  C   UNL     1      -1.440  11.399  23.171  0.00  0.00    +0.000 C 
ATOM     12  C   UNL     1      -0.941  12.385  22.100  0.00  0.00    +0.000 C 
BRANCH  12  13
ATOM     13  S   UNL     1      -1.982  13.905  22.127  0.00  0.00    +0.000 S 
BRANCH  13  14
ATOM     14  C   UNL     1      -3.479  13.300  22.738  0.00  0.00    +0.000 A 
ATOM     15  N   UNL     1      -4.338  12.525  22.118  0.00  0.00    +0.000 NA
ATOM     16  N   UNL     1      -5.435  12.378  22.941  0.00  0.00    +0.000 NA
ATOM     17  C   UNL     1      -5.199  13.054  24.043  0.00  0.00    +0.000 A 
ATOM     18  N   UNL     1      -3.967  13.630  23.968  0.00  0.00    +0.000 N 
ATOM     19  C   UNL     1      -3.343  14.434  24.982  0.00  0.00    +0.000 C 
ENDBRANCH  13  14
ENDBRANCH  12  13
ENDBRANCH   5  12
ENDBRANCH   1   9
BRANCH   2  20
ATOM     20  C   UNL     1       2.657   7.756  17.904  0.00  0.00    +0.000 A 
ATOM     21  C   UNL     1       1.967   6.592  18.203  0.00  0.00    +0.000 A 
ATOM     22  C   UNL     1       2.631   5.376  18.084  0.00  0.00    +0.000 A 
ATOM     23  C   UNL     1       3.974   5.370  17.710  0.00  0.00    +0.000 A 
ATOM     24  C   UNL     1       4.585   6.588  17.444  0.00  0.00    +0.000 A 
ATOM     25  N   UNL     1       3.960   7.789  17.519  0.00  0.00    +0.000 NA
BRANCH  22  26
ATOM     26  C   UNL     1       1.940   4.108  18.452  0.00  0.00    +0.000 C 
ATOM     27  O   UNL     1       1.156   3.595  17.663  0.00  0.00    +0.000 OA
ATOM     28  N   UNL     1       2.299   3.549  19.665  0.00  0.00    +0.000 N 
ATOM     29  C   UNL     1       1.870   2.251  20.173  0.00  0.00    +0.000 C 
ATOM     30  C   UNL     1       1.531   2.937  21.493  0.00  0.00    +0.000 C 
ATOM     31  C   UNL     1       2.195   4.207  20.970  0.00  0.00    +0.000 C 
ENDBRANCH  22  26
ENDBRANCH   2  20
TORSDOF 6
ENDMDL
MODEL 4
REMARK VINA RESULT:      -7.8      4.665      7.357
REMARK  Name = 
REMARK  8 active torsions:
REMARK  status: ('A' for Active; 'I' for Inactive)
REMARK    1  A    between atoms: C_1  and  C_2
REMARK    2  A    between atoms: C_2  and  S_3
REMARK    3  A    between atoms: C_2  and  C_10
REMARK    4  A    between atoms: S_3  and  C_4
REMARK    5  A    between atoms: N_8  and  C_9
REMARK    6  A    between atoms: C_14  and  N_15
REMARK    7  A    between atoms: C_16  and  C_18
REMARK    8  A    between atoms: C_20  and  C_21
REMARK                            x       y       z     vdW  Elec       q    Type
REMARK                         _______ _______ _______ _____ _____    ______ ____
ROOT
ATOM      1  N   UNL     1       4.539   4.913  16.354  0.00  0.00    +0.000 N 
ATOM      2  C   UNL     1       5.911   4.855  16.177  0.00  0.00    +0.000 C 
ATOM      3  O   UNL     1       6.763   4.903  17.058  0.00  0.00    +0.000 OA
ATOM      4  H   UNL     1       3.982   4.748  15.519  0.00  0.00    +0.000 HD
ENDROOT
BRANCH   1   9
ATOM      5  C   UNL     1       2.712   6.652  19.110  0.00  0.00    +0.000 A 
ATOM      6  C   UNL     1       2.500   5.577  19.987  0.00  0.00    +0.000 A 
ATOM      7  C   UNL     1       2.985   4.306  19.692  0.00  0.00    +0.000 A 
ATOM      8  C   UNL     1       3.668   4.080  18.502  0.00  0.00    +0.000 A 
ATOM      9  C   UNL     1       3.875   5.110  17.585  0.00  0.00    +0.000 A 
ATOM     10  C   UNL     1       3.412   6.396  17.905  0.00  0.00    +0.000 A 
BRANCH   5  12
ATOM     11  C   UNL     1       1.148   8.127  20.522  0.00  0.00    +0.000 C 
ATOM     12  C   UNL     1       2.230   8.071  19.430  0.00  0.00    +0.000 C 
BRANCH  12  13
ATOM     13  S   UNL     1       1.601   8.875  17.895  0.00  0.00    +0.000 S 
BRANCH  13  14
ATOM     14  C   UNL     1       0.926  10.339  18.513  0.00  0.00    +0.000 A 
ATOM     15  N   UNL     1       1.538  11.267  19.210  0.00  0.00    +0.000 NA
ATOM     16  N   UNL     1       0.593  12.202  19.578  0.00  0.00    +0.000 NA
ATOM     17  C   UNL     1      -0.560  11.820  19.077  0.00  0.00    +0.000 A 
ATOM     18  N   UNL     1      -0.391  10.664  18.376  0.00  0.00    +0.000 N 
ATOM     19  C   UNL     1      -1.413   9.944  17.668  0.00  0.00    +0.000 C 
ENDBRANCH  13  14
ENDBRANCH  12  13
ENDBRANCH   5  12
ENDBRANCH   1   9
BRANCH   2  20
ATOM     20  C   UNL     1       6.378   4.682  14.767  0.00  0.00    +0.000 A 
ATOM     21  C   UNL     1       5.634   3.854  13.942  0.00  0.00    +0.000 A 
ATOM     22  C   UNL     1       6.042   3.686  12.625  0.00  0.00    +0.000 A 
ATOM     23  C   UNL     1       7.204   4.321  12.188  0.00  0.00    +0.000 A 
ATOM     24  C   UNL     1       7.892   5.121  13.090  0.00  0.00    +0.000 A 
ATOM     25  N   UNL     1       7.506   5.332  14.373  0.00  0.00    +0.000 NA
BRANCH  22  26
ATOM     26  C   UNL     1       5.301   2.758  11.725  0.00  0.00    +0.000 C 
ATOM     27  O   UNL     1       5.794   1.675  11.432  0.00  0.00    +0.000 OA
ATOM     28  N   UNL     1       4.040   3.170  11.331  0.00  0.00    +0.000 N 
ATOM     29  C   UNL     1       3.076   2.379  10.574  0.00  0.00    +0.000 C 
ATOM     30  C   UNL     1       2.887   3.583   9.656  0.00  0.00    +0.000 C 
ATOM     31  C   UNL     1       3.735   4.412  10.615  0.00  0.00    +0.000 C 
ENDBRANCH  22  26
ENDBRANCH   2  20
TORSDOF 6
ENDMDL
MODEL 5
REMARK VINA RESULT:      -7.8      3.833      5.265
REMARK  Name = 
REMARK  8 active torsions:
REMARK  status: ('A' for Active; 'I' for Inactive)
REMARK    1  A    between atoms: C_1  and  C_2
REMARK    2  A    between atoms: C_2  and  S_3
REMARK    3  A    between atoms: C_2  and  C_10
REMARK    4  A    between atoms: S_3  and  C_4
REMARK    5  A    between atoms: N_8  and  C_9
REMARK    6  A    between atoms: C_14  and  N_15
REMARK    7  A    between atoms: C_16  and  C_18
REMARK    8  A    between atoms: C_20  and  C_21
REMARK                            x       y       z     vdW  Elec       q    Type
REMARK                         _______ _______ _______ _____ _____    ______ ____
ROOT
ATOM      1  N   UNL     1       1.454   7.644  21.085  0.00  0.00    +0.000 N 
ATOM      2  C   UNL     1       2.096   7.395  19.885  0.00  0.00    +0.000 C 
ATOM      3  O   UNL     1       2.190   8.162  18.933  0.00  0.00    +0.000 OA
ATOM      4  H   UNL     1       1.571   6.932  21.802  0.00  0.00    +0.000 HD
ENDROOT
BRANCH   1   9
ATOM      5  C   UNL     1      -0.229  10.950  20.647  0.00  0.00    +0.000 A 
ATOM      6  C   UNL     1      -0.752  11.138  21.937  0.00  0.00    +0.000 A 
ATOM      7  C   UNL     1      -0.521  10.207  22.945  0.00  0.00    +0.000 A 
ATOM      8  C   UNL     1       0.214   9.057  22.676  0.00  0.00    +0.000 A 
ATOM      9  C   UNL     1       0.726   8.812  21.402  0.00  0.00    +0.000 A 
ATOM     10  C   UNL     1       0.518   9.773  20.400  0.00  0.00    +0.000 A 
BRANCH   5  12
ATOM     11  C   UNL     1      -1.272  11.464  18.353  0.00  0.00    +0.000 C 
ATOM     12  C   UNL     1      -0.428  11.981  19.531  0.00  0.00    +0.000 C 
BRANCH  12  13
ATOM     13  S   UNL     1       1.211  12.551  18.912  0.00  0.00    +0.000 S 
BRANCH  13  14
ATOM     14  C   UNL     1       1.719  13.610  20.179  0.00  0.00    +0.000 A 
ATOM     15  N   UNL     1       2.457  13.309  21.221  0.00  0.00    +0.000 NA
ATOM     16  N   UNL     1       2.526  14.431  22.020  0.00  0.00    +0.000 NA
ATOM     17  C   UNL     1       1.841  15.384  21.427  0.00  0.00    +0.000 A 
ATOM     18  N   UNL     1       1.337  14.917  20.250  0.00  0.00    +0.000 N 
ATOM     19  C   UNL     1       0.548  15.664  19.310  0.00  0.00    +0.000 C 
ENDBRANCH  13  14
ENDBRANCH  12  13
ENDBRANCH   5  12
ENDBRANCH   1   9
BRANCH   2  20
ATOM     20  C   UNL     1       2.766   6.061  19.770  0.00  0.00    +0.000 A 
ATOM     21  C   UNL     1       3.979   6.009  19.102  0.00  0.00    +0.000 A 
ATOM     22  C   UNL     1       4.625   4.784  18.992  0.00  0.00    +0.000 A 
ATOM     23  C   UNL     1       4.016   3.646  19.518  0.00  0.00    +0.000 A 
ATOM     24  C   UNL     1       2.793   3.794  20.158  0.00  0.00    +0.000 A 
ATOM     25  N   UNL     1       2.149   4.978  20.312  0.00  0.00    +0.000 NA
BRANCH  22  26
ATOM     26  C   UNL     1       5.902   4.679  18.232  0.00  0.00    +0.000 C 
ATOM     27  O   UNL     1       6.970   4.774  18.825  0.00  0.00    +0.000 OA
ATOM     28  N   UNL     1       5.786   4.401  16.881  0.00  0.00    +0.000 N 
ATOM     29  C   UNL     1       6.884   4.114  15.966  0.00  0.00    +0.000 C 
ATOM     30  C   UNL     1       6.274   5.124  14.999  0.00  0.00    +0.000 C 
ATOM     31  C   UNL     1       5.051   5.211  15.906  0.00  0.00    +0.000 C 
ENDBRANCH  22  26
ENDBRANCH   2  20
TORSDOF 6
ENDMDL
MODEL 6
REMARK VINA RESULT:      -7.7      7.686      9.845
REMARK  Name = 
REMARK  8 active torsions:
REMARK  status: ('A' for Active; 'I' for Inactive)
REMARK    1  A    between atoms: C_1  and  C_2
REMARK    2  A    between atoms: C_2  and  S_3
REMARK    3  A    between atoms: C_2  and  C_10
REMARK    4  A    between atoms: S_3  and  C_4
REMARK    5  A    between atoms: N_8  and  C_9
REMARK    6  A    between atoms: C_14  and  N_15
REMARK    7  A    between atoms: C_16  and  C_18
REMARK    8  A    between atoms: C_20  and  C_21
REMARK                            x       y       z     vdW  Elec       q    Type
REMARK                         _______ _______ _______ _____ _____    ______ ____
ROOT
ATOM      1  N   UNL     1       7.898   9.032  17.863  0.00  0.00    +0.000 N 
ATOM      2  C   UNL     1       7.921   7.676  18.140  0.00  0.00    +0.000 C 
ATOM      3  O   UNL     1       8.582   7.120  19.010  0.00  0.00    +0.000 OA
ATOM      4  H   UNL     1       7.207   9.328  17.178  0.00  0.00    +0.000 HD
ENDROOT
BRANCH   1   9
ATOM      5  C   UNL     1       9.735  12.242  18.393  0.00  0.00    +0.000 A 
ATOM      6  C   UNL     1      10.220  12.040  19.695  0.00  0.00    +0.000 A 
ATOM      7  C   UNL     1       9.978  10.850  20.372  0.00  0.00    +0.000 A 
ATOM      8  C   UNL     1       9.222   9.848  19.773  0.00  0.00    +0.000 A 
ATOM      9  C   UNL     1       8.692  10.015  18.494  0.00  0.00    +0.000 A 
ATOM     10  C   UNL     1       8.970  11.205  17.803  0.00  0.00    +0.000 A 
BRANCH   5  12
ATOM     11  C   UNL     1      11.118  13.359  16.534  0.00  0.00    +0.000 C 
ATOM     12  C   UNL     1      10.025  13.524  17.605  0.00  0.00    +0.000 C 
BRANCH  12  13
ATOM     13  S   UNL     1      10.498  14.874  18.767  0.00  0.00    +0.000 S 
BRANCH  13  14
ATOM     14  C   UNL     1       9.140  15.934  18.650  0.00  0.00    +0.000 A 
ATOM     15  N   UNL     1       9.060  17.055  17.972  0.00  0.00    +0.000 NA
ATOM     16  N   UNL     1       7.833  17.621  18.247  0.00  0.00    +0.000 NA
ATOM     17  C   UNL     1       7.200  16.817  19.072  0.00  0.00    +0.000 A 
ATOM     18  N   UNL     1       7.977  15.728  19.332  0.00  0.00    +0.000 N 
ATOM     19  C   UNL     1       7.627  14.618  20.174  0.00  0.00    +0.000 C 
ENDBRANCH  13  14
ENDBRANCH  12  13
ENDBRANCH   5  12
ENDBRANCH   1   9
BRANCH   2  20
ATOM     20  C   UNL     1       7.016   6.826  17.305  0.00  0.00    +0.000 A 
ATOM     21  C   UNL     1       5.739   6.586  17.787  0.00  0.00    +0.000 A 
ATOM     22  C   UNL     1       4.876   5.808  17.023  0.00  0.00    +0.000 A 
ATOM     23  C   UNL     1       5.334   5.264  15.825  0.00  0.00    +0.000 A 
ATOM     24  C   UNL     1       6.635   5.548  15.430  0.00  0.00    +0.000 A 
ATOM     25  N   UNL     1       7.493   6.328  16.134  0.00  0.00    +0.000 NA
BRANCH  22  26
ATOM     26  C   UNL     1       3.516   5.481  17.535  0.00  0.00    +0.000 C 
ATOM     27  O   UNL     1       2.773   6.384  17.903  0.00  0.00    +0.000 OA
ATOM     28  N   UNL     1       3.153   4.147  17.489  0.00  0.00    +0.000 N 
ATOM     29  C   UNL     1       1.835   3.604  17.798  0.00  0.00    +0.000 C 
ATOM     30  C   UNL     1       2.526   2.565  18.676  0.00  0.00    +0.000 C 
ATOM     31  C   UNL     1       3.870   3.047  18.140  0.00  0.00    +0.000 C 
ENDBRANCH  22  26
ENDBRANCH   2  20
TORSDOF 6
ENDMDL
MODEL 7
REMARK VINA RESULT:      -7.7      2.447      3.166
REMARK  Name = 
REMARK  8 active torsions:
REMARK  status: ('A' for Active; 'I' for Inactive)
REMARK    1  A    between atoms: C_1  and  C_2
REMARK    2  A    between atoms: C_2  and  S_3
REMARK    3  A    between atoms: C_2  and  C_10
REMARK    4  A    between atoms: S_3  and  C_4
REMARK    5  A    between atoms: N_8  and  C_9
REMARK    6  A    between atoms: C_14  and  N_15
REMARK    7  A    between atoms: C_16  and  C_18
REMARK    8  A    between atoms: C_20  and  C_21
REMARK                            x       y       z     vdW  Elec       q    Type
REMARK                         _______ _______ _______ _____ _____    ______ ____
ROOT
ATOM      1  N   UNL     1       2.107   8.225  19.431  0.00  0.00    +0.000 N 
ATOM      2  C   UNL     1       2.432   8.360  18.093  0.00  0.00    +0.000 C 
ATOM      3  O   UNL     1       1.997   9.204  17.318  0.00  0.00    +0.000 OA
ATOM      4  H   UNL     1       2.648   7.534  19.947  0.00  0.00    +0.000 HD
ENDROOT
BRANCH   1   9
ATOM      5  C   UNL     1      -0.370  10.930  20.138  0.00  0.00    +0.000 A 
ATOM      6  C   UNL     1      -0.777  10.566  21.431  0.00  0.00    +0.000 A 
ATOM      7  C   UNL     1      -0.216   9.467  22.075  0.00  0.00    +0.000 A 
ATOM      8  C   UNL     1       0.743   8.696  21.428  0.00  0.00    +0.000 A 
ATOM      9  C   UNL     1       1.156   9.000  20.131  0.00  0.00    +0.000 A 
ATOM     10  C   UNL     1       0.610  10.130  19.501  0.00  0.00    +0.000 A 
BRANCH   5  12
ATOM     11  C   UNL     1      -0.592  13.493  20.113  0.00  0.00    +0.000 C 
ATOM     12  C   UNL     1      -0.937  12.162  19.423  0.00  0.00    +0.000 C 
BRANCH  12  13
ATOM     13  S   UNL     1      -2.766  12.002  19.268  0.00  0.00    +0.000 S 
BRANCH  13  14
ATOM     14  C   UNL     1      -2.931  11.322  17.689  0.00  0.00    +0.000 A 
ATOM     15  N   UNL     1      -2.008  10.710  16.985  0.00  0.00    +0.000 NA
ATOM     16  N   UNL     1      -2.548  10.427  15.748  0.00  0.00    +0.000 NA
ATOM     17  C   UNL     1      -3.789  10.861  15.747  0.00  0.00    +0.000 A 
ATOM     18  N   UNL     1      -4.080  11.409  16.960  0.00  0.00    +0.000 N 
ATOM     19  C   UNL     1      -5.339  11.976  17.354  0.00  0.00    +0.000 C 
ENDBRANCH  13  14
ENDBRANCH  12  13
ENDBRANCH   5  12
ENDBRANCH   1   9
BRANCH   2  20
ATOM     20  C   UNL     1       3.441   7.389  17.567  0.00  0.00    +0.000 A 
ATOM     21  C   UNL     1       3.730   6.281  18.347  0.00  0.00    +0.000 A 
ATOM     22  C   UNL     1       4.657   5.359  17.875  0.00  0.00    +0.000 A 
ATOM     23  C   UNL     1       5.292   5.597  16.657  0.00  0.00    +0.000 A 
ATOM     24  C   UNL     1       4.947   6.743  15.952  0.00  0.00    +0.000 A 
ATOM     25  N   UNL     1       4.026   7.647  16.367  0.00  0.00    +0.000 NA
BRANCH  22  26
ATOM     26  C   UNL     1       5.036   4.185  18.711  0.00  0.00    +0.000 C 
ATOM     27  O   UNL     1       6.150   4.139  19.220  0.00  0.00    +0.000 OA
ATOM     28  N   UNL     1       4.048   3.239  18.917  0.00  0.00    +0.000 N 
ATOM     29  C   UNL     1       4.135   2.086  19.805  0.00  0.00    +0.000 C 
ATOM     30  C   UNL     1       3.609   1.227  18.659  0.00  0.00    +0.000 C 
ATOM     31  C   UNL     1       3.343   2.502  17.864  0.00  0.00    +0.000 C 
ENDBRANCH  22  26
ENDBRANCH   2  20
TORSDOF 6
ENDMDL
MODEL 8
REMARK VINA RESULT:      -7.7      7.241      9.316
REMARK  Name = 
REMARK  8 active torsions:
REMARK  status: ('A' for Active; 'I' for Inactive)
REMARK    1  A    between atoms: C_1  and  C_2
REMARK    2  A    between atoms: C_2  and  S_3
REMARK    3  A    between atoms: C_2  and  C_10
REMARK    4  A    between atoms: S_3  and  C_4
REMARK    5  A    between atoms: N_8  and  C_9
REMARK    6  A    between atoms: C_14  and  N_15
REMARK    7  A    between atoms: C_16  and  C_18
REMARK    8  A    between atoms: C_20  and  C_21
REMARK                            x       y       z     vdW  Elec       q    Type
REMARK                         _______ _______ _______ _____ _____    ______ ____
ROOT
ATOM      1  N   UNL     1       7.889   8.701  17.838  0.00  0.00    +0.000 N 
ATOM      2  C   UNL     1       7.935   7.376  18.234  0.00  0.00    +0.000 C 
ATOM      3  O   UNL     1       8.563   6.920  19.183  0.00  0.00    +0.000 OA
ATOM      4  H   UNL     1       7.229   8.914  17.094  0.00  0.00    +0.000 HD
ENDROOT
BRANCH   1   9
ATOM      5  C   UNL     1       9.590  12.010  18.182  0.00  0.00    +0.000 A 
ATOM      6  C   UNL     1      10.021  11.932  19.516  0.00  0.00    +0.000 A 
ATOM      7  C   UNL     1       9.787  10.792  20.278  0.00  0.00    +0.000 A 
ATOM      8  C   UNL     1       9.094   9.718  19.730  0.00  0.00    +0.000 A 
ATOM      9  C   UNL     1       8.619   9.761  18.420  0.00  0.00    +0.000 A 
ATOM     10  C   UNL     1       8.888  10.901  17.646  0.00  0.00    +0.000 A 
BRANCH   5  12
ATOM     11  C   UNL     1      11.284  13.244  16.692  0.00  0.00    +0.000 C 
ATOM     12  C   UNL     1       9.873  13.234  17.305  0.00  0.00    +0.000 C 
BRANCH  12  13
ATOM     13  S   UNL     1       9.615  14.773  18.284  0.00  0.00    +0.000 S 
BRANCH  13  14
ATOM     14  C   UNL     1       7.897  14.797  18.461  0.00  0.00    +0.000 A 
ATOM     15  N   UNL     1       6.997  14.791  17.505  0.00  0.00    +0.000 NA
ATOM     16  N   UNL     1       5.759  14.923  18.099  0.00  0.00    +0.000 NA
ATOM     17  C   UNL     1       5.946  14.987  19.398  0.00  0.00    +0.000 A 
ATOM     18  N   UNL     1       7.277  14.885  19.672  0.00  0.00    +0.000 N 
ATOM     19  C   UNL     1       7.877  14.896  20.977  0.00  0.00    +0.000 C 
ENDBRANCH  13  14
ENDBRANCH  12  13
ENDBRANCH   5  12
ENDBRANCH   1   9
BRANCH   2  20
ATOM     20  C   UNL     1       7.102   6.428  17.432  0.00  0.00    +0.000 A 
ATOM     21  C   UNL     1       6.106   5.730  18.096  0.00  0.00    +0.000 A 
ATOM     22  C   UNL     1       5.312   4.851  17.370  0.00  0.00    +0.000 A 
ATOM     23  C   UNL     1       5.567   4.670  16.012  0.00  0.00    +0.000 A 
ATOM     24  C   UNL     1       6.595   5.404  15.435  0.00  0.00    +0.000 A 
ATOM     25  N   UNL     1       7.369   6.292  16.106  0.00  0.00    +0.000 NA
BRANCH  22  26
ATOM     26  C   UNL     1       4.270   4.040  18.061  0.00  0.00    +0.000 C 
ATOM     27  O   UNL     1       3.973   2.935  17.622  0.00  0.00    +0.000 OA
ATOM     28  N   UNL     1       3.750   4.580  19.223  0.00  0.00    +0.000 N 
ATOM     29  C   UNL     1       2.831   3.917  20.142  0.00  0.00    +0.000 C 
ATOM     30  C   UNL     1       1.975   5.180  20.115  0.00  0.00    +0.000 C 
ATOM     31  C   UNL     1       3.082   5.880  19.334  0.00  0.00    +0.000 C 
ENDBRANCH  22  26
ENDBRANCH   2  20
TORSDOF 6
ENDMDL
MODEL 9
REMARK VINA RESULT:      -7.7      3.416      5.099
REMARK  Name = 
REMARK  8 active torsions:
REMARK  status: ('A' for Active; 'I' for Inactive)
REMARK    1  A    between atoms: C_1  and  C_2
REMARK    2  A    between atoms: C_2  and  S_3
REMARK    3  A    between atoms: C_2  and  C_10
REMARK    4  A    between atoms: S_3  and  C_4
REMARK    5  A    between atoms: N_8  and  C_9
REMARK    6  A    between atoms: C_14  and  N_15
REMARK    7  A    between atoms: C_16  and  C_18
REMARK    8  A    between atoms: C_20  and  C_21
REMARK                            x       y       z     vdW  Elec       q    Type
REMARK                         _______ _______ _______ _____ _____    ______ ____
ROOT
ATOM      1  N   UNL     1       2.155   8.013  18.943  0.00  0.00    +0.000 N 
ATOM      2  C   UNL     1       2.322   6.858  19.687  0.00  0.00    +0.000 C 
ATOM      3  O   UNL     1       1.657   6.513  20.657  0.00  0.00    +0.000 OA
ATOM      4  H   UNL     1       2.729   8.083  18.105  0.00  0.00    +0.000 HD
ENDROOT
BRANCH   1   9
ATOM      5  C   UNL     1       0.093  10.449  20.885  0.00  0.00    +0.000 A 
ATOM      6  C   UNL     1      -0.571  11.107  19.837  0.00  0.00    +0.000 A 
ATOM      7  C   UNL     1      -0.370  10.728  18.513  0.00  0.00    +0.000 A 
ATOM      8  C   UNL     1       0.519   9.702  18.209  0.00  0.00    +0.000 A 
ATOM      9  C   UNL     1       1.224   9.041  19.214  0.00  0.00    +0.000 A 
ATOM     10  C   UNL     1       0.991   9.406  20.549  0.00  0.00    +0.000 A 
BRANCH   5  12
ATOM     11  C   UNL     1      -0.288   9.594  23.281  0.00  0.00    +0.000 C 
ATOM     12  C   UNL     1      -0.144  10.814  22.354  0.00  0.00    +0.000 C 
BRANCH  12  13
ATOM     13  S   UNL     1      -1.643  11.877  22.496  0.00  0.00    +0.000 S 
BRANCH  13  14
ATOM     14  C   UNL     1      -0.949  13.451  22.647  0.00  0.00    +0.000 A 
ATOM     15  N   UNL     1       0.308  13.788  22.476  0.00  0.00    +0.000 NA
ATOM     16  N   UNL     1       0.429  15.123  22.799  0.00  0.00    +0.000 NA
ATOM     17  C   UNL     1      -0.764  15.559  23.139  0.00  0.00    +0.000 A 
ATOM     18  N   UNL     1      -1.667  14.544  23.033  0.00  0.00    +0.000 N 
ATOM     19  C   UNL     1      -3.075  14.631  23.301  0.00  0.00    +0.000 C 
ENDBRANCH  13  14
ENDBRANCH  12  13
ENDBRANCH   5  12
ENDBRANCH   1   9
BRANCH   2  20
ATOM     20  C   UNL     1       3.407   5.938  19.224  0.00  0.00    +0.000 A 
ATOM     21  C   UNL     1       4.152   6.329  18.124  0.00  0.00    +0.000 A 
ATOM     22  C   UNL     1       5.173   5.495  17.682  0.00  0.00    +0.000 A 
ATOM     23  C   UNL     1       5.386   4.281  18.332  0.00  0.00    +0.000 A 
ATOM     24  C   UNL     1       4.579   3.968  19.418  0.00  0.00    +0.000 A 
ATOM     25  N   UNL     1       3.596   4.770  19.895  0.00  0.00    +0.000 NA
BRANCH  22  26
ATOM     26  C   UNL     1       5.958   5.854  16.468  0.00  0.00    +0.000 C 
ATOM     27  O   UNL     1       6.296   7.018  16.287  0.00  0.00    +0.000 OA
ATOM     28  N   UNL     1       6.319   4.803  15.644  0.00  0.00    +0.000 N 
ATOM     29  C   UNL     1       7.200   4.885  14.484  0.00  0.00    +0.000 C 
ATOM     30  C   UNL     1       6.154   4.098  13.699  0.00  0.00    +0.000 C 
ATOM     31  C   UNL     1       5.392   3.868  15.001  0.00  0.00    +0.000 C 
ENDBRANCH  22  26
ENDBRANCH   2  20
TORSDOF 6
ENDMDL
