MODEL 1
REMARK VINA RESULT:      -8.2      0.000      0.000
REMARK  Name = 
REMARK  7 active torsions:
REMARK  status: ('A' for Active; 'I' for Inactive)
REMARK    1  A    between atoms: C_1  and  C_2
REMARK    2  A    between atoms: C_2  and  S_3
REMARK    3  A    between atoms: C_2  and  C_10
REMARK    4  A    between atoms: S_3  and  C_4
REMARK    5  A    between atoms: N_8  and  C_9
REMARK    6  A    between atoms: C_14  and  C_15
REMARK    7  A    between atoms: C_17  and  C_18
REMARK                            x       y       z     vdW  Elec       q    Type
REMARK                         _______ _______ _______ _____ _____    ______ ____
ROOT
ATOM      1  C   UNL     1       2.474   7.381  19.066  0.00  0.00    +0.000 A 
ATOM      2  C   UNL     1       2.506   7.986  17.798  0.00  0.00    +0.000 A 
ATOM      3  C   UNL     1       1.899   9.223  17.579  0.00  0.00    +0.000 A 
ATOM      4  C   UNL     1       1.244   9.869  18.623  0.00  0.00    +0.000 A 
ATOM      5  C   UNL     1       1.173   9.290  19.898  0.00  0.00    +0.000 A 
ATOM      6  C   UNL     1       1.784   8.040  20.103  0.00  0.00    +0.000 A 
ENDROOT
BRANCH   5   7
ATOM      7  C   UNL     1       0.486   9.996  20.974  0.00  0.00    +0.000 A 
ATOM      8  C   UNL     1      -0.230  11.166  21.053  0.00  0.00    +0.000 A 
ATOM      9  C   UNL     1      -0.640  11.265  22.407  0.00  0.00    +0.000 A 
ATOM     10  N   UNL     1      -0.170  10.225  23.111  0.00  0.00    +0.000 NA
ATOM     11  O   UNL     1       0.522   9.433  22.215  0.00  0.00    +0.000 OA
BRANCH   9  12
ATOM     12  C   UNL     1      -1.461  12.310  23.016  0.00  0.00    +0.000 A 
ATOM     13  C   UNL     1      -2.778  12.035  23.419  0.00  0.00    +0.000 A 
ATOM     14  C   UNL     1      -3.561  13.029  24.013  0.00  0.00    +0.000 A 
ATOM     15  C   UNL     1      -3.034  14.304  24.204  0.00  0.00    +0.000 A 
ATOM     16 CL   UNL     1      -3.999  15.522  24.944  0.00  0.00    +0.000 Cl
ATOM     17  C   UNL     1      -1.733  14.596  23.804  0.00  0.00    +0.000 A 
ATOM     18  C   UNL     1      -0.947  13.600  23.214  0.00  0.00    +0.000 A 
ENDBRANCH   9  12
ENDBRANCH   5   7
BRANCH   1  20
ATOM     19  C   UNL     1       4.534   6.000  18.635  0.00  0.00    +0.000 C 
ATOM     20  C   UNL     1       3.167   6.044  19.330  0.00  0.00    +0.000 C 
BRANCH  20  21
ATOM     21  S   UNL     1       2.049   4.684  18.807  0.00  0.00    +0.000 S 
BRANCH  21  22
ATOM     22  C   UNL     1       2.057   3.604  20.154  0.00  0.00    +0.000 A 
ATOM     23  N   UNL     1       1.148   3.480  21.093  0.00  0.00    +0.000 NA
ATOM     24  N   UNL     1       1.618   2.579  22.024  0.00  0.00    +0.000 NA
ATOM     25  C   UNL     1       2.791   2.159  21.609  0.00  0.00    +0.000 A 
ATOM     26  N   UNL     1       3.096   2.756  20.422  0.00  0.00    +0.000 N 
ATOM     27  C   UNL     1       4.270   2.506  19.631  0.00  0.00    +0.000 C 
ENDBRANCH  21  22
ENDBRANCH  20  21
ENDBRANCH   1  20
TORSDOF 5
ENDMDL
MODEL 2
REMARK VINA RESULT:      -8.2      5.025      9.645
REMARK  Name = 
REMARK  7 active torsions:
REMARK  status: ('A' for Active; 'I' for Inactive)
REMARK    1  A    between atoms: C_1  and  C_2
REMARK    2  A    between atoms: C_2  and  S_3
REMARK    3  A    between atoms: C_2  and  C_10
REMARK    4  A    between atoms: S_3  and  C_4
REMARK    5  A    between atoms: N_8  and  C_9
REMARK    6  A    between atoms: C_14  and  C_15
REMARK    7  A    between atoms: C_17  and  C_18
REMARK                            x       y       z     vdW  Elec       q    Type
REMARK                         _______ _______ _______ _____ _____    ______ ____
ROOT
ATOM      1  C   UNL     1      -0.242  11.188  21.049  0.00  0.00    +0.000 A 
ATOM      2  C   UNL     1      -0.574  10.956  22.395  0.00  0.00    +0.000 A 
ATOM      3  C   UNL     1      -0.208   9.768  23.027  0.00  0.00    +0.000 A 
ATOM      4  C   UNL     1       0.488   8.790  22.322  0.00  0.00    +0.000 A 
ATOM      5  C   UNL     1       0.820   8.975  20.972  0.00  0.00    +0.000 A 
ATOM      6  C   UNL     1       0.439  10.176  20.345  0.00  0.00    +0.000 A 
ENDROOT
BRANCH   5   7
ATOM      7  C   UNL     1       1.557   7.936  20.261  0.00  0.00    +0.000 A 
ATOM      8  C   UNL     1       2.247   7.886  19.074  0.00  0.00    +0.000 A 
ATOM      9  C   UNL     1       2.740   6.560  18.980  0.00  0.00    +0.000 A 
ATOM     10  N   UNL     1       2.341   5.842  20.040  0.00  0.00    +0.000 NA
ATOM     11  O   UNL     1       1.614   6.703  20.840  0.00  0.00    +0.000 OA
BRANCH   9  12
ATOM     12  C   UNL     1       3.570   5.990  17.922  0.00  0.00    +0.000 A 
ATOM     13  C   UNL     1       4.377   6.820  17.126  0.00  0.00    +0.000 A 
ATOM     14  C   UNL     1       5.182   6.276  16.121  0.00  0.00    +0.000 A 
ATOM     15  C   UNL     1       5.183   4.901  15.904  0.00  0.00    +0.000 A 
ATOM     16 CL   UNL     1       6.183   4.235  14.671  0.00  0.00    +0.000 Cl
ATOM     17  C   UNL     1       4.385   4.064  16.678  0.00  0.00    +0.000 A 
ATOM     18  C   UNL     1       3.583   4.607  17.687  0.00  0.00    +0.000 A 
ENDBRANCH   9  12
ENDBRANCH   5   7
BRANCH   1  20
ATOM     19  C   UNL     1      -0.015  13.694  21.116  0.00  0.00    +0.000 C 
ATOM     20  C   UNL     1      -0.604  12.500  20.352  0.00  0.00    +0.000 C 
BRANCH  20  21
ATOM     21  S   UNL     1      -2.429  12.591  20.169  0.00  0.00    +0.000 S 
BRANCH  21  22
ATOM     22  C   UNL     1      -2.723  11.888  18.621  0.00  0.00    +0.000 A 
ATOM     23  N   UNL     1      -1.843  11.569  17.700  0.00  0.00    +0.000 NA
ATOM     24  N   UNL     1      -2.530  11.143  16.585  0.00  0.00    +0.000 NA
ATOM     25  C   UNL     1      -3.811  11.189  16.869  0.00  0.00    +0.000 A 
ATOM     26  N   UNL     1      -3.979  11.626  18.149  0.00  0.00    +0.000 N 
ATOM     27  C   UNL     1      -5.235  11.752  18.838  0.00  0.00    +0.000 C 
ENDBRANCH  21  22
ENDBRANCH  20  21
ENDBRANCH   1  20
TORSDOF 5
ENDMDL
MODEL 3
REMARK VINA RESULT:      -8.1      1.310      1.790
REMARK  Name = 
REMARK  7 active torsions:
REMARK  status: ('A' for Active; 'I' for Inactive)
REMARK    1  A    between atoms: C_1  and  C_2
REMARK    2  A    between atoms: C_2  and  S_3
REMARK    3  A    between atoms: C_2  and  C_10
REMARK    4  A    between atoms: S_3  and  C_4
REMARK    5  A    between atoms: N_8  and  C_9
REMARK    6  A    between atoms: C_14  and  C_15
REMARK    7  A    between atoms: C_17  and  C_18
REMARK                            x       y       z     vdW  Elec       q    Type
REMARK                         _______ _______ _______ _____ _____    ______ ____
ROOT
ATOM      1  C   UNL     1       2.291   7.393  19.406  0.00  0.00    +0.000 A 
ATOM      2  C   UNL     1       2.391   7.856  18.083  0.00  0.00    +0.000 A 
ATOM      3  C   UNL     1       1.790   9.054  17.697  0.00  0.00    +0.000 A 
ATOM      4  C   UNL     1       1.073   9.803  18.625  0.00  0.00    +0.000 A 
ATOM      5  C   UNL     1       0.934   9.366  19.951  0.00  0.00    +0.000 A 
ATOM      6  C   UNL     1       1.540   8.153  20.325  0.00  0.00    +0.000 A 
ENDROOT
BRANCH   5   7
ATOM      7  C   UNL     1       0.183  10.177  20.903  0.00  0.00    +0.000 A 
ATOM      8  C   UNL     1      -0.853  11.074  20.796  0.00  0.00    +0.000 A 
ATOM      9  C   UNL     1      -1.120  11.500  22.121  0.00  0.00    +0.000 A 
ATOM     10  N   UNL     1      -0.270  10.913  22.976  0.00  0.00    +0.000 NA
ATOM     11  O   UNL     1       0.532  10.083  22.217  0.00  0.00    +0.000 OA
BRANCH   9  12
ATOM     12  C   UNL     1      -2.155  12.429  22.568  0.00  0.00    +0.000 A 
ATOM     13  C   UNL     1      -2.302  13.681  21.949  0.00  0.00    +0.000 A 
ATOM     14  C   UNL     1      -3.299  14.568  22.366  0.00  0.00    +0.000 A 
ATOM     15  C   UNL     1      -4.152  14.210  23.406  0.00  0.00    +0.000 A 
ATOM     16 CL   UNL     1      -5.385  15.301  23.909  0.00  0.00    +0.000 Cl
ATOM     17  C   UNL     1      -4.017  12.976  24.035  0.00  0.00    +0.000 A 
ATOM     18  C   UNL     1      -3.023  12.086  23.615  0.00  0.00    +0.000 A 
ENDBRANCH   9  12
ENDBRANCH   5   7
BRANCH   1  20
ATOM     19  C   UNL     1       4.078   5.706  18.863  0.00  0.00    +0.000 C 
ATOM     20  C   UNL     1       2.976   6.101  19.854  0.00  0.00    +0.000 C 
BRANCH  20  21
ATOM     21  S   UNL     1       1.700   4.798  20.070  0.00  0.00    +0.000 S 
BRANCH  21  22
ATOM     22  C   UNL     1       2.166   3.575  18.945  0.00  0.00    +0.000 A 
ATOM     23  N   UNL     1       1.732   3.400  17.718  0.00  0.00    +0.000 NA
ATOM     24  N   UNL     1       2.291   2.239  17.231  0.00  0.00    +0.000 NA
ATOM     25  C   UNL     1       3.074   1.755  18.168  0.00  0.00    +0.000 A 
ATOM     26  N   UNL     1       3.048   2.577  19.254  0.00  0.00    +0.000 N 
ATOM     27  C   UNL     1       3.820   2.410  20.456  0.00  0.00    +0.000 C 
ENDBRANCH  21  22
ENDBRANCH  20  21
ENDBRANCH   1  20
TORSDOF 5
ENDMDL
MODEL 4
REMARK VINA RESULT:      -8.0      1.030      1.391
REMARK  Name = 
REMARK  7 active torsions:
REMARK  status: ('A' for Active; 'I' for Inactive)
REMARK    1  A    between atoms: C_1  and  C_2
REMARK    2  A    between atoms: C_2  and  S_3
REMARK    3  A    between atoms: C_2  and  C_10
REMARK    4  A    between atoms: S_3  and  C_4
REMARK    5  A    between atoms: N_8  and  C_9
REMARK    6  A    between atoms: C_14  and  C_15
REMARK    7  A    between atoms: C_17  and  C_18
REMARK                            x       y       z     vdW  Elec       q    Type
REMARK                         _______ _______ _______ _____ _____    ______ ____
ROOT
ATOM      1  C   UNL     1       2.336   7.510  19.245  0.00  0.00    +0.000 A 
ATOM      2  C   UNL     1       2.203   7.995  17.933  0.00  0.00    +0.000 A 
ATOM      3  C   UNL     1       1.464   9.147  17.667  0.00  0.00    +0.000 A 
ATOM      4  C   UNL     1       0.838   9.827  18.708  0.00  0.00    +0.000 A 
ATOM      5  C   UNL     1       0.930   9.364  20.029  0.00  0.00    +0.000 A 
ATOM      6  C   UNL     1       1.675   8.197  20.281  0.00  0.00    +0.000 A 
ENDROOT
BRANCH   5   7
ATOM      7  C   UNL     1       0.270  10.103  21.099  0.00  0.00    +0.000 A 
ATOM      8  C   UNL     1      -0.424  11.287  21.165  0.00  0.00    +0.000 A 
ATOM      9  C   UNL     1      -0.814  11.420  22.521  0.00  0.00    +0.000 A 
ATOM     10  N   UNL     1      -0.352  10.386  23.239  0.00  0.00    +0.000 NA
ATOM     11  O   UNL     1       0.314   9.564  22.350  0.00  0.00    +0.000 OA
BRANCH   9  12
ATOM     12  C   UNL     1      -1.608  12.491  23.120  0.00  0.00    +0.000 A 
ATOM     13  C   UNL     1      -2.942  12.262  23.495  0.00  0.00    +0.000 A 
ATOM     14  C   UNL     1      -3.701  13.281  24.079  0.00  0.00    +0.000 A 
ATOM     15  C   UNL     1      -3.131  14.534  24.289  0.00  0.00    +0.000 A 
ATOM     16 CL   UNL     1      -4.066  15.783  25.017  0.00  0.00    +0.000 Cl
ATOM     17  C   UNL     1      -1.813  14.780  23.918  0.00  0.00    +0.000 A 
ATOM     18  C   UNL     1      -1.051  13.760  23.338  0.00  0.00    +0.000 A 
ENDBRANCH   9  12
ENDBRANCH   5   7
BRANCH   1  20
ATOM     19  C   UNL     1       3.881   5.766  18.291  0.00  0.00    +0.000 C 
ATOM     20  C   UNL     1       3.174   6.269  19.557  0.00  0.00    +0.000 C 
BRANCH  20  21
ATOM     21  S   UNL     1       2.094   5.002  20.330  0.00  0.00    +0.000 S 
BRANCH  21  22
ATOM     22  C   UNL     1       2.817   3.505  19.866  0.00  0.00    +0.000 A 
ATOM     23  N   UNL     1       4.041   3.094  20.101  0.00  0.00    +0.000 NA
ATOM     24  N   UNL     1       4.218   1.892  19.453  0.00  0.00    +0.000 NA
ATOM     25  C   UNL     1       3.084   1.591  18.863  0.00  0.00    +0.000 A 
ATOM     26  N   UNL     1       2.165   2.564  19.118  0.00  0.00    +0.000 N 
ATOM     27  C   UNL     1       0.792   2.560  18.691  0.00  0.00    +0.000 C 
ENDBRANCH  21  22
ENDBRANCH  20  21
ENDBRANCH   1  20
TORSDOF 5
ENDMDL
MODEL 5
REMARK VINA RESULT:      -8.0      6.611      8.502
REMARK  Name = 
REMARK  7 active torsions:
REMARK  status: ('A' for Active; 'I' for Inactive)
REMARK    1  A    between atoms: C_1  and  C_2
REMARK    2  A    between atoms: C_2  and  S_3
REMARK    3  A    between atoms: C_2  and  C_10
REMARK    4  A    between atoms: S_3  and  C_4
REMARK    5  A    between atoms: N_8  and  C_9
REMARK    6  A    between atoms: C_14  and  C_15
REMARK    7  A    between atoms: C_17  and  C_18
REMARK                            x       y       z     vdW  Elec       q    Type
REMARK                         _______ _______ _______ _____ _____    ______ ____
ROOT
ATOM      1  C   UNL     1       4.390   5.627  17.290  0.00  0.00    +0.000 A 
ATOM      2  C   UNL     1       4.882   4.726  16.330  0.00  0.00    +0.000 A 
ATOM      3  C   UNL     1       6.192   4.825  15.862  0.00  0.00    +0.000 A 
ATOM      4  C   UNL     1       7.028   5.830  16.340  0.00  0.00    +0.000 A 
ATOM      5  C   UNL     1       6.568   6.761  17.284  0.00  0.00    +0.000 A 
ATOM      6  C   UNL     1       5.243   6.653  17.742  0.00  0.00    +0.000 A 
ENDROOT
BRANCH   5   7
ATOM      7  C   UNL     1       7.470   7.798  17.771  0.00  0.00    +0.000 A 
ATOM      8  C   UNL     1       7.688   9.115  17.444  0.00  0.00    +0.000 A 
ATOM      9  C   UNL     1       8.710   9.557  18.322  0.00  0.00    +0.000 A 
ATOM     10  N   UNL     1       9.107   8.550  19.114  0.00  0.00    +0.000 NA
ATOM     11  O   UNL     1       8.327   7.460  18.776  0.00  0.00    +0.000 OA
BRANCH   9  12
ATOM     12  C   UNL     1       9.289  10.895  18.415  0.00  0.00    +0.000 A 
ATOM     13  C   UNL     1       8.767  11.835  19.318  0.00  0.00    +0.000 A 
ATOM     14  C   UNL     1       9.326  13.112  19.418  0.00  0.00    +0.000 A 
ATOM     15  C   UNL     1      10.409  13.458  18.613  0.00  0.00    +0.000 A 
ATOM     16 CL   UNL     1      11.101  15.028  18.746  0.00  0.00    +0.000 Cl
ATOM     17  C   UNL     1      10.935  12.541  17.708  0.00  0.00    +0.000 A 
ATOM     18  C   UNL     1      10.379  11.261  17.611  0.00  0.00    +0.000 A 
ENDBRANCH   9  12
ENDBRANCH   5   7
BRANCH   1  20
ATOM     19  C   UNL     1       2.901   6.049  19.275  0.00  0.00    +0.000 C 
ATOM     20  C   UNL     1       2.968   5.509  17.840  0.00  0.00    +0.000 C 
BRANCH  20  21
ATOM     21  S   UNL     1       2.421   3.762  17.702  0.00  0.00    +0.000 S 
BRANCH  21  22
ATOM     22  C   UNL     1       2.106   3.299  19.334  0.00  0.00    +0.000 A 
ATOM     23  N   UNL     1       0.970   3.371  19.989  0.00  0.00    +0.000 NA
ATOM     24  N   UNL     1       1.207   2.999  21.294  0.00  0.00    +0.000 NA
ATOM     25  C   UNL     1       2.478   2.684  21.390  0.00  0.00    +0.000 A 
ATOM     26  N   UNL     1       3.078   2.831  20.175  0.00  0.00    +0.000 N 
ATOM     27  C   UNL     1       4.450   2.526  19.871  0.00  0.00    +0.000 C 
ENDBRANCH  21  22
ENDBRANCH  20  21
ENDBRANCH   1  20
TORSDOF 5
ENDMDL
MODEL 6
REMARK VINA RESULT:      -8.0      5.951      8.624
REMARK  Name = 
REMARK  7 active torsions:
REMARK  status: ('A' for Active; 'I' for Inactive)
REMARK    1  A    between atoms: C_1  and  C_2
REMARK    2  A    between atoms: C_2  and  S_3
REMARK    3  A    between atoms: C_2  and  C_10
REMARK    4  A    between atoms: S_3  and  C_4
REMARK    5  A    between atoms: N_8  and  C_9
REMARK    6  A    between atoms: C_14  and  C_15
REMARK    7  A    between atoms: C_17  and  C_18
REMARK                            x       y       z     vdW  Elec       q    Type
REMARK                         _______ _______ _______ _____ _____    ______ ____
ROOT
ATOM      1  C   UNL     1       4.880   4.022  17.227  0.00  0.00    +0.000 A 
ATOM      2  C   UNL     1       5.194   3.629  15.915  0.00  0.00    +0.000 A 
ATOM      3  C   UNL     1       6.194   4.281  15.193  0.00  0.00    +0.000 A 
ATOM      4  C   UNL     1       6.889   5.341  15.769  0.00  0.00    +0.000 A 
ATOM      5  C   UNL     1       6.591   5.776  17.068  0.00  0.00    +0.000 A 
ATOM      6  C   UNL     1       5.576   5.114  17.782  0.00  0.00    +0.000 A 
ENDROOT
BRANCH   5   7
ATOM      7  C   UNL     1       7.341   6.885  17.647  0.00  0.00    +0.000 A 
ATOM      8  C   UNL     1       7.481   8.217  17.338  0.00  0.00    +0.000 A 
ATOM      9  C   UNL     1       8.358   8.741  18.322  0.00  0.00    +0.000 A 
ATOM     10  N   UNL     1       8.749   7.768  19.159  0.00  0.00    +0.000 NA
ATOM     11  O   UNL     1       8.107   6.618  18.742  0.00  0.00    +0.000 OA
BRANCH   9  12
ATOM     12  C   UNL     1       8.808  10.123  18.470  0.00  0.00    +0.000 A 
ATOM     13  C   UNL     1       8.354  11.117  17.588  0.00  0.00    +0.000 A 
ATOM     14  C   UNL     1       8.773  12.443  17.735  0.00  0.00    +0.000 A 
ATOM     15  C   UNL     1       9.651  12.781  18.762  0.00  0.00    +0.000 A 
ATOM     16 CL   UNL     1      10.156  14.416  18.945  0.00  0.00    +0.000 Cl
ATOM     17  C   UNL     1      10.116  11.808  19.641  0.00  0.00    +0.000 A 
ATOM     18  C   UNL     1       9.694  10.482  19.497  0.00  0.00    +0.000 A 
ENDBRANCH   9  12
ENDBRANCH   5   7
BRANCH   1  20
ATOM     19  C   UNL     1       3.866   1.784  17.775  0.00  0.00    +0.000 C 
ATOM     20  C   UNL     1       3.812   3.294  18.045  0.00  0.00    +0.000 C 
BRANCH  20  21
ATOM     21  S   UNL     1       2.173   4.034  17.674  0.00  0.00    +0.000 S 
BRANCH  21  22
ATOM     22  C   UNL     1       2.076   5.378  18.753  0.00  0.00    +0.000 A 
ATOM     23  N   UNL     1       2.380   6.632  18.508  0.00  0.00    +0.000 NA
ATOM     24  N   UNL     1       2.257   7.337  19.686  0.00  0.00    +0.000 NA
ATOM     25  C   UNL     1       1.853   6.495  20.609  0.00  0.00    +0.000 A 
ATOM     26  N   UNL     1       1.699   5.256  20.061  0.00  0.00    +0.000 N 
ATOM     27  C   UNL     1       1.217   4.087  20.745  0.00  0.00    +0.000 C 
ENDBRANCH  21  22
ENDBRANCH  20  21
ENDBRANCH   1  20
TORSDOF 5
ENDMDL
MODEL 7
REMARK VINA RESULT:      -8.0      4.817      9.710
REMARK  Name = 
REMARK  7 active torsions:
REMARK  status: ('A' for Active; 'I' for Inactive)
REMARK    1  A    between atoms: C_1  and  C_2
REMARK    2  A    between atoms: C_2  and  S_3
REMARK    3  A    between atoms: C_2  and  C_10
REMARK    4  A    between atoms: S_3  and  C_4
REMARK    5  A    between atoms: N_8  and  C_9
REMARK    6  A    between atoms: C_14  and  C_15
REMARK    7  A    between atoms: C_17  and  C_18
REMARK                            x       y       z     vdW  Elec       q    Type
REMARK                         _______ _______ _______ _____ _____    ______ ____
ROOT
ATOM      1  C   UNL     1      -0.220  11.256  21.161  0.00  0.00    +0.000 A 
ATOM      2  C   UNL     1      -0.612  10.994  22.484  0.00  0.00    +0.000 A 
ATOM      3  C   UNL     1      -0.315   9.773  23.091  0.00  0.00    +0.000 A 
ATOM      4  C   UNL     1       0.372   8.793  22.380  0.00  0.00    +0.000 A 
ATOM      5  C   UNL     1       0.764   9.008  21.051  0.00  0.00    +0.000 A 
ATOM      6  C   UNL     1       0.452  10.241  20.450  0.00  0.00    +0.000 A 
ENDROOT
BRANCH   5   7
ATOM      7  C   UNL     1       1.489   7.965  20.335  0.00  0.00    +0.000 A 
ATOM      8  C   UNL     1       2.212   7.923  19.167  0.00  0.00    +0.000 A 
ATOM      9  C   UNL     1       2.667   6.585  19.053  0.00  0.00    +0.000 A 
ATOM     10  N   UNL     1       2.216   5.854  20.083  0.00  0.00    +0.000 NA
ATOM     11  O   UNL     1       1.492   6.717  20.883  0.00  0.00    +0.000 OA
BRANCH   9  12
ATOM     12  C   UNL     1       3.511   6.017  18.005  0.00  0.00    +0.000 A 
ATOM     13  C   UNL     1       4.308   6.850  17.203  0.00  0.00    +0.000 A 
ATOM     14  C   UNL     1       5.126   6.308  16.208  0.00  0.00    +0.000 A 
ATOM     15  C   UNL     1       5.149   4.931  16.005  0.00  0.00    +0.000 A 
ATOM     16 CL   UNL     1       6.164   4.267  14.784  0.00  0.00    +0.000 Cl
ATOM     17  C   UNL     1       4.360   4.090  16.785  0.00  0.00    +0.000 A 
ATOM     18  C   UNL     1       3.545   4.631  17.785  0.00  0.00    +0.000 A 
ENDBRANCH   9  12
ENDBRANCH   5   7
BRANCH   1  20
ATOM     19  C   UNL     1      -1.814  12.539  19.695  0.00  0.00    +0.000 C 
ATOM     20  C   UNL     1      -0.506  12.602  20.494  0.00  0.00    +0.000 C 
BRANCH  20  21
ATOM     21  S   UNL     1       0.943  13.077  19.470  0.00  0.00    +0.000 S 
BRANCH  21  22
ATOM     22  C   UNL     1       1.992  13.874  20.586  0.00  0.00    +0.000 A 
ATOM     23  N   UNL     1       1.828  14.023  21.880  0.00  0.00    +0.000 NA
ATOM     24  N   UNL     1       2.852  14.817  22.349  0.00  0.00    +0.000 NA
ATOM     25  C   UNL     1       3.627  15.106  21.328  0.00  0.00    +0.000 A 
ATOM     26  N   UNL     1       3.139  14.510  20.203  0.00  0.00    +0.000 N 
ATOM     27  C   UNL     1       3.746  14.548  18.900  0.00  0.00    +0.000 C 
ENDBRANCH  21  22
ENDBRANCH  20  21
ENDBRANCH   1  20
TORSDOF 5
ENDMDL
MODEL 8
REMARK VINA RESULT:      -8.0      5.076      9.637
REMARK  Name = 
REMARK  7 active torsions:
REMARK  status: ('A' for Active; 'I' for Inactive)
REMARK    1  A    between atoms: C_1  and  C_2
REMARK    2  A    between atoms: C_2  and  S_3
REMARK    3  A    between atoms: C_2  and  C_10
REMARK    4  A    between atoms: S_3  and  C_4
REMARK    5  A    between atoms: N_8  and  C_9
REMARK    6  A    between atoms: C_14  and  C_15
REMARK    7  A    between atoms: C_17  and  C_18
REMARK                            x       y       z     vdW  Elec       q    Type
REMARK                         _______ _______ _______ _____ _____    ______ ____
ROOT
ATOM      1  C   UNL     1      -0.741  11.484  21.658  0.00  0.00    +0.000 A 
ATOM      2  C   UNL     1      -0.952  10.754  22.840  0.00  0.00    +0.000 A 
ATOM      3  C   UNL     1      -0.426   9.471  22.992  0.00  0.00    +0.000 A 
ATOM      4  C   UNL     1       0.311   8.895  21.961  0.00  0.00    +0.000 A 
ATOM      5  C   UNL     1       0.527   9.583  20.758  0.00  0.00    +0.000 A 
ATOM      6  C   UNL     1      -0.015  10.874  20.616  0.00  0.00    +0.000 A 
ENDROOT
BRANCH   5   7
ATOM      7  C   UNL     1       1.309   8.956  19.699  0.00  0.00    +0.000 A 
ATOM      8  C   UNL     1       2.057   7.806  19.607  0.00  0.00    +0.000 A 
ATOM      9  C   UNL     1       2.550   7.784  18.277  0.00  0.00    +0.000 A 
ATOM     10  N   UNL     1       2.145   8.877  17.615  0.00  0.00    +0.000 NA
ATOM     11  O   UNL     1       1.366   9.599  18.498  0.00  0.00    +0.000 OA
BRANCH   9  12
ATOM     12  C   UNL     1       3.373   6.753  17.649  0.00  0.00    +0.000 A 
ATOM     13  C   UNL     1       4.449   7.110  16.819  0.00  0.00    +0.000 A 
ATOM     14  C   UNL     1       5.246   6.127  16.226  0.00  0.00    +0.000 A 
ATOM     15  C   UNL     1       4.971   4.781  16.457  0.00  0.00    +0.000 A 
ATOM     16 CL   UNL     1       5.961   3.574  15.732  0.00  0.00    +0.000 Cl
ATOM     17  C   UNL     1       3.905   4.409  17.271  0.00  0.00    +0.000 A 
ATOM     18  C   UNL     1       3.110   5.393  17.869  0.00  0.00    +0.000 A 
ENDBRANCH   9  12
ENDBRANCH   5   7
BRANCH   1  20
ATOM     19  C   UNL     1      -2.790  12.880  21.227  0.00  0.00    +0.000 C 
ATOM     20  C   UNL     1      -1.279  12.906  21.491  0.00  0.00    +0.000 C 
BRANCH  20  21
ATOM     21  S   UNL     1      -0.330  13.747  20.164  0.00  0.00    +0.000 S 
BRANCH  21  22
ATOM     22  C   UNL     1       1.230  13.988  20.863  0.00  0.00    +0.000 A 
ATOM     23  N   UNL     1       1.515  14.373  22.086  0.00  0.00    +0.000 NA
ATOM     24  N   UNL     1       2.880  14.539  22.172  0.00  0.00    +0.000 NA
ATOM     25  C   UNL     1       3.390  14.222  21.004  0.00  0.00    +0.000 A 
ATOM     26  N   UNL     1       2.392  13.842  20.157  0.00  0.00    +0.000 N 
ATOM     27  C   UNL     1       2.564  13.371  18.810  0.00  0.00    +0.000 C 
ENDBRANCH  21  22
ENDBRANCH  20  21
ENDBRANCH   1  20
TORSDOF 5
ENDMDL
MODEL 9
REMARK VINA RESULT:      -7.9      4.890      9.748
REMARK  Name = 
REMARK  7 active torsions:
REMARK  status: ('A' for Active; 'I' for Inactive)
REMARK    1  A    between atoms: C_1  and  C_2
REMARK    2  A    between atoms: C_2  and  S_3
REMARK    3  A    between atoms: C_2  and  C_10
REMARK    4  A    between atoms: S_3  and  C_4
REMARK    5  A    between atoms: N_8  and  C_9
REMARK    6  A    between atoms: C_14  and  C_15
REMARK    7  A    between atoms: C_17  and  C_18
REMARK                            x       y       z     vdW  Elec       q    Type
REMARK                         _______ _______ _______ _____ _____    ______ ____
ROOT
ATOM      1  C   UNL     1      -0.514  11.042  20.915  0.00  0.00    +0.000 A 
ATOM      2  C   UNL     1      -0.696  10.901  22.301  0.00  0.00    +0.000 A 
ATOM      3  C   UNL     1      -0.153   9.814  22.987  0.00  0.00    +0.000 A 
ATOM      4  C   UNL     1       0.572   8.848  22.295  0.00  0.00    +0.000 A 
ATOM      5  C   UNL     1       0.759   8.942  20.908  0.00  0.00    +0.000 A 
ATOM      6  C   UNL     1       0.200  10.040  20.229  0.00  0.00    +0.000 A 
ENDROOT
BRANCH   5   7
ATOM      7  C   UNL     1       1.530   7.918  20.213  0.00  0.00    +0.000 A 
ATOM      8  C   UNL     1       2.236   7.880  19.034  0.00  0.00    +0.000 A 
ATOM      9  C   UNL     1       2.763   6.566  18.955  0.00  0.00    +0.000 A 
ATOM     10  N   UNL     1       2.370   5.844  20.014  0.00  0.00    +0.000 NA
ATOM     11  O   UNL     1       1.611   6.691  20.799  0.00  0.00    +0.000 OA
BRANCH   9  12
ATOM     12  C   UNL     1       3.621   6.011  17.910  0.00  0.00    +0.000 A 
ATOM     13  C   UNL     1       3.634   4.630  17.660  0.00  0.00    +0.000 A 
ATOM     14  C   UNL     1       4.446   4.097  16.653  0.00  0.00    +0.000 A 
ATOM     15  C   UNL     1       5.251   4.943  15.894  0.00  0.00    +0.000 A 
ATOM     16 CL   UNL     1       6.241   4.284  14.650  0.00  0.00    +0.000 Cl
ATOM     17  C   UNL     1       5.255   6.313  16.133  0.00  0.00    +0.000 A 
ATOM     18  C   UNL     1       4.441   6.848  17.137  0.00  0.00    +0.000 A 
ENDBRANCH   9  12
ENDBRANCH   5   7
BRANCH   1  20
ATOM     19  C   UNL     1      -0.595  12.230  18.697  0.00  0.00    +0.000 C 
ATOM     20  C   UNL     1      -1.072  12.247  20.155  0.00  0.00    +0.000 C 
BRANCH  20  21
ATOM     21  S   UNL     1      -0.601  13.781  21.049  0.00  0.00    +0.000 S 
BRANCH  21  22
ATOM     22  C   UNL     1       1.077  13.966  20.693  0.00  0.00    +0.000 A 
ATOM     23  N   UNL     1       2.091  13.327  21.230  0.00  0.00    +0.000 NA
ATOM     24  N   UNL     1       3.252  13.872  20.727  0.00  0.00    +0.000 NA
ATOM     25  C   UNL     1       2.910  14.811  19.875  0.00  0.00    +0.000 A 
ATOM     26  N   UNL     1       1.552  14.887  19.800  0.00  0.00    +0.000 N 
ATOM     27  C   UNL     1       0.803  15.756  18.933  0.00  0.00    +0.000 C 
ENDBRANCH  21  22
ENDBRANCH  20  21
ENDBRANCH   1  20
TORSDOF 5
ENDMDL
