MODEL 1
REMARK VINA RESULT:      -8.2      0.000      0.000
REMARK  Name = 
REMARK  11 active torsions:
REMARK  status: ('A' for Active; 'I' for Inactive)
REMARK    1  A    between atoms: C_1  and  C_2
REMARK    2  A    between atoms: C_2  and  S_3
REMARK    3  A    between atoms: C_2  and  C_10
REMARK    4  A    between atoms: S_3  and  C_4
REMARK    5  A    between atoms: N_8  and  C_9
REMARK    6  A    between atoms: C_14  and  N_15
REMARK    7  A    between atoms: C_16  and  C_18
REMARK    8  A    between atoms: C_20  and  C_21
REMARK    9  A    between atoms: C_26  and  N_27
REMARK   10  A    between atoms: N_27  and  C_28
REMARK   11  A    between atoms: N_27  and  C_29
REMARK                            x       y       z     vdW  Elec       q    Type
REMARK                         _______ _______ _______ _____ _____    ______ ____
ROOT
ATOM      1  N   UNL     1       2.268   7.239  20.195  0.00  0.00    +0.000 N 
ATOM      2  C   UNL     1       1.947   5.911  20.510  0.00  0.00    +0.000 C 
ATOM      3  O   UNL     1       0.932   5.512  21.072  0.00  0.00    +0.000 OA
ATOM      4  H   UNL     1       3.084   7.388  19.623  0.00  0.00    +0.000 HD
ENDROOT
BRANCH   1   9
ATOM      5  C   UNL     1       0.312  10.428  19.957  0.00  0.00    +0.000 A 
ATOM      6  C   UNL     1      -0.015  10.626  21.302  0.00  0.00    +0.000 A 
ATOM      7  C   UNL     1       0.408   9.707  22.272  0.00  0.00    +0.000 A 
ATOM      8  C   UNL     1       1.142   8.596  21.892  0.00  0.00    +0.000 A 
ATOM      9  C   UNL     1       1.479   8.357  20.575  0.00  0.00    +0.000 A 
ATOM     10  C   UNL     1       1.054   9.282  19.592  0.00  0.00    +0.000 A 
BRANCH   5  12
ATOM     11  C   UNL     1       1.100  12.441  18.686  0.00  0.00    +0.000 C 
ATOM     12  C   UNL     1      -0.047  11.446  18.869  0.00  0.00    +0.000 C 
BRANCH  12  13
ATOM     13  S   UNL     1      -1.715  12.134  19.153  0.00  0.00    +0.000 S 
BRANCH  13  14
ATOM     14  C   UNL     1      -2.658  11.678  17.769  0.00  0.00    +0.000 A 
ATOM     15  N   UNL     1      -2.253  11.294  16.581  0.00  0.00    +0.000 NA
ATOM     16  N   UNL     1      -3.375  10.990  15.834  0.00  0.00    +0.000 NA
ATOM     17  C   UNL     1      -4.431  11.182  16.595  0.00  0.00    +0.000 A 
ATOM     18  N   UNL     1      -4.025  11.625  17.821  0.00  0.00    +0.000 N 
ATOM     19  C   UNL     1      -4.882  11.974  18.918  0.00  0.00    +0.000 C 
ENDBRANCH  13  14
ENDBRANCH  12  13
ENDBRANCH   5  12
ENDBRANCH   1   9
BRANCH   2  20
ATOM     20  C   UNL     1       2.921   4.880  20.038  0.00  0.00    +0.000 A 
ATOM     21  C   UNL     1       4.023   5.271  19.282  0.00  0.00    +0.000 A 
ATOM     22  C   UNL     1       4.945   4.281  18.928  0.00  0.00    +0.000 A 
ATOM     23  C   UNL     1       4.707   2.964  19.311  0.00  0.00    +0.000 A 
ATOM     24  C   UNL     1       3.585   2.679  20.051  0.00  0.00    +0.000 A 
ATOM     25  N   UNL     1       2.672   3.602  20.427  0.00  0.00    +0.000 NA
BRANCH  22  26
ATOM     26  C   UNL     1       6.129   4.639  18.095  0.00  0.00    +0.000 C 
ATOM     27  O   UNL     1       7.234   4.615  18.612  0.00  0.00    +0.000 OA
ATOM     28  N   UNL     1       5.916   4.993  16.773  0.00  0.00    +0.000 N 
ATOM     29  C   UNL     1       4.676   5.068  16.037  0.00  0.00    +0.000 C 
ATOM     30  C   UNL     1       5.060   4.591  14.660  0.00  0.00    +0.000 C 
ATOM     31  C   UNL     1       6.453   5.219  14.447  0.00  0.00    +0.000 C 
ATOM     32  C   UNL     1       7.031   5.289  15.891  0.00  0.00    +0.000 C 
BRANCH  31  33
ATOM     33  N   UNL     1       7.280   4.461  13.488  0.00  0.00    +0.000 NA
ATOM     34  C   UNL     1       8.048   5.355  12.616  0.00  0.00    +0.000 C 
ATOM     35  C   UNL     1       6.483   3.550  12.663  0.00  0.00    +0.000 C 
ENDBRANCH  31  33
ENDBRANCH  22  26
ENDBRANCH   2  20
TORSDOF 7
ENDMDL
MODEL 2
REMARK VINA RESULT:      -8.1      3.585     11.153
REMARK  Name = 
REMARK  11 active torsions:
REMARK  status: ('A' for Active; 'I' for Inactive)
REMARK    1  A    between atoms: C_1  and  C_2
REMARK    2  A    between atoms: C_2  and  S_3
REMARK    3  A    between atoms: C_2  and  C_10
REMARK    4  A    between atoms: S_3  and  C_4
REMARK    5  A    between atoms: N_8  and  C_9
REMARK    6  A    between atoms: C_14  and  N_15
REMARK    7  A    between atoms: C_16  and  C_18
REMARK    8  A    between atoms: C_20  and  C_21
REMARK    9  A    between atoms: C_26  and  N_27
REMARK   10  A    between atoms: N_27  and  C_28
REMARK   11  A    between atoms: N_27  and  C_29
REMARK                            x       y       z     vdW  Elec       q    Type
REMARK                         _______ _______ _______ _____ _____    ______ ____
ROOT
ATOM      1  N   UNL     1       2.198   8.023  19.118  0.00  0.00    +0.000 N 
ATOM      2  C   UNL     1       1.641   9.061  18.358  0.00  0.00    +0.000 C 
ATOM      3  O   UNL     1       1.329   9.020  17.172  0.00  0.00    +0.000 OA
ATOM      4  H   UNL     1       2.282   8.178  20.110  0.00  0.00    +0.000 HD
ENDROOT
BRANCH   1   9
ATOM      5  C   UNL     1       4.298   5.318  17.593  0.00  0.00    +0.000 A 
ATOM      6  C   UNL     1       3.341   4.310  17.442  0.00  0.00    +0.000 A 
ATOM      7  C   UNL     1       2.018   4.529  17.846  0.00  0.00    +0.000 A 
ATOM      8  C   UNL     1       1.662   5.744  18.407  0.00  0.00    +0.000 A 
ATOM      9  C   UNL     1       2.576   6.763  18.583  0.00  0.00    +0.000 A 
ATOM     10  C   UNL     1       3.914   6.547  18.176  0.00  0.00    +0.000 A 
BRANCH   5  12
ATOM     11  C   UNL     1       6.340   6.542  16.805  0.00  0.00    +0.000 C 
ATOM     12  C   UNL     1       5.736   5.165  17.087  0.00  0.00    +0.000 C 
BRANCH  12  13
ATOM     13  S   UNL     1       5.821   3.924  15.749  0.00  0.00    +0.000 S 
BRANCH  13  14
ATOM     14  C   UNL     1       6.812   4.630  14.509  0.00  0.00    +0.000 A 
ATOM     15  N   UNL     1       7.796   5.491  14.627  0.00  0.00    +0.000 NA
ATOM     16  N   UNL     1       8.310   5.713  13.363  0.00  0.00    +0.000 NA
ATOM     17  C   UNL     1       7.633   4.969  12.516  0.00  0.00    +0.000 A 
ATOM     18  N   UNL     1       6.673   4.276  13.195  0.00  0.00    +0.000 N 
ATOM     19  C   UNL     1       5.713   3.378  12.618  0.00  0.00    +0.000 C 
ENDBRANCH  13  14
ENDBRANCH  12  13
ENDBRANCH   5  12
ENDBRANCH   1   9
BRANCH   2  20
ATOM     20  C   UNL     1       1.333  10.318  19.106  0.00  0.00    +0.000 A 
ATOM     21  C   UNL     1       0.461  10.276  20.191  0.00  0.00    +0.000 A 
ATOM     22  C   UNL     1       0.263  11.462  20.905  0.00  0.00    +0.000 A 
ATOM     23  C   UNL     1       0.907  12.622  20.485  0.00  0.00    +0.000 A 
ATOM     24  C   UNL     1       1.743  12.562  19.395  0.00  0.00    +0.000 A 
ATOM     25  N   UNL     1       1.976  11.438  18.682  0.00  0.00    +0.000 NA
BRANCH  22  26
ATOM     26  C   UNL     1      -0.680  11.480  22.060  0.00  0.00    +0.000 C 
ATOM     27  O   UNL     1      -0.302  11.030  23.129  0.00  0.00    +0.000 OA
ATOM     28  N   UNL     1      -1.949  11.999  21.859  0.00  0.00    +0.000 N 
ATOM     29  C   UNL     1      -2.528  12.557  20.660  0.00  0.00    +0.000 C 
ATOM     30  C   UNL     1      -3.388  13.680  21.179  0.00  0.00    +0.000 C 
ATOM     31  C   UNL     1      -3.996  13.091  22.468  0.00  0.00    +0.000 C 
ATOM     32  C   UNL     1      -2.893  12.106  22.958  0.00  0.00    +0.000 C 
BRANCH  31  33
ATOM     33  N   UNL     1      -4.374  14.128  23.447  0.00  0.00    +0.000 NA
ATOM     34  C   UNL     1      -5.819  14.132  23.695  0.00  0.00    +0.000 C 
ATOM     35  C   UNL     1      -3.953  15.467  23.030  0.00  0.00    +0.000 C 
ENDBRANCH  31  33
ENDBRANCH  22  26
ENDBRANCH   2  20
TORSDOF 7
ENDMDL
MODEL 3
REMARK VINA RESULT:      -7.9      3.330     10.634
REMARK  Name = 
REMARK  11 active torsions:
REMARK  status: ('A' for Active; 'I' for Inactive)
REMARK    1  A    between atoms: C_1  and  C_2
REMARK    2  A    between atoms: C_2  and  S_3
REMARK    3  A    between atoms: C_2  and  C_10
REMARK    4  A    between atoms: S_3  and  C_4
REMARK    5  A    between atoms: N_8  and  C_9
REMARK    6  A    between atoms: C_14  and  N_15
REMARK    7  A    between atoms: C_16  and  C_18
REMARK    8  A    between atoms: C_20  and  C_21
REMARK    9  A    between atoms: C_26  and  N_27
REMARK   10  A    between atoms: N_27  and  C_28
REMARK   11  A    between atoms: N_27  and  C_29
REMARK                            x       y       z     vdW  Elec       q    Type
REMARK                         _______ _______ _______ _____ _____    ______ ____
ROOT
ATOM      1  N   UNL     1       1.365   8.536  19.549  0.00  0.00    +0.000 N 
ATOM      2  C   UNL     1       1.603   9.447  18.510  0.00  0.00    +0.000 C 
ATOM      3  O   UNL     1       2.243   9.241  17.483  0.00  0.00    +0.000 OA
ATOM      4  H   UNL     1       0.717   8.821  20.266  0.00  0.00    +0.000 HD
ENDROOT
BRANCH   1   9
ATOM      5  C   UNL     1       3.128   5.400  18.496  0.00  0.00    +0.000 A 
ATOM      6  C   UNL     1       2.969   4.622  19.646  0.00  0.00    +0.000 A 
ATOM      7  C   UNL     1       2.287   5.137  20.756  0.00  0.00    +0.000 A 
ATOM      8  C   UNL     1       1.781   6.425  20.715  0.00  0.00    +0.000 A 
ATOM      9  C   UNL     1       1.923   7.231  19.603  0.00  0.00    +0.000 A 
ATOM     10  C   UNL     1       2.611   6.715  18.480  0.00  0.00    +0.000 A 
BRANCH   5  12
ATOM     11  C   UNL     1       4.006   3.347  17.353  0.00  0.00    +0.000 C 
ATOM     12  C   UNL     1       3.785   4.855  17.223  0.00  0.00    +0.000 C 
BRANCH  12  13
ATOM     13  S   UNL     1       5.226   5.876  16.753  0.00  0.00    +0.000 S 
BRANCH  13  14
ATOM     14  C   UNL     1       6.334   5.772  18.086  0.00  0.00    +0.000 A 
ATOM     15  N   UNL     1       6.390   4.882  19.049  0.00  0.00    +0.000 NA
ATOM     16  N   UNL     1       7.477   5.193  19.844  0.00  0.00    +0.000 NA
ATOM     17  C   UNL     1       8.061   6.255  19.331  0.00  0.00    +0.000 A 
ATOM     18  N   UNL     1       7.368   6.658  18.227  0.00  0.00    +0.000 N 
ATOM     19  C   UNL     1       7.674   7.796  17.407  0.00  0.00    +0.000 C 
ENDBRANCH  13  14
ENDBRANCH  12  13
ENDBRANCH   5  12
ENDBRANCH   1   9
BRANCH   2  20
ATOM     20  C   UNL     1       0.940  10.778  18.651  0.00  0.00    +0.000 A 
ATOM     21  C   UNL     1      -0.350  10.852  19.172  0.00  0.00    +0.000 A 
ATOM     22  C   UNL     1      -0.899  12.125  19.355  0.00  0.00    +0.000 A 
ATOM     23  C   UNL     1      -0.159  13.243  18.981  0.00  0.00    +0.000 A 
ATOM     24  C   UNL     1       1.104  13.065  18.469  0.00  0.00    +0.000 A 
ATOM     25  N   UNL     1       1.682  11.857  18.285  0.00  0.00    +0.000 NA
BRANCH  22  26
ATOM     26  C   UNL     1      -2.287  12.261  19.883  0.00  0.00    +0.000 C 
ATOM     27  O   UNL     1      -2.442  12.725  21.001  0.00  0.00    +0.000 OA
ATOM     28  N   UNL     1      -3.336  11.843  19.081  0.00  0.00    +0.000 N 
ATOM     29  C   UNL     1      -3.301  11.278  17.753  0.00  0.00    +0.000 C 
ATOM     30  C   UNL     1      -4.525  11.859  17.095  0.00  0.00    +0.000 C 
ATOM     31  C   UNL     1      -5.576  11.834  18.224  0.00  0.00    +0.000 C 
ATOM     32  C   UNL     1      -4.714  12.008  19.509  0.00  0.00    +0.000 C 
BRANCH  31  33
ATOM     33  N   UNL     1      -6.630  12.853  18.046  0.00  0.00    +0.000 NA
ATOM     34  C   UNL     1      -6.555  13.477  16.721  0.00  0.00    +0.000 C 
ATOM     35  C   UNL     1      -6.577  13.893  19.074  0.00  0.00    +0.000 C 
ENDBRANCH  31  33
ENDBRANCH  22  26
ENDBRANCH   2  20
TORSDOF 7
ENDMDL
MODEL 4
REMARK VINA RESULT:      -7.9      4.219      9.550
REMARK  Name = 
REMARK  11 active torsions:
REMARK  status: ('A' for Active; 'I' for Inactive)
REMARK    1  A    between atoms: C_1  and  C_2
REMARK    2  A    between atoms: C_2  and  S_3
REMARK    3  A    between atoms: C_2  and  C_10
REMARK    4  A    between atoms: S_3  and  C_4
REMARK    5  A    between atoms: N_8  and  C_9
REMARK    6  A    between atoms: C_14  and  N_15
REMARK    7  A    between atoms: C_16  and  C_18
REMARK    8  A    between atoms: C_20  and  C_21
REMARK    9  A    between atoms: C_26  and  N_27
REMARK   10  A    between atoms: N_27  and  C_28
REMARK   11  A    between atoms: N_27  and  C_29
REMARK                            x       y       z     vdW  Elec       q    Type
REMARK                         _______ _______ _______ _____ _____    ______ ____
ROOT
ATOM      1  N   UNL     1       1.667   8.812  19.744  0.00  0.00    +0.000 N 
ATOM      2  C   UNL     1       1.102   9.520  18.674  0.00  0.00    +0.000 C 
ATOM      3  O   UNL     1       0.740   9.059  17.595  0.00  0.00    +0.000 OA
ATOM      4  H   UNL     1       1.797   9.316  20.607  0.00  0.00    +0.000 HD
ENDROOT
BRANCH   1   9
ATOM      5  C   UNL     1       2.985   5.532  18.495  0.00  0.00    +0.000 A 
ATOM      6  C   UNL     1       2.581   4.686  19.531  0.00  0.00    +0.000 A 
ATOM      7  C   UNL     1       1.882   5.202  20.630  0.00  0.00    +0.000 A 
ATOM      8  C   UNL     1       1.603   6.557  20.693  0.00  0.00    +0.000 A 
ATOM      9  C   UNL     1       1.992   7.430  19.697  0.00  0.00    +0.000 A 
ATOM     10  C   UNL     1       2.698   6.913  18.584  0.00  0.00    +0.000 A 
BRANCH   5  12
ATOM     11  C   UNL     1       3.895   3.499  17.343  0.00  0.00    +0.000 C 
ATOM     12  C   UNL     1       3.672   5.008  17.229  0.00  0.00    +0.000 C 
BRANCH  12  13
ATOM     13  S   UNL     1       5.119   6.039  16.805  0.00  0.00    +0.000 S 
BRANCH  13  14
ATOM     14  C   UNL     1       6.239   5.846  18.117  0.00  0.00    +0.000 A 
ATOM     15  N   UNL     1       6.255   4.938  19.065  0.00  0.00    +0.000 NA
ATOM     16  N   UNL     1       7.372   5.169  19.846  0.00  0.00    +0.000 NA
ATOM     17  C   UNL     1       8.011   6.202  19.341  0.00  0.00    +0.000 A 
ATOM     18  N   UNL     1       7.327   6.665  18.255  0.00  0.00    +0.000 N 
ATOM     19  C   UNL     1       7.690   7.796  17.449  0.00  0.00    +0.000 C 
ENDBRANCH  13  14
ENDBRANCH  12  13
ENDBRANCH   5  12
ENDBRANCH   1   9
BRANCH   2  20
ATOM     20  C   UNL     1       0.856  10.974  18.917  0.00  0.00    +0.000 A 
ATOM     21  C   UNL     1       1.838  11.743  19.536  0.00  0.00    +0.000 A 
ATOM     22  C   UNL     1       1.592  13.113  19.674  0.00  0.00    +0.000 A 
ATOM     23  C   UNL     1       0.382  13.633  19.225  0.00  0.00    +0.000 A 
ATOM     24  C   UNL     1      -0.527  12.789  18.633  0.00  0.00    +0.000 A 
ATOM     25  N   UNL     1      -0.330  11.462  18.466  0.00  0.00    +0.000 NA
BRANCH  22  26
ATOM     26  C   UNL     1       2.598  13.979  20.354  0.00  0.00    +0.000 C 
ATOM     27  O   UNL     1       2.569  14.060  21.571  0.00  0.00    +0.000 OA
ATOM     28  N   UNL     1       3.511  14.661  19.568  0.00  0.00    +0.000 N 
ATOM     29  C   UNL     1       3.658  14.663  18.131  0.00  0.00    +0.000 C 
ATOM     30  C   UNL     1       5.150  14.738  17.933  0.00  0.00    +0.000 C 
ATOM     31  C   UNL     1       5.602  15.712  19.041  0.00  0.00    +0.000 C 
ATOM     32  C   UNL     1       4.557  15.469  20.170  0.00  0.00    +0.000 C 
BRANCH  31  33
ATOM     33  N   UNL     1       7.006  15.503  19.445  0.00  0.00    +0.000 NA
ATOM     34  C   UNL     1       7.754  14.760  18.427  0.00  0.00    +0.000 C 
ATOM     35  C   UNL     1       7.118  14.809  20.730  0.00  0.00    +0.000 C 
ENDBRANCH  31  33
ENDBRANCH  22  26
ENDBRANCH   2  20
TORSDOF 7
ENDMDL
MODEL 5
REMARK VINA RESULT:      -7.9      3.536      9.952
REMARK  Name = 
REMARK  11 active torsions:
REMARK  status: ('A' for Active; 'I' for Inactive)
REMARK    1  A    between atoms: C_1  and  C_2
REMARK    2  A    between atoms: C_2  and  S_3
REMARK    3  A    between atoms: C_2  and  C_10
REMARK    4  A    between atoms: S_3  and  C_4
REMARK    5  A    between atoms: N_8  and  C_9
REMARK    6  A    between atoms: C_14  and  N_15
REMARK    7  A    between atoms: C_16  and  C_18
REMARK    8  A    between atoms: C_20  and  C_21
REMARK    9  A    between atoms: C_26  and  N_27
REMARK   10  A    between atoms: N_27  and  C_28
REMARK   11  A    between atoms: N_27  and  C_29
REMARK                            x       y       z     vdW  Elec       q    Type
REMARK                         _______ _______ _______ _____ _____    ______ ____
ROOT
ATOM      1  N   UNL     1       2.080   6.934  18.810  0.00  0.00    +0.000 N 
ATOM      2  C   UNL     1       1.885   7.013  20.196  0.00  0.00    +0.000 C 
ATOM      3  O   UNL     1       2.175   6.161  21.030  0.00  0.00    +0.000 OA
ATOM      4  H   UNL     1       1.901   7.769  18.275  0.00  0.00    +0.000 HD
ENDROOT
BRANCH   1   9
ATOM      5  C   UNL     1       4.292   4.724  16.742  0.00  0.00    +0.000 A 
ATOM      6  C   UNL     1       3.544   3.544  16.743  0.00  0.00    +0.000 A 
ATOM      7  C   UNL     1       2.321   3.486  17.426  0.00  0.00    +0.000 A 
ATOM      8  C   UNL     1       1.863   4.599  18.110  0.00  0.00    +0.000 A 
ATOM      9  C   UNL     1       2.574   5.781  18.143  0.00  0.00    +0.000 A 
ATOM     10  C   UNL     1       3.809   5.845  17.455  0.00  0.00    +0.000 A 
BRANCH   5  12
ATOM     11  C   UNL     1       5.530   3.995  14.685  0.00  0.00    +0.000 C 
ATOM     12  C   UNL     1       5.590   4.871  15.939  0.00  0.00    +0.000 C 
BRANCH  12  13
ATOM     13  S   UNL     1       7.046   4.680  17.025  0.00  0.00    +0.000 S 
BRANCH  13  14
ATOM     14  C   UNL     1       7.537   6.291  17.447  0.00  0.00    +0.000 A 
ATOM     15  N   UNL     1       7.498   7.385  16.722  0.00  0.00    +0.000 NA
ATOM     16  N   UNL     1       7.949   8.426  17.512  0.00  0.00    +0.000 NA
ATOM     17  C   UNL     1       8.233   7.937  18.700  0.00  0.00    +0.000 A 
ATOM     18  N   UNL     1       7.996   6.593  18.700  0.00  0.00    +0.000 N 
ATOM     19  C   UNL     1       8.211   5.699  19.803  0.00  0.00    +0.000 C 
ENDBRANCH  13  14
ENDBRANCH  12  13
ENDBRANCH   5  12
ENDBRANCH   1   9
BRANCH   2  20
ATOM     20  C   UNL     1       1.334   8.307  20.700  0.00  0.00    +0.000 A 
ATOM     21  C   UNL     1       0.997   9.310  19.794  0.00  0.00    +0.000 A 
ATOM     22  C   UNL     1       0.415  10.473  20.307  0.00  0.00    +0.000 A 
ATOM     23  C   UNL     1       0.234  10.591  21.682  0.00  0.00    +0.000 A 
ATOM     24  C   UNL     1       0.607   9.547  22.494  0.00  0.00    +0.000 A 
ATOM     25  N   UNL     1       1.161   8.399  22.045  0.00  0.00    +0.000 NA
BRANCH  22  26
ATOM     26  C   UNL     1       0.059  11.590  19.385  0.00  0.00    +0.000 C 
ATOM     27  O   UNL     1      -0.837  11.415  18.575  0.00  0.00    +0.000 OA
ATOM     28  N   UNL     1       0.774  12.772  19.484  0.00  0.00    +0.000 N 
ATOM     29  C   UNL     1       1.851  13.116  20.382  0.00  0.00    +0.000 C 
ATOM     30  C   UNL     1       1.599  14.570  20.688  0.00  0.00    +0.000 C 
ATOM     31  C   UNL     1       1.135  15.139  19.332  0.00  0.00    +0.000 C 
ATOM     32  C   UNL     1       0.435  13.920  18.661  0.00  0.00    +0.000 C 
BRANCH  31  33
ATOM     33  N   UNL     1       0.284  16.336  19.476  0.00  0.00    +0.000 NA
ATOM     34  C   UNL     1      -0.093  16.888  18.171  0.00  0.00    +0.000 C 
ATOM     35  C   UNL     1       0.926  17.382  20.275  0.00  0.00    +0.000 C 
ENDBRANCH  31  33
ENDBRANCH  22  26
ENDBRANCH   2  20
TORSDOF 7
ENDMDL
MODEL 6
REMARK VINA RESULT:      -7.9      3.592     11.032
REMARK  Name = 
REMARK  11 active torsions:
REMARK  status: ('A' for Active; 'I' for Inactive)
REMARK    1  A    between atoms: C_1  and  C_2
REMARK    2  A    between atoms: C_2  and  S_3
REMARK    3  A    between atoms: C_2  and  C_10
REMARK    4  A    between atoms: S_3  and  C_4
REMARK    5  A    between atoms: N_8  and  C_9
REMARK    6  A    between atoms: C_14  and  N_15
REMARK    7  A    between atoms: C_16  and  C_18
REMARK    8  A    between atoms: C_20  and  C_21
REMARK    9  A    between atoms: C_26  and  N_27
REMARK   10  A    between atoms: N_27  and  C_28
REMARK   11  A    between atoms: N_27  and  C_29
REMARK                            x       y       z     vdW  Elec       q    Type
REMARK                         _______ _______ _______ _____ _____    ______ ____
ROOT
ATOM      1  N   UNL     1       1.845   8.161  19.908  0.00  0.00    +0.000 N 
ATOM      2  C   UNL     1       1.414   9.049  18.912  0.00  0.00    +0.000 C 
ATOM      3  O   UNL     1       1.259   8.800  17.720  0.00  0.00    +0.000 OA
ATOM      4  H   UNL     1       1.803   8.488  20.860  0.00  0.00    +0.000 HD
ENDROOT
BRANCH   1   9
ATOM      5  C   UNL     1       3.387   5.207  18.191  0.00  0.00    +0.000 A 
ATOM      6  C   UNL     1       3.034   4.186  19.077  0.00  0.00    +0.000 A 
ATOM      7  C   UNL     1       2.296   4.480  20.232  0.00  0.00    +0.000 A 
ATOM      8  C   UNL     1       1.927   5.788  20.497  0.00  0.00    +0.000 A 
ATOM      9  C   UNL     1       2.262   6.828  19.654  0.00  0.00    +0.000 A 
ATOM     10  C   UNL     1       3.008   6.536  18.487  0.00  0.00    +0.000 A 
BRANCH   5  12
ATOM     11  C   UNL     1       4.486   3.449  16.779  0.00  0.00    +0.000 C 
ATOM     12  C   UNL     1       4.115   4.930  16.870  0.00  0.00    +0.000 C 
BRANCH  12  13
ATOM     13  S   UNL     1       5.452   6.146  16.603  0.00  0.00    +0.000 S 
BRANCH  13  14
ATOM     14  C   UNL     1       6.573   5.913  17.908  0.00  0.00    +0.000 A 
ATOM     15  N   UNL     1       6.723   4.872  18.694  0.00  0.00    +0.000 NA
ATOM     16  N   UNL     1       7.779   5.140  19.545  0.00  0.00    +0.000 NA
ATOM     17  C   UNL     1       8.250   6.330  19.242  0.00  0.00    +0.000 A 
ATOM     18  N   UNL     1       7.513   6.857  18.221  0.00  0.00    +0.000 N 
ATOM     19  C   UNL     1       7.699   8.150  17.626  0.00  0.00    +0.000 C 
ENDBRANCH  13  14
ENDBRANCH  12  13
ENDBRANCH   5  12
ENDBRANCH   1   9
BRANCH   2  20
ATOM     20  C   UNL     1       1.039  10.417  19.382  0.00  0.00    +0.000 A 
ATOM     21  C   UNL     1       0.173  10.559  20.464  0.00  0.00    +0.000 A 
ATOM     22  C   UNL     1      -0.089  11.856  20.915  0.00  0.00    +0.000 A 
ATOM     23  C   UNL     1       0.489  12.934  20.251  0.00  0.00    +0.000 A 
ATOM     24  C   UNL     1       1.325  12.691  19.187  0.00  0.00    +0.000 A 
ATOM     25  N   UNL     1       1.618  11.455  18.723  0.00  0.00    +0.000 NA
BRANCH  22  26
ATOM     26  C   UNL     1      -1.029  12.067  22.053  0.00  0.00    +0.000 C 
ATOM     27  O   UNL     1      -0.608  11.932  23.190  0.00  0.00    +0.000 OA
ATOM     28  N   UNL     1      -2.343  12.395  21.763  0.00  0.00    +0.000 N 
ATOM     29  C   UNL     1      -2.975  12.582  20.478  0.00  0.00    +0.000 C 
ATOM     30  C   UNL     1      -3.943  13.710  20.727  0.00  0.00    +0.000 C 
ATOM     31  C   UNL     1      -4.489  13.400  22.135  0.00  0.00    +0.000 C 
ATOM     32  C   UNL     1      -3.293  12.677  22.824  0.00  0.00    +0.000 C 
BRANCH  31  33
ATOM     33  N   UNL     1      -4.969  14.605  22.840  0.00  0.00    +0.000 NA
ATOM     34  C   UNL     1      -6.403  14.818  22.624  0.00  0.00    +0.000 C 
ATOM     35  C   UNL     1      -4.237  15.810  22.444  0.00  0.00    +0.000 C 
ENDBRANCH  31  33
ENDBRANCH  22  26
ENDBRANCH   2  20
TORSDOF 7
ENDMDL
MODEL 7
REMARK VINA RESULT:      -7.8      3.546      9.855
REMARK  Name = 
REMARK  11 active torsions:
REMARK  status: ('A' for Active; 'I' for Inactive)
REMARK    1  A    between atoms: C_1  and  C_2
REMARK    2  A    between atoms: C_2  and  S_3
REMARK    3  A    between atoms: C_2  and  C_10
REMARK    4  A    between atoms: S_3  and  C_4
REMARK    5  A    between atoms: N_8  and  C_9
REMARK    6  A    between atoms: C_14  and  N_15
REMARK    7  A    between atoms: C_16  and  C_18
REMARK    8  A    between atoms: C_20  and  C_21
REMARK    9  A    between atoms: C_26  and  N_27
REMARK   10  A    between atoms: N_27  and  C_28
REMARK   11  A    between atoms: N_27  and  C_29
REMARK                            x       y       z     vdW  Elec       q    Type
REMARK                         _______ _______ _______ _____ _____    ______ ____
ROOT
ATOM      1  N   UNL     1       2.550   7.007  18.775  0.00  0.00    +0.000 N 
ATOM      2  C   UNL     1       1.995   6.983  20.062  0.00  0.00    +0.000 C 
ATOM      3  O   UNL     1       1.986   6.036  20.843  0.00  0.00    +0.000 OA
ATOM      4  H   UNL     1       2.583   7.899  18.309  0.00  0.00    +0.000 HD
ENDROOT
BRANCH   1   9
ATOM      5  C   UNL     1       4.661   4.941  16.466  0.00  0.00    +0.000 A 
ATOM      6  C   UNL     1       4.212   3.659  16.792  0.00  0.00    +0.000 A 
ATOM      7  C   UNL     1       3.223   3.486  17.770  0.00  0.00    +0.000 A 
ATOM      8  C   UNL     1       2.699   4.590  18.420  0.00  0.00    +0.000 A 
ATOM      9  C   UNL     1       3.120   5.874  18.136  0.00  0.00    +0.000 A 
ATOM     10  C   UNL     1       4.119   6.053  17.150  0.00  0.00    +0.000 A 
BRANCH   5  12
ATOM     11  C   UNL     1       5.222   4.490  14.064  0.00  0.00    +0.000 C 
ATOM     12  C   UNL     1       5.674   5.194  15.344  0.00  0.00    +0.000 C 
BRANCH  12  13
ATOM     13  S   UNL     1       7.375   4.866  15.924  0.00  0.00    +0.000 S 
BRANCH  13  14
ATOM     14  C   UNL     1       7.375   5.227  17.623  0.00  0.00    +0.000 A 
ATOM     15  N   UNL     1       7.255   4.409  18.643  0.00  0.00    +0.000 NA
ATOM     16  N   UNL     1       7.366   5.161  19.797  0.00  0.00    +0.000 NA
ATOM     17  C   UNL     1       7.567   6.413  19.445  0.00  0.00    +0.000 A 
ATOM     18  N   UNL     1       7.571   6.500  18.083  0.00  0.00    +0.000 N 
ATOM     19  C   UNL     1       7.733   7.703  17.315  0.00  0.00    +0.000 C 
ENDBRANCH  13  14
ENDBRANCH  12  13
ENDBRANCH   5  12
ENDBRANCH   1   9
BRANCH   2  20
ATOM     20  C   UNL     1       1.425   8.277  20.546  0.00  0.00    +0.000 A 
ATOM     21  C   UNL     1       1.158   9.294  19.633  0.00  0.00    +0.000 A 
ATOM     22  C   UNL     1       0.554  10.457  20.122  0.00  0.00    +0.000 A 
ATOM     23  C   UNL     1       0.284  10.560  21.484  0.00  0.00    +0.000 A 
ATOM     24  C   UNL     1       0.593   9.502  22.305  0.00  0.00    +0.000 A 
ATOM     25  N   UNL     1       1.164   8.354  21.878  0.00  0.00    +0.000 NA
BRANCH  22  26
ATOM     26  C   UNL     1       0.271  11.589  19.193  0.00  0.00    +0.000 C 
ATOM     27  O   UNL     1      -0.676  11.493  18.430  0.00  0.00    +0.000 OA
ATOM     28  N   UNL     1       1.106  12.693  19.235  0.00  0.00    +0.000 N 
ATOM     29  C   UNL     1       2.254  12.939  20.075  0.00  0.00    +0.000 C 
ATOM     30  C   UNL     1       2.166  14.416  20.361  0.00  0.00    +0.000 C 
ATOM     31  C   UNL     1       1.699  15.007  19.015  0.00  0.00    +0.000 C 
ATOM     32  C   UNL     1       0.847  13.855  18.403  0.00  0.00    +0.000 C 
BRANCH  31  33
ATOM     33  N   UNL     1       0.982  16.288  19.172  0.00  0.00    +0.000 NA
ATOM     34  C   UNL     1      -0.469  16.107  19.069  0.00  0.00    +0.000 C 
ATOM     35  C   UNL     1       1.415  17.291  18.197  0.00  0.00    +0.000 C 
ENDBRANCH  31  33
ENDBRANCH  22  26
ENDBRANCH   2  20
TORSDOF 7
ENDMDL
MODEL 8
REMARK VINA RESULT:      -7.8      3.478     10.449
REMARK  Name = 
REMARK  11 active torsions:
REMARK  status: ('A' for Active; 'I' for Inactive)
REMARK    1  A    between atoms: C_1  and  C_2
REMARK    2  A    between atoms: C_2  and  S_3
REMARK    3  A    between atoms: C_2  and  C_10
REMARK    4  A    between atoms: S_3  and  C_4
REMARK    5  A    between atoms: N_8  and  C_9
REMARK    6  A    between atoms: C_14  and  N_15
REMARK    7  A    between atoms: C_16  and  C_18
REMARK    8  A    between atoms: C_20  and  C_21
REMARK    9  A    between atoms: C_26  and  N_27
REMARK   10  A    between atoms: N_27  and  C_28
REMARK   11  A    between atoms: N_27  and  C_29
REMARK                            x       y       z     vdW  Elec       q    Type
REMARK                         _______ _______ _______ _____ _____    ______ ____
ROOT
ATOM      1  N   UNL     1       1.630   7.958  19.427  0.00  0.00    +0.000 N 
ATOM      2  C   UNL     1       2.046   8.757  18.352  0.00  0.00    +0.000 C 
ATOM      3  O   UNL     1       2.719   8.403  17.388  0.00  0.00    +0.000 OA
ATOM      4  H   UNL     1       0.979   8.369  20.076  0.00  0.00    +0.000 HD
ENDROOT
BRANCH   1   9
ATOM      5  C   UNL     1       2.722   4.461  18.629  0.00  0.00    +0.000 A 
ATOM      6  C   UNL     1       2.712   3.895  19.907  0.00  0.00    +0.000 A 
ATOM      7  C   UNL     1       2.350   4.670  21.017  0.00  0.00    +0.000 A 
ATOM      8  C   UNL     1       2.013   6.002  20.846  0.00  0.00    +0.000 A 
ATOM      9  C   UNL     1       2.018   6.603  19.604  0.00  0.00    +0.000 A 
ATOM     10  C   UNL     1       2.384   5.825  18.479  0.00  0.00    +0.000 A 
BRANCH   5  12
ATOM     11  C   UNL     1       2.230   2.331  17.401  0.00  0.00    +0.000 C 
ATOM     12  C   UNL     1       3.023   3.639  17.371  0.00  0.00    +0.000 C 
BRANCH  12  13
ATOM     13  S   UNL     1       4.824   3.520  17.093  0.00  0.00    +0.000 S 
BRANCH  13  14
ATOM     14  C   UNL     1       5.375   5.150  16.852  0.00  0.00    +0.000 A 
ATOM     15  N   UNL     1       5.272   5.909  15.787  0.00  0.00    +0.000 NA
ATOM     16  N   UNL     1       5.815   7.142  16.099  0.00  0.00    +0.000 NA
ATOM     17  C   UNL     1       6.217   7.101  17.350  0.00  0.00    +0.000 A 
ATOM     18  N   UNL     1       5.966   5.860  17.861  0.00  0.00    +0.000 N 
ATOM     19  C   UNL     1       6.286   5.414  19.188  0.00  0.00    +0.000 C 
ENDBRANCH  13  14
ENDBRANCH  12  13
ENDBRANCH   5  12
ENDBRANCH   1   9
BRANCH   2  20
ATOM     20  C   UNL     1       1.544  10.165  18.360  0.00  0.00    +0.000 A 
ATOM     21  C   UNL     1       0.210  10.417  18.666  0.00  0.00    +0.000 A 
ATOM     22  C   UNL     1      -0.194  11.755  18.735  0.00  0.00    +0.000 A 
ATOM     23  C   UNL     1       0.732  12.757  18.464  0.00  0.00    +0.000 A 
ATOM     24  C   UNL     1       2.026  12.405  18.163  0.00  0.00    +0.000 A 
ATOM     25  N   UNL     1       2.466  11.128  18.097  0.00  0.00    +0.000 NA
BRANCH  22  26
ATOM     26  C   UNL     1      -1.618  12.082  19.032  0.00  0.00    +0.000 C 
ATOM     27  O   UNL     1      -2.461  11.845  18.181  0.00  0.00    +0.000 OA
ATOM     28  N   UNL     1      -1.916  12.650  20.259  0.00  0.00    +0.000 N 
ATOM     29  C   UNL     1      -1.030  12.986  21.349  0.00  0.00    +0.000 C 
ATOM     30  C   UNL     1      -1.851  12.673  22.573  0.00  0.00    +0.000 C 
ATOM     31  C   UNL     1      -3.265  13.148  22.179  0.00  0.00    +0.000 C 
ATOM     32  C   UNL     1      -3.290  12.933  20.637  0.00  0.00    +0.000 C 
BRANCH  31  33
ATOM     33  N   UNL     1      -4.331  12.443  22.917  0.00  0.00    +0.000 NA
ATOM     34  C   UNL     1      -5.647  13.031  22.653  0.00  0.00    +0.000 C 
ATOM     35  C   UNL     1      -4.090  12.426  24.362  0.00  0.00    +0.000 C 
ENDBRANCH  31  33
ENDBRANCH  22  26
ENDBRANCH   2  20
TORSDOF 7
ENDMDL
MODEL 9
REMARK VINA RESULT:      -7.8      3.149     10.004
REMARK  Name = 
REMARK  11 active torsions:
REMARK  status: ('A' for Active; 'I' for Inactive)
REMARK    1  A    between atoms: C_1  and  C_2
REMARK    2  A    between atoms: C_2  and  S_3
REMARK    3  A    between atoms: C_2  and  C_10
REMARK    4  A    between atoms: S_3  and  C_4
REMARK    5  A    between atoms: N_8  and  C_9
REMARK    6  A    between atoms: C_14  and  N_15
REMARK    7  A    between atoms: C_16  and  C_18
REMARK    8  A    between atoms: C_20  and  C_21
REMARK    9  A    between atoms: C_26  and  N_27
REMARK   10  A    between atoms: N_27  and  C_28
REMARK   11  A    between atoms: N_27  and  C_29
REMARK                            x       y       z     vdW  Elec       q    Type
REMARK                         _______ _______ _______ _____ _____    ______ ____
ROOT
ATOM      1  N   UNL     1       1.169   6.306  21.028  0.00  0.00    +0.000 N 
ATOM      2  C   UNL     1       1.567   7.535  20.485  0.00  0.00    +0.000 C 
ATOM      3  O   UNL     1       2.370   7.713  19.574  0.00  0.00    +0.000 OA
ATOM      4  H   UNL     1       0.409   6.323  21.689  0.00  0.00    +0.000 HD
ENDROOT
BRANCH   1   9
ATOM      5  C   UNL     1       2.770   3.637  18.938  0.00  0.00    +0.000 A 
ATOM      6  C   UNL     1       2.760   2.569  19.839  0.00  0.00    +0.000 A 
ATOM      7  C   UNL     1       2.230   2.738  21.126  0.00  0.00    +0.000 A 
ATOM      8  C   UNL     1       1.727   3.971  21.505  0.00  0.00    +0.000 A 
ATOM      9  C   UNL     1       1.726   5.055  20.650  0.00  0.00    +0.000 A 
ATOM     10  C   UNL     1       2.259   4.889  19.350  0.00  0.00    +0.000 A 
BRANCH   5  12
ATOM     11  C   UNL     1       4.003   2.160  17.329  0.00  0.00    +0.000 C 
ATOM     12  C   UNL     1       3.254   3.484  17.491  0.00  0.00    +0.000 C 
BRANCH  12  13
ATOM     13  S   UNL     1       4.102   5.001  16.931  0.00  0.00    +0.000 S 
BRANCH  13  14
ATOM     14  C   UNL     1       5.666   4.977  17.686  0.00  0.00    +0.000 A 
ATOM     15  N   UNL     1       5.989   5.252  18.928  0.00  0.00    +0.000 NA
ATOM     16  N   UNL     1       7.348   5.041  19.063  0.00  0.00    +0.000 NA
ATOM     17  C   UNL     1       7.809   4.628  17.902  0.00  0.00    +0.000 A 
ATOM     18  N   UNL     1       6.783   4.582  17.003  0.00  0.00    +0.000 N 
ATOM     19  C   UNL     1       6.889   4.207  15.621  0.00  0.00    +0.000 C 
ENDBRANCH  13  14
ENDBRANCH  12  13
ENDBRANCH   5  12
ENDBRANCH   1   9
BRANCH   2  20
ATOM     20  C   UNL     1       0.874   8.740  21.034  0.00  0.00    +0.000 A 
ATOM     21  C   UNL     1       0.444   9.741  20.166  0.00  0.00    +0.000 A 
ATOM     22  C   UNL     1      -0.266  10.812  20.718  0.00  0.00    +0.000 A 
ATOM     23  C   UNL     1      -0.477  10.849  22.093  0.00  0.00    +0.000 A 
ATOM     24  C   UNL     1      -0.005   9.815  22.867  0.00  0.00    +0.000 A 
ATOM     25  N   UNL     1       0.674   8.753  22.378  0.00  0.00    +0.000 NA
BRANCH  22  26
ATOM     26  C   UNL     1      -0.726  11.925  19.838  0.00  0.00    +0.000 C 
ATOM     27  O   UNL     1      -1.877  11.909  19.433  0.00  0.00    +0.000 OA
ATOM     28  N   UNL     1       0.181  12.920  19.514  0.00  0.00    +0.000 N 
ATOM     29  C   UNL     1       1.562  13.063  19.915  0.00  0.00    +0.000 C 
ATOM     30  C   UNL     1       1.721  14.551  20.088  0.00  0.00    +0.000 C 
ATOM     31  C   UNL     1       0.896  15.131  18.920  0.00  0.00    +0.000 C 
ATOM     32  C   UNL     1      -0.220  14.064  18.716  0.00  0.00    +0.000 C 
BRANCH  31  33
ATOM     33  N   UNL     1       0.403  16.496  19.191  0.00  0.00    +0.000 NA
ATOM     34  C   UNL     1       0.771  17.423  18.117  0.00  0.00    +0.000 C 
ATOM     35  C   UNL     1       0.889  17.019  20.469  0.00  0.00    +0.000 C 
ENDBRANCH  31  33
ENDBRANCH  22  26
ENDBRANCH   2  20
TORSDOF 7
ENDMDL
