MODEL 1
REMARK VINA RESULT:      -8.1      0.000      0.000
REMARK  Name = 
REMARK  9 active torsions:
REMARK  status: ('A' for Active; 'I' for Inactive)
REMARK    1  A    between atoms: C_1  and  C_2
REMARK    2  A    between atoms: C_2  and  C_3
REMARK    3  A    between atoms: C_2  and  C_4
REMARK    4  A    between atoms: N_9  and  C_10
REMARK    5  A    between atoms: C_14  and  C_15
REMARK    6  A    between atoms: C_15  and  C_16
REMARK    7  A    between atoms: C_15  and  S_17
REMARK    8  A    between atoms: S_17  and  C_18
REMARK    9  A    between atoms: N_22  and  C_23
REMARK                            x       y       z     vdW  Elec       q    Type
REMARK                         _______ _______ _______ _____ _____    ______ ____
ROOT
ATOM      1  C   UNL     1       2.510   6.089  18.396  0.00  0.00    +0.000 A 
ATOM      2  C   UNL     1       1.919   4.839  18.601  0.00  0.00    +0.000 A 
ATOM      3  C   UNL     1       2.433   3.702  17.997  0.00  0.00    +0.000 A 
ATOM      4  C   UNL     1       3.538   3.792  17.160  0.00  0.00    +0.000 A 
ATOM      5  C   UNL     1       4.153   5.030  16.920  0.00  0.00    +0.000 A 
ATOM      6  C   UNL     1       3.608   6.183  17.528  0.00  0.00    +0.000 A 
ENDROOT
BRANCH   1  12
ATOM      7  C   UNL     1      -0.267   9.927  20.895  0.00  0.00    +0.000 C 
ATOM      8  C   UNL     1       1.202   9.493  20.710  0.00  0.00    +0.000 C 
ATOM      9  N   UNL     1       1.547   9.540  19.285  0.00  0.00    +0.000 N 
ATOM     10  C   UNL     1       1.949   8.507  18.461  0.00  0.00    +0.000 C 
ATOM     11  O   UNL     1       2.188   8.729  17.276  0.00  0.00    +0.000 OA
ATOM     12  N   UNL     1       2.037   7.260  19.042  0.00  0.00    +0.000 N 
ATOM     13  C   UNL     1       1.306  10.854  18.682  0.00  0.00    +0.000 C 
ATOM     14  C   UNL     1      -0.140  11.285  18.935  0.00  0.00    +0.000 C 
ATOM     15  O   UNL     1      -0.448  11.252  20.338  0.00  0.00    +0.000 OA
ATOM     16  H   UNL     1       1.518   7.103  19.889  0.00  0.00    +0.000 HD
BRANCH   7  18
ATOM     17  C   UNL     1       0.383   9.391  23.274  0.00  0.00    +0.000 C 
ATOM     18  C   UNL     1      -0.707   9.987  22.374  0.00  0.00    +0.000 C 
ATOM     19  C   UNL     1      -1.033  11.406  22.847  0.00  0.00    +0.000 C 
ENDBRANCH   7  18
ENDBRANCH   1  12
BRANCH   5  20
ATOM     20  C   UNL     1       5.403   5.131  16.053  0.00  0.00    +0.000 C 
ATOM     21  C   UNL     1       5.337   4.172  14.858  0.00  0.00    +0.000 C 
BRANCH  20  22
ATOM     22  S   UNL     1       6.935   4.737  16.995  0.00  0.00    +0.000 S 
BRANCH  22  23
ATOM     23  C   UNL     1       7.452   6.308  17.482  0.00  0.00    +0.000 A 
ATOM     24  N   UNL     1       7.409   7.405  16.762  0.00  0.00    +0.000 NA
ATOM     25  N   UNL     1       7.944   8.423  17.523  0.00  0.00    +0.000 NA
ATOM     26  C   UNL     1       8.292   7.913  18.682  0.00  0.00    +0.000 A 
ATOM     27  N   UNL     1       8.003   6.580  18.702  0.00  0.00    +0.000 N 
ATOM     28  C   UNL     1       8.209   5.696  19.818  0.00  0.00    +0.000 C 
ENDBRANCH  22  23
ENDBRANCH  20  22
ENDBRANCH   5  20
TORSDOF 5
ENDMDL
MODEL 2
REMARK VINA RESULT:      -8.0      3.760      8.914
REMARK  Name = 
REMARK  9 active torsions:
REMARK  status: ('A' for Active; 'I' for Inactive)
REMARK    1  A    between atoms: C_1  and  C_2
REMARK    2  A    between atoms: C_2  and  C_3
REMARK    3  A    between atoms: C_2  and  C_4
REMARK    4  A    between atoms: N_9  and  C_10
REMARK    5  A    between atoms: C_14  and  C_15
REMARK    6  A    between atoms: C_15  and  C_16
REMARK    7  A    between atoms: C_15  and  S_17
REMARK    8  A    between atoms: S_17  and  C_18
REMARK    9  A    between atoms: N_22  and  C_23
REMARK                            x       y       z     vdW  Elec       q    Type
REMARK                         _______ _______ _______ _____ _____    ______ ____
ROOT
ATOM      1  C   UNL     1       1.607   8.284  20.269  0.00  0.00    +0.000 A 
ATOM      2  C   UNL     1       1.259   8.451  21.613  0.00  0.00    +0.000 A 
ATOM      3  C   UNL     1       0.421   9.484  22.007  0.00  0.00    +0.000 A 
ATOM      4  C   UNL     1      -0.073  10.381  21.069  0.00  0.00    +0.000 A 
ATOM      5  C   UNL     1       0.260  10.253  19.712  0.00  0.00    +0.000 A 
ATOM      6  C   UNL     1       1.130   9.207  19.327  0.00  0.00    +0.000 A 
ENDROOT
BRANCH   1  12
ATOM      7  C   UNL     1       4.295   4.519  17.569  0.00  0.00    +0.000 C 
ATOM      8  C   UNL     1       4.385   5.266  18.916  0.00  0.00    +0.000 C 
ATOM      9  N   UNL     1       3.179   4.992  19.706  0.00  0.00    +0.000 N 
ATOM     10  C   UNL     1       2.225   5.882  20.160  0.00  0.00    +0.000 C 
ATOM     11  O   UNL     1       1.264   5.469  20.805  0.00  0.00    +0.000 OA
ATOM     12  N   UNL     1       2.419   7.206  19.831  0.00  0.00    +0.000 N 
ATOM     13  C   UNL     1       2.945   3.559  19.912  0.00  0.00    +0.000 C 
ATOM     14  C   UNL     1       2.923   2.837  18.564  0.00  0.00    +0.000 C 
ATOM     15  O   UNL     1       4.122   3.103  17.818  0.00  0.00    +0.000 OA
ATOM     16  H   UNL     1       3.015   7.409  19.047  0.00  0.00    +0.000 HD
BRANCH   7  18
ATOM     17  C   UNL     1       5.438   5.938  15.822  0.00  0.00    +0.000 C 
ATOM     18  C   UNL     1       5.556   4.681  16.693  0.00  0.00    +0.000 C 
ATOM     19  C   UNL     1       6.850   4.751  17.508  0.00  0.00    +0.000 C 
ENDBRANCH   7  18
ENDBRANCH   1  12
BRANCH   5  20
ATOM     20  C   UNL     1      -0.326  11.194  18.666  0.00  0.00    +0.000 C 
ATOM     21  C   UNL     1       0.269  12.602  18.780  0.00  0.00    +0.000 C 
BRANCH  20  22
ATOM     22  S   UNL     1      -2.154  11.352  18.821  0.00  0.00    +0.000 S 
BRANCH  22  23
ATOM     23  C   UNL     1      -2.679  10.815  17.270  0.00  0.00    +0.000 A 
ATOM     24  N   UNL     1      -2.008  10.053  16.437  0.00  0.00    +0.000 NA
ATOM     25  N   UNL     1      -2.781   9.891  15.307  0.00  0.00    +0.000 NA
ATOM     26  C   UNL     1      -3.899  10.555  15.490  0.00  0.00    +0.000 A 
ATOM     27  N   UNL     1      -3.879  11.157  16.714  0.00  0.00    +0.000 N 
ATOM     28  C   UNL     1      -4.946  11.939  17.280  0.00  0.00    +0.000 C 
ENDBRANCH  22  23
ENDBRANCH  20  22
ENDBRANCH   5  20
TORSDOF 5
ENDMDL
MODEL 3
REMARK VINA RESULT:      -8.0      3.777      9.100
REMARK  Name = 
REMARK  9 active torsions:
REMARK  status: ('A' for Active; 'I' for Inactive)
REMARK    1  A    between atoms: C_1  and  C_2
REMARK    2  A    between atoms: C_2  and  C_3
REMARK    3  A    between atoms: C_2  and  C_4
REMARK    4  A    between atoms: N_9  and  C_10
REMARK    5  A    between atoms: C_14  and  C_15
REMARK    6  A    between atoms: C_15  and  C_16
REMARK    7  A    between atoms: C_15  and  S_17
REMARK    8  A    between atoms: S_17  and  C_18
REMARK    9  A    between atoms: N_22  and  C_23
REMARK                            x       y       z     vdW  Elec       q    Type
REMARK                         _______ _______ _______ _____ _____    ______ ____
ROOT
ATOM      1  C   UNL     1       1.596   8.232  20.251  0.00  0.00    +0.000 A 
ATOM      2  C   UNL     1       1.109   8.190  21.560  0.00  0.00    +0.000 A 
ATOM      3  C   UNL     1       0.203   9.139  22.012  0.00  0.00    +0.000 A 
ATOM      4  C   UNL     1      -0.221  10.159  21.170  0.00  0.00    +0.000 A 
ATOM      5  C   UNL     1       0.253  10.241  19.852  0.00  0.00    +0.000 A 
ATOM      6  C   UNL     1       1.189   9.278  19.410  0.00  0.00    +0.000 A 
ENDROOT
BRANCH   1  12
ATOM      7  C   UNL     1       4.534   4.845  17.320  0.00  0.00    +0.000 C 
ATOM      8  C   UNL     1       4.578   5.513  18.711  0.00  0.00    +0.000 C 
ATOM      9  N   UNL     1       3.400   5.104  19.484  0.00  0.00    +0.000 N 
ATOM     10  C   UNL     1       2.387   5.892  19.993  0.00  0.00    +0.000 C 
ATOM     11  O   UNL     1       1.462   5.373  20.613  0.00  0.00    +0.000 OA
ATOM     12  N   UNL     1       2.482   7.245  19.746  0.00  0.00    +0.000 N 
ATOM     13  C   UNL     1       3.272   3.648  19.602  0.00  0.00    +0.000 C 
ATOM     14  C   UNL     1       3.294   3.010  18.212  0.00  0.00    +0.000 C 
ATOM     15  O   UNL     1       4.466   3.407  17.482  0.00  0.00    +0.000 OA
ATOM     16  H   UNL     1       3.057   7.538  18.975  0.00  0.00    +0.000 HD
BRANCH   7  18
ATOM     17  C   UNL     1       7.044   4.636  17.147  0.00  0.00    +0.000 C 
ATOM     18  C   UNL     1       5.775   5.151  16.454  0.00  0.00    +0.000 C 
ATOM     19  C   UNL     1       5.690   4.554  15.048  0.00  0.00    +0.000 C 
ENDBRANCH   7  18
ENDBRANCH   1  12
BRANCH   5  20
ATOM     20  C   UNL     1      -0.253  11.320  18.901  0.00  0.00    +0.000 C 
ATOM     21  C   UNL     1       0.684  12.533  18.877  0.00  0.00    +0.000 C 
BRANCH  20  22
ATOM     22  S   UNL     1      -1.929  11.925  19.366  0.00  0.00    +0.000 S 
BRANCH  22  23
ATOM     23  C   UNL     1      -2.837  11.546  17.950  0.00  0.00    +0.000 A 
ATOM     24  N   UNL     1      -2.355  11.149  16.795  0.00  0.00    +0.000 NA
ATOM     25  N   UNL     1      -3.421  10.985  15.935  0.00  0.00    +0.000 NA
ATOM     26  C   UNL     1      -4.515  11.283  16.596  0.00  0.00    +0.000 A 
ATOM     27  N   UNL     1      -4.196  11.646  17.872  0.00  0.00    +0.000 N 
ATOM     28  C   UNL     1      -5.137  12.002  18.900  0.00  0.00    +0.000 C 
ENDBRANCH  22  23
ENDBRANCH  20  22
ENDBRANCH   5  20
TORSDOF 5
ENDMDL
MODEL 4
REMARK VINA RESULT:      -7.8      2.033      2.997
REMARK  Name = 
REMARK  9 active torsions:
REMARK  status: ('A' for Active; 'I' for Inactive)
REMARK    1  A    between atoms: C_1  and  C_2
REMARK    2  A    between atoms: C_2  and  C_3
REMARK    3  A    between atoms: C_2  and  C_4
REMARK    4  A    between atoms: N_9  and  C_10
REMARK    5  A    between atoms: C_14  and  C_15
REMARK    6  A    between atoms: C_15  and  C_16
REMARK    7  A    between atoms: C_15  and  S_17
REMARK    8  A    between atoms: S_17  and  C_18
REMARK    9  A    between atoms: N_22  and  C_23
REMARK                            x       y       z     vdW  Elec       q    Type
REMARK                         _______ _______ _______ _____ _____    ______ ____
ROOT
ATOM      1  C   UNL     1       2.597   6.906  18.963  0.00  0.00    +0.000 A 
ATOM      2  C   UNL     1       2.251   5.666  19.508  0.00  0.00    +0.000 A 
ATOM      3  C   UNL     1       2.885   4.505  19.091  0.00  0.00    +0.000 A 
ATOM      4  C   UNL     1       3.865   4.556  18.108  0.00  0.00    +0.000 A 
ATOM      5  C   UNL     1       4.233   5.781  17.529  0.00  0.00    +0.000 A 
ATOM      6  C   UNL     1       3.566   6.953  17.951  0.00  0.00    +0.000 A 
ENDROOT
BRANCH   1  12
ATOM      7  C   UNL     1      -0.486  10.773  21.020  0.00  0.00    +0.000 C 
ATOM      8  C   UNL     1       0.997  10.541  20.659  0.00  0.00    +0.000 C 
ATOM      9  N   UNL     1       1.111  10.275  19.221  0.00  0.00    +0.000 N 
ATOM     10  C   UNL     1       1.583   9.141  18.589  0.00  0.00    +0.000 C 
ATOM     11  O   UNL     1       1.595   9.087  17.361  0.00  0.00    +0.000 OA
ATOM     12  N   UNL     1       2.002   8.115  19.408  0.00  0.00    +0.000 N 
ATOM     13  C   UNL     1       0.527  11.337  18.395  0.00  0.00    +0.000 C 
ATOM     14  C   UNL     1      -0.922  11.586  18.818  0.00  0.00    +0.000 C 
ATOM     15  O   UNL     1      -1.007  11.866  20.224  0.00  0.00    +0.000 OA
ATOM     16  H   UNL     1       1.655   8.101  20.352  0.00  0.00    +0.000 HD
BRANCH   7  18
ATOM     17  C   UNL     1      -2.039  11.879  22.674  0.00  0.00    +0.000 C 
ATOM     18  C   UNL     1      -0.705  11.141  22.503  0.00  0.00    +0.000 C 
ATOM     19  C   UNL     1      -0.677   9.926  23.435  0.00  0.00    +0.000 C 
ENDBRANCH   7  18
ENDBRANCH   1  12
BRANCH   5  20
ATOM     20  C   UNL     1       5.350   5.856  16.495  0.00  0.00    +0.000 C 
ATOM     21  C   UNL     1       5.034   6.879  15.399  0.00  0.00    +0.000 C 
BRANCH  20  22
ATOM     22  S   UNL     1       5.644   4.235  15.671  0.00  0.00    +0.000 S 
BRANCH  22  23
ATOM     23  C   UNL     1       6.740   4.680  14.417  0.00  0.00    +0.000 A 
ATOM     24  N   UNL     1       7.764   5.494  14.525  0.00  0.00    +0.000 NA
ATOM     25  N   UNL     1       8.351   5.591  13.281  0.00  0.00    +0.000 NA
ATOM     26  C   UNL     1       7.667   4.831  12.458  0.00  0.00    +0.000 A 
ATOM     27  N   UNL     1       6.638   4.238  13.129  0.00  0.00    +0.000 N 
ATOM     28  C   UNL     1       5.698   3.306  12.565  0.00  0.00    +0.000 C 
ENDBRANCH  22  23
ENDBRANCH  20  22
ENDBRANCH   5  20
TORSDOF 5
ENDMDL
MODEL 5
REMARK VINA RESULT:      -7.5      3.408      8.408
REMARK  Name = 
REMARK  9 active torsions:
REMARK  status: ('A' for Active; 'I' for Inactive)
REMARK    1  A    between atoms: C_1  and  C_2
REMARK    2  A    between atoms: C_2  and  C_3
REMARK    3  A    between atoms: C_2  and  C_4
REMARK    4  A    between atoms: N_9  and  C_10
REMARK    5  A    between atoms: C_14  and  C_15
REMARK    6  A    between atoms: C_15  and  C_16
REMARK    7  A    between atoms: C_15  and  S_17
REMARK    8  A    between atoms: S_17  and  C_18
REMARK    9  A    between atoms: N_22  and  C_23
REMARK                            x       y       z     vdW  Elec       q    Type
REMARK                         _______ _______ _______ _____ _____    ______ ____
ROOT
ATOM      1  C   UNL     1       1.523   8.333  20.554  0.00  0.00    +0.000 A 
ATOM      2  C   UNL     1       1.191   8.312  21.912  0.00  0.00    +0.000 A 
ATOM      3  C   UNL     1       0.314   9.246  22.443  0.00  0.00    +0.000 A 
ATOM      4  C   UNL     1      -0.234  10.233  21.633  0.00  0.00    +0.000 A 
ATOM      5  C   UNL     1       0.084  10.293  20.267  0.00  0.00    +0.000 A 
ATOM      6  C   UNL     1       0.992   9.346  19.743  0.00  0.00    +0.000 A 
ENDROOT
BRANCH   1  12
ATOM      7  C   UNL     1       4.379   5.112  17.366  0.00  0.00    +0.000 C 
ATOM      8  C   UNL     1       4.414   5.634  18.818  0.00  0.00    +0.000 C 
ATOM      9  N   UNL     1       3.197   5.210  19.517  0.00  0.00    +0.000 N 
ATOM     10  C   UNL     1       2.208   5.994  20.080  0.00  0.00    +0.000 C 
ATOM     11  O   UNL     1       1.242   5.462  20.621  0.00  0.00    +0.000 OA
ATOM     12  N   UNL     1       2.375   7.358  19.973  0.00  0.00    +0.000 N 
ATOM     13  C   UNL     1       2.996   3.758  19.484  0.00  0.00    +0.000 C 
ATOM     14  C   UNL     1       3.027   3.262  18.037  0.00  0.00    +0.000 C 
ATOM     15  O   UNL     1       4.237   3.670  17.380  0.00  0.00    +0.000 OA
ATOM     16  H   UNL     1       2.986   7.698  19.250  0.00  0.00    +0.000 HD
BRANCH   7  18
ATOM     17  C   UNL     1       6.874   4.765  17.212  0.00  0.00    +0.000 C 
ATOM     18  C   UNL     1       5.657   5.440  16.565  0.00  0.00    +0.000 C 
ATOM     19  C   UNL     1       5.570   5.023  15.095  0.00  0.00    +0.000 C 
ENDBRANCH   7  18
ENDBRANCH   1  12
BRANCH   5  20
ATOM     20  C   UNL     1      -0.560  11.333  19.358  0.00  0.00    +0.000 C 
ATOM     21  C   UNL     1      -1.230  10.681  18.143  0.00  0.00    +0.000 C 
BRANCH  20  22
ATOM     22  S   UNL     1       0.663  12.555  18.725  0.00  0.00    +0.000 S 
BRANCH  22  23
ATOM     23  C   UNL     1       1.005  13.469  20.146  0.00  0.00    +0.000 A 
ATOM     24  N   UNL     1       1.970  13.245  21.007  0.00  0.00    +0.000 NA
ATOM     25  N   UNL     1       1.866  14.192  22.004  0.00  0.00    +0.000 NA
ATOM     26  C   UNL     1       0.843  14.963  21.715  0.00  0.00    +0.000 A 
ATOM     27  N   UNL     1       0.266  14.543  20.553  0.00  0.00    +0.000 N 
ATOM     28  C   UNL     1      -0.855  15.167  19.902  0.00  0.00    +0.000 C 
ENDBRANCH  22  23
ENDBRANCH  20  22
ENDBRANCH   5  20
TORSDOF 5
ENDMDL
MODEL 6
REMARK VINA RESULT:      -7.5      0.912      1.402
REMARK  Name = 
REMARK  9 active torsions:
REMARK  status: ('A' for Active; 'I' for Inactive)
REMARK    1  A    between atoms: C_1  and  C_2
REMARK    2  A    between atoms: C_2  and  C_3
REMARK    3  A    between atoms: C_2  and  C_4
REMARK    4  A    between atoms: N_9  and  C_10
REMARK    5  A    between atoms: C_14  and  C_15
REMARK    6  A    between atoms: C_15  and  C_16
REMARK    7  A    between atoms: C_15  and  S_17
REMARK    8  A    between atoms: S_17  and  C_18
REMARK    9  A    between atoms: N_22  and  C_23
REMARK                            x       y       z     vdW  Elec       q    Type
REMARK                         _______ _______ _______ _____ _____    ______ ____
ROOT
ATOM      1  C   UNL     1       3.026   5.885  18.292  0.00  0.00    +0.000 A 
ATOM      2  C   UNL     1       2.733   4.567  18.655  0.00  0.00    +0.000 A 
ATOM      3  C   UNL     1       3.352   3.501  18.019  0.00  0.00    +0.000 A 
ATOM      4  C   UNL     1       4.262   3.728  16.994  0.00  0.00    +0.000 A 
ATOM      5  C   UNL     1       4.575   5.036  16.594  0.00  0.00    +0.000 A 
ATOM      6  C   UNL     1       3.924   6.113  17.239  0.00  0.00    +0.000 A 
ENDROOT
BRANCH   1  12
ATOM      7  C   UNL     1      -0.057   9.371  20.943  0.00  0.00    +0.000 C 
ATOM      8  C   UNL     1       1.441   9.127  20.664  0.00  0.00    +0.000 C 
ATOM      9  N   UNL     1       1.685   9.196  19.219  0.00  0.00    +0.000 N 
ATOM     10  C   UNL     1       2.162   8.211  18.378  0.00  0.00    +0.000 C 
ATOM     11  O   UNL     1       2.293   8.443  17.178  0.00  0.00    +0.000 OA
ATOM     12  N   UNL     1       2.449   6.995  18.960  0.00  0.00    +0.000 N 
ATOM     13  C   UNL     1       1.237  10.459  18.625  0.00  0.00    +0.000 C 
ATOM     14  C   UNL     1      -0.234  10.704  18.970  0.00  0.00    +0.000 C 
ATOM     15  O   UNL     1      -0.443  10.653  20.390  0.00  0.00    +0.000 OA
ATOM     16  H   UNL     1       2.010   6.785  19.841  0.00  0.00    +0.000 HD
BRANCH   7  18
ATOM     17  C   UNL     1       0.868   9.219  23.287  0.00  0.00    +0.000 C 
ATOM     18  C   UNL     1      -0.404   9.396  22.447  0.00  0.00    +0.000 C 
ATOM     19  C   UNL     1      -1.119  10.679  22.879  0.00  0.00    +0.000 C 
ENDBRANCH   7  18
ENDBRANCH   1  12
BRANCH   5  20
ATOM     20  C   UNL     1       5.618   5.298  15.514  0.00  0.00    +0.000 C 
ATOM     21  C   UNL     1       5.263   4.587  14.204  0.00  0.00    +0.000 C 
BRANCH  20  22
ATOM     22  S   UNL     1       7.296   4.729  16.016  0.00  0.00    +0.000 S 
BRANCH  22  23
ATOM     23  C   UNL     1       7.341   5.207  17.672  0.00  0.00    +0.000 A 
ATOM     24  N   UNL     1       7.212   4.423  18.716  0.00  0.00    +0.000 NA
ATOM     25  N   UNL     1       7.283   5.216  19.843  0.00  0.00    +0.000 NA
ATOM     26  C   UNL     1       7.455   6.456  19.446  0.00  0.00    +0.000 A 
ATOM     27  N   UNL     1       7.496   6.500  18.084  0.00  0.00    +0.000 N 
ATOM     28  C   UNL     1       7.710   7.682  17.291  0.00  0.00    +0.000 C 
ENDBRANCH  22  23
ENDBRANCH  20  22
ENDBRANCH   5  20
TORSDOF 5
ENDMDL
MODEL 7
REMARK VINA RESULT:      -7.5      3.619      8.985
REMARK  Name = 
REMARK  9 active torsions:
REMARK  status: ('A' for Active; 'I' for Inactive)
REMARK    1  A    between atoms: C_1  and  C_2
REMARK    2  A    between atoms: C_2  and  C_3
REMARK    3  A    between atoms: C_2  and  C_4
REMARK    4  A    between atoms: N_9  and  C_10
REMARK    5  A    between atoms: C_14  and  C_15
REMARK    6  A    between atoms: C_15  and  C_16
REMARK    7  A    between atoms: C_15  and  S_17
REMARK    8  A    between atoms: S_17  and  C_18
REMARK    9  A    between atoms: N_22  and  C_23
REMARK                            x       y       z     vdW  Elec       q    Type
REMARK                         _______ _______ _______ _____ _____    ______ ____
ROOT
ATOM      1  C   UNL     1       1.456   8.705  18.981  0.00  0.00    +0.000 A 
ATOM      2  C   UNL     1       0.725   9.324  17.962  0.00  0.00    +0.000 A 
ATOM      3  C   UNL     1      -0.205  10.310  18.253  0.00  0.00    +0.000 A 
ATOM      4  C   UNL     1      -0.439  10.687  19.569  0.00  0.00    +0.000 A 
ATOM      5  C   UNL     1       0.267  10.083  20.621  0.00  0.00    +0.000 A 
ATOM      6  C   UNL     1       1.199   9.067  20.312  0.00  0.00    +0.000 A 
ENDROOT
BRANCH   1  12
ATOM      7  C   UNL     1       4.696   4.969  16.924  0.00  0.00    +0.000 C 
ATOM      8  C   UNL     1       4.722   6.044  18.031  0.00  0.00    +0.000 C 
ATOM      9  N   UNL     1       3.673   5.754  19.015  0.00  0.00    +0.000 N 
ATOM     10  C   UNL     1       2.583   6.527  19.366  0.00  0.00    +0.000 C 
ATOM     11  O   UNL     1       1.791   6.117  20.211  0.00  0.00    +0.000 OA
ATOM     12  N   UNL     1       2.451   7.731  18.709  0.00  0.00    +0.000 N 
ATOM     13  C   UNL     1       3.780   4.408  19.585  0.00  0.00    +0.000 C 
ATOM     14  C   UNL     1       3.814   3.369  18.462  0.00  0.00    +0.000 C 
ATOM     15  O   UNL     1       4.862   3.661  17.524  0.00  0.00    +0.000 OA
ATOM     16  H   UNL     1       2.924   7.836  17.827  0.00  0.00    +0.000 HD
BRANCH   7  18
ATOM     17  C   UNL     1       7.161   4.685  16.462  0.00  0.00    +0.000 C 
ATOM     18  C   UNL     1       5.817   5.141  15.877  0.00  0.00    +0.000 C 
ATOM     19  C   UNL     1       5.548   4.379  14.576  0.00  0.00    +0.000 C 
ENDBRANCH   7  18
ENDBRANCH   1  12
BRANCH   5  20
ATOM     20  C   UNL     1       0.063  10.533  22.063  0.00  0.00    +0.000 C 
ATOM     21  C   UNL     1      -0.270   9.350  22.980  0.00  0.00    +0.000 C 
BRANCH  20  22
ATOM     22  S   UNL     1      -1.302  11.758  22.222  0.00  0.00    +0.000 S 
BRANCH  22  23
ATOM     23  C   UNL     1      -0.425  13.237  22.343  0.00  0.00    +0.000 A 
ATOM     24  N   UNL     1       0.818  13.442  21.973  0.00  0.00    +0.000 NA
ATOM     25  N   UNL     1       1.130  14.752  22.271  0.00  0.00    +0.000 NA
ATOM     26  C   UNL     1       0.066  15.302  22.809  0.00  0.00    +0.000 A 
ATOM     27  N   UNL     1      -0.940  14.383  22.878  0.00  0.00    +0.000 N 
ATOM     28  C   UNL     1      -2.268  14.632  23.373  0.00  0.00    +0.000 C 
ENDBRANCH  22  23
ENDBRANCH  20  22
ENDBRANCH   5  20
TORSDOF 5
ENDMDL
MODEL 8
REMARK VINA RESULT:      -7.4      3.352      8.059
REMARK  Name = 
REMARK  9 active torsions:
REMARK  status: ('A' for Active; 'I' for Inactive)
REMARK    1  A    between atoms: C_1  and  C_2
REMARK    2  A    between atoms: C_2  and  C_3
REMARK    3  A    between atoms: C_2  and  C_4
REMARK    4  A    between atoms: N_9  and  C_10
REMARK    5  A    between atoms: C_14  and  C_15
REMARK    6  A    between atoms: C_15  and  C_16
REMARK    7  A    between atoms: C_15  and  S_17
REMARK    8  A    between atoms: S_17  and  C_18
REMARK    9  A    between atoms: N_22  and  C_23
REMARK                            x       y       z     vdW  Elec       q    Type
REMARK                         _______ _______ _______ _____ _____    ______ ____
ROOT
ATOM      1  C   UNL     1       1.543   8.197  20.460  0.00  0.00    +0.000 A 
ATOM      2  C   UNL     1       0.969   8.008  21.720  0.00  0.00    +0.000 A 
ATOM      3  C   UNL     1       0.082   8.937  22.243  0.00  0.00    +0.000 A 
ATOM      4  C   UNL     1      -0.236  10.083  21.526  0.00  0.00    +0.000 A 
ATOM      5  C   UNL     1       0.327  10.314  20.261  0.00  0.00    +0.000 A 
ATOM      6  C   UNL     1       1.243   9.367  19.748  0.00  0.00    +0.000 A 
ENDROOT
BRANCH   1  12
ATOM      7  C   UNL     1       4.442   5.018  17.268  0.00  0.00    +0.000 C 
ATOM      8  C   UNL     1       4.481   5.555  18.715  0.00  0.00    +0.000 C 
ATOM      9  N   UNL     1       3.282   5.107  19.432  0.00  0.00    +0.000 N 
ATOM     10  C   UNL     1       2.281   5.871  19.999  0.00  0.00    +0.000 C 
ATOM     11  O   UNL     1       1.334   5.321  20.557  0.00  0.00    +0.000 OA
ATOM     12  N   UNL     1       2.412   7.238  19.878  0.00  0.00    +0.000 N 
ATOM     13  C   UNL     1       3.117   3.650  19.415  0.00  0.00    +0.000 C 
ATOM     14  C   UNL     1       3.144   3.141  17.972  0.00  0.00    +0.000 C 
ATOM     15  O   UNL     1       4.336   3.574  17.297  0.00  0.00    +0.000 OA
ATOM     16  H   UNL     1       3.006   7.586  19.144  0.00  0.00    +0.000 HD
BRANCH   7  18
ATOM     17  C   UNL     1       6.948   4.762  17.109  0.00  0.00    +0.000 C 
ATOM     18  C   UNL     1       5.702   5.370  16.450  0.00  0.00    +0.000 C 
ATOM     19  C   UNL     1       5.624   4.906  14.994  0.00  0.00    +0.000 C 
ENDBRANCH   7  18
ENDBRANCH   1  12
BRANCH   5  20
ATOM     20  C   UNL     1      -0.062  11.537  19.439  0.00  0.00    +0.000 C 
ATOM     21  C   UNL     1      -0.998  11.164  18.284  0.00  0.00    +0.000 C 
BRANCH  20  22
ATOM     22  S   UNL     1       1.404  12.382  18.714  0.00  0.00    +0.000 S 
BRANCH  22  23
ATOM     23  C   UNL     1       1.934  13.350  20.038  0.00  0.00    +0.000 A 
ATOM     24  N   UNL     1       1.416  13.377  21.244  0.00  0.00    +0.000 NA
ATOM     25  N   UNL     1       2.123  14.305  21.980  0.00  0.00    +0.000 NA
ATOM     26  C   UNL     1       3.050  14.809  21.199  0.00  0.00    +0.000 A 
ATOM     27  N   UNL     1       2.968  14.238  19.962  0.00  0.00    +0.000 N 
ATOM     28  C   UNL     1       3.845  14.512  18.855  0.00  0.00    +0.000 C 
ENDBRANCH  22  23
ENDBRANCH  20  22
ENDBRANCH   5  20
TORSDOF 5
ENDMDL
MODEL 9
REMARK VINA RESULT:      -7.4      3.755      9.244
REMARK  Name = 
REMARK  9 active torsions:
REMARK  status: ('A' for Active; 'I' for Inactive)
REMARK    1  A    between atoms: C_1  and  C_2
REMARK    2  A    between atoms: C_2  and  C_3
REMARK    3  A    between atoms: C_2  and  C_4
REMARK    4  A    between atoms: N_9  and  C_10
REMARK    5  A    between atoms: C_14  and  C_15
REMARK    6  A    between atoms: C_15  and  C_16
REMARK    7  A    between atoms: C_15  and  S_17
REMARK    8  A    between atoms: S_17  and  C_18
REMARK    9  A    between atoms: N_22  and  C_23
REMARK                            x       y       z     vdW  Elec       q    Type
REMARK                         _______ _______ _______ _____ _____    ______ ____
ROOT
ATOM      1  C   UNL     1       1.518   8.260  20.565  0.00  0.00    +0.000 A 
ATOM      2  C   UNL     1       1.498   8.481  21.945  0.00  0.00    +0.000 A 
ATOM      3  C   UNL     1       0.609   9.385  22.508  0.00  0.00    +0.000 A 
ATOM      4  C   UNL     1      -0.266  10.101  21.701  0.00  0.00    +0.000 A 
ATOM      5  C   UNL     1      -0.270   9.916  20.310  0.00  0.00    +0.000 A 
ATOM      6  C   UNL     1       0.653   9.004  19.749  0.00  0.00    +0.000 A 
ENDROOT
BRANCH   1  12
ATOM      7  C   UNL     1       4.380   5.099  17.324  0.00  0.00    +0.000 C 
ATOM      8  C   UNL     1       4.433   5.624  18.775  0.00  0.00    +0.000 C 
ATOM      9  N   UNL     1       3.239   5.174  19.499  0.00  0.00    +0.000 N 
ATOM     10  C   UNL     1       2.245   5.937  20.080  0.00  0.00    +0.000 C 
ATOM     11  O   UNL     1       1.302   5.384  20.642  0.00  0.00    +0.000 OA
ATOM     12  N   UNL     1       2.379   7.304  19.968  0.00  0.00    +0.000 N 
ATOM     13  C   UNL     1       3.070   3.718  19.472  0.00  0.00    +0.000 C 
ATOM     14  C   UNL     1       3.083   3.220  18.025  0.00  0.00    +0.000 C 
ATOM     15  O   UNL     1       4.271   3.654  17.343  0.00  0.00    +0.000 OA
ATOM     16  H   UNL     1       2.967   7.656  19.232  0.00  0.00    +0.000 HD
BRANCH   7  18
ATOM     17  C   UNL     1       6.895   4.926  17.196  0.00  0.00    +0.000 C 
ATOM     18  C   UNL     1       5.634   5.454  16.498  0.00  0.00    +0.000 C 
ATOM     19  C   UNL     1       5.586   4.912  15.067  0.00  0.00    +0.000 C 
ENDBRANCH   7  18
ENDBRANCH   1  12
BRANCH   5  20
ATOM     20  C   UNL     1      -1.268  10.650  19.423  0.00  0.00    +0.000 C 
ATOM     21  C   UNL     1      -0.945  10.462  17.936  0.00  0.00    +0.000 C 
BRANCH  20  22
ATOM     22  S   UNL     1      -1.294  12.461  19.758  0.00  0.00    +0.000 S 
BRANCH  22  23
ATOM     23  C   UNL     1      -2.808  12.641  20.563  0.00  0.00    +0.000 A 
ATOM     24  N   UNL     1      -3.999  12.525  20.023  0.00  0.00    +0.000 NA
ATOM     25  N   UNL     1      -4.929  12.772  21.011  0.00  0.00    +0.000 NA
ATOM     26  C   UNL     1      -4.273  13.026  22.120  0.00  0.00    +0.000 A 
ATOM     27  N   UNL     1      -2.931  12.958  21.885  0.00  0.00    +0.000 N 
ATOM     28  C   UNL     1      -1.899  13.140  22.870  0.00  0.00    +0.000 C 
ENDBRANCH  22  23
ENDBRANCH  20  22
ENDBRANCH   5  20
TORSDOF 5
ENDMDL
