MODEL 1
REMARK VINA RESULT:      -9.6      0.000      0.000
REMARK  Name = 
REMARK  8 active torsions:
REMARK  status: ('A' for Active; 'I' for Inactive)
REMARK    1  A    between atoms: C_1  and  N_2
REMARK    2  A    between atoms: C_6  and  C_7
REMARK    3  A    between atoms: C_7  and  C_8
REMARK    4  A    between atoms: C_8  and  C_9
REMARK    5  A    between atoms: C_13  and  N_14
REMARK    6  A    between atoms: C_19  and  C_20
REMARK    7  A    between atoms: C_20  and  N_21
REMARK    8  A    between atoms: C_29  and  C_30
REMARK                            x       y       z     vdW  Elec       q    Type
REMARK                         _______ _______ _______ _____ _____    ______ ____
ROOT
ATOM      1  N   UNL     1       2.237   7.364  19.262  0.00  0.00    +0.000 N 
ATOM      2  C   UNL     1       1.556   7.694  20.492  0.00  0.00    +0.000 C 
ATOM      3  C   UNL     1       1.099   9.081  20.304  0.00  0.00    +0.000 A 
ATOM      4  C   UNL     1       1.428   9.515  19.024  0.00  0.00    +0.000 A 
ATOM      5  C   UNL     1       1.052  10.779  18.598  0.00  0.00    +0.000 A 
ATOM      6  C   UNL     1       0.338  11.600  19.503  0.00  0.00    +0.000 A 
ATOM      7  C   UNL     1       0.050  11.138  20.811  0.00  0.00    +0.000 A 
ATOM      8  C   UNL     1       0.427   9.862  21.235  0.00  0.00    +0.000 A 
ATOM      9  C   UNL     1       2.178   8.417  18.343  0.00  0.00    +0.000 C 
ATOM     10  O   UNL     1       2.632   8.506  17.218  0.00  0.00    +0.000 OA
ENDROOT
BRANCH   1  15
ATOM     11  C   UNL     1       4.464   4.718  17.849  0.00  0.00    +0.000 A 
ATOM     12  C   UNL     1       4.168   3.636  18.678  0.00  0.00    +0.000 A 
ATOM     13  C   UNL     1       3.275   3.789  19.751  0.00  0.00    +0.000 A 
ATOM     14  C   UNL     1       2.635   5.015  20.000  0.00  0.00    +0.000 A 
ATOM     15  C   UNL     1       2.871   6.095  19.161  0.00  0.00    +0.000 A 
ATOM     16  C   UNL     1       3.793   5.914  18.110  0.00  0.00    +0.000 A 
BRANCH  11  17
ATOM     17  C   UNL     1       5.448   4.671  16.676  0.00  0.00    +0.000 C 
ATOM     18  C   UNL     1       5.186   3.505  15.698  0.00  0.00    +0.000 C 
ATOM     19  C   UNL     1       5.655   4.011  14.356  0.00  0.00    +0.000 C 
ATOM     20  O   UNL     1       5.444   5.421  14.359  0.00  0.00    +0.000 OA
ATOM     21  C   UNL     1       5.228   5.858  15.710  0.00  0.00    +0.000 C 
BRANCH  17  22
ATOM     22  C   UNL     1       6.912   4.690  17.210  0.00  0.00    +0.000 C 
BRANCH  22  28
ATOM     23  C   UNL     1       8.129   5.778  19.977  0.00  0.00    +0.000 C 
ATOM     24  N   UNL     1       7.957   6.490  18.739  0.00  0.00    +0.000 N 
ATOM     25  C   UNL     1       8.230   7.815  18.581  0.00  0.00    +0.000 A 
ATOM     26  N   UNL     1       8.011   8.162  17.337  0.00  0.00    +0.000 NA
ATOM     27  N   UNL     1       7.556   7.049  16.672  0.00  0.00    +0.000 NA
ATOM     28  C   UNL     1       7.499   6.040  17.522  0.00  0.00    +0.000 A 
ENDBRANCH  22  28
ENDBRANCH  17  22
ENDBRANCH  11  17
ENDBRANCH   1  15
BRANCH   8  29
ATOM     29  C   UNL     1       0.126   9.380  22.631  0.00  0.00    +0.000 C 
ATOM     30  F   UNL     1      -0.688   8.288  22.669  0.00  0.00    +0.000 F 
ATOM     31  F   UNL     1       1.252   9.023  23.306  0.00  0.00    +0.000 F 
ATOM     32  F   UNL     1      -0.494  10.323  23.389  0.00  0.00    +0.000 F 
ENDBRANCH   8  29
BRANCH   6  33
ATOM     33  C   UNL     1      -0.172  12.975  19.110  0.00  0.00    +0.000 C 
BRANCH  33  34
ATOM     34  N   UNL     1      -1.557  12.942  18.619  0.00  0.00    +0.000 NA
ATOM     35  C   UNL     1      -2.508  12.598  19.688  0.00  0.00    +0.000 C 
ATOM     36  C   UNL     1      -3.641  11.843  19.013  0.00  0.00    +0.000 C 
ATOM     37  C   UNL     1      -2.959  11.191  17.856  0.00  0.00    +0.000 C 
ATOM     38  C   UNL     1      -3.786  10.530  16.774  0.00  0.00    +0.000 C 
ATOM     39  C   UNL     1      -2.965   9.683  17.702  0.00  0.00    +0.000 C 
ATOM     40  C   UNL     1      -1.716  11.970  17.521  0.00  0.00    +0.000 C 
ENDBRANCH  33  34
ENDBRANCH   6  33
TORSDOF 7
ENDMDL
MODEL 2
REMARK VINA RESULT:      -9.6      1.505      2.550
REMARK  Name = 
REMARK  8 active torsions:
REMARK  status: ('A' for Active; 'I' for Inactive)
REMARK    1  A    between atoms: C_1  and  N_2
REMARK    2  A    between atoms: C_6  and  C_7
REMARK    3  A    between atoms: C_7  and  C_8
REMARK    4  A    between atoms: C_8  and  C_9
REMARK    5  A    between atoms: C_13  and  N_14
REMARK    6  A    between atoms: C_19  and  C_20
REMARK    7  A    between atoms: C_20  and  N_21
REMARK    8  A    between atoms: C_29  and  C_30
REMARK                            x       y       z     vdW  Elec       q    Type
REMARK                         _______ _______ _______ _____ _____    ______ ____
ROOT
ATOM      1  N   UNL     1       2.159   7.543  19.454  0.00  0.00    +0.000 N 
ATOM      2  C   UNL     1       1.451   7.851  20.675  0.00  0.00    +0.000 C 
ATOM      3  C   UNL     1       0.791   9.140  20.407  0.00  0.00    +0.000 A 
ATOM      4  C   UNL     1       1.037   9.530  19.094  0.00  0.00    +0.000 A 
ATOM      5  C   UNL     1       0.473  10.693  18.595  0.00  0.00    +0.000 A 
ATOM      6  C   UNL     1      -0.344  11.459  19.459  0.00  0.00    +0.000 A 
ATOM      7  C   UNL     1      -0.547  11.049  20.801  0.00  0.00    +0.000 A 
ATOM      8  C   UNL     1       0.021   9.873  21.299  0.00  0.00    +0.000 A 
ATOM      9  C   UNL     1       1.935   8.512  18.470  0.00  0.00    +0.000 C 
ATOM     10  O   UNL     1       2.359   8.591  17.332  0.00  0.00    +0.000 OA
ENDROOT
BRANCH   1  15
ATOM     11  C   UNL     1       5.197   5.469  18.801  0.00  0.00    +0.000 A 
ATOM     12  C   UNL     1       4.743   4.196  19.148  0.00  0.00    +0.000 A 
ATOM     13  C   UNL     1       3.447   4.022  19.661  0.00  0.00    +0.000 A 
ATOM     14  C   UNL     1       2.567   5.108  19.807  0.00  0.00    +0.000 A 
ATOM     15  C   UNL     1       2.974   6.378  19.422  0.00  0.00    +0.000 A 
ATOM     16  C   UNL     1       4.290   6.521  18.937  0.00  0.00    +0.000 A 
BRANCH  11  17
ATOM     17  C   UNL     1       6.600   5.776  18.268  0.00  0.00    +0.000 C 
ATOM     18  C   UNL     1       6.705   7.144  17.558  0.00  0.00    +0.000 C 
ATOM     19  C   UNL     1       8.128   7.591  17.787  0.00  0.00    +0.000 C 
ATOM     20  O   UNL     1       8.525   7.048  19.044  0.00  0.00    +0.000 OA
ATOM     21  C   UNL     1       7.599   6.019  19.423  0.00  0.00    +0.000 C 
BRANCH  17  22
ATOM     22  C   UNL     1       7.099   4.598  17.378  0.00  0.00    +0.000 C 
BRANCH  22  28
ATOM     23  C   UNL     1       4.501   3.674  15.730  0.00  0.00    +0.000 C 
ATOM     24  N   UNL     1       5.721   4.241  15.223  0.00  0.00    +0.000 N 
ATOM     25  C   UNL     1       5.990   4.404  13.897  0.00  0.00    +0.000 A 
ATOM     26  N   UNL     1       7.157   4.980  13.754  0.00  0.00    +0.000 NA
ATOM     27  N   UNL     1       7.680   5.171  15.010  0.00  0.00    +0.000 NA
ATOM     28  C   UNL     1       6.825   4.704  15.902  0.00  0.00    +0.000 A 
ENDBRANCH  22  28
ENDBRANCH  17  22
ENDBRANCH  11  17
ENDBRANCH   1  15
BRANCH   8  29
ATOM     29  C   UNL     1      -0.190   9.448  22.729  0.00  0.00    +0.000 C 
ATOM     30  F   UNL     1      -0.814   8.242  22.854  0.00  0.00    +0.000 F 
ATOM     31  F   UNL     1       0.982   9.327  23.408  0.00  0.00    +0.000 F 
ATOM     32  F   UNL     1      -0.952  10.327  23.431  0.00  0.00    +0.000 F 
ENDBRANCH   8  29
BRANCH   6  33
ATOM     33  C   UNL     1      -1.058  12.714  18.989  0.00  0.00    +0.000 C 
BRANCH  33  34
ATOM     34  N   UNL     1      -2.279  12.415  18.229  0.00  0.00    +0.000 NA
ATOM     35  C   UNL     1      -3.171  11.504  18.963  0.00  0.00    +0.000 C 
ATOM     36  C   UNL     1      -3.889  10.680  17.907  0.00  0.00    +0.000 C 
ATOM     37  C   UNL     1      -2.894  10.632  16.795  0.00  0.00    +0.000 C 
ATOM     38  C   UNL     1      -3.312  10.104  15.439  0.00  0.00    +0.000 C 
ATOM     39  C   UNL     1      -2.363   9.307  16.285  0.00  0.00    +0.000 C 
ATOM     40  C   UNL     1      -1.966  11.810  16.921  0.00  0.00    +0.000 C 
ENDBRANCH  33  34
ENDBRANCH   6  33
TORSDOF 7
ENDMDL
MODEL 3
REMARK VINA RESULT:      -9.6      2.442      8.862
REMARK  Name = 
REMARK  8 active torsions:
REMARK  status: ('A' for Active; 'I' for Inactive)
REMARK    1  A    between atoms: C_1  and  N_2
REMARK    2  A    between atoms: C_6  and  C_7
REMARK    3  A    between atoms: C_7  and  C_8
REMARK    4  A    between atoms: C_8  and  C_9
REMARK    5  A    between atoms: C_13  and  N_14
REMARK    6  A    between atoms: C_19  and  C_20
REMARK    7  A    between atoms: C_20  and  N_21
REMARK    8  A    between atoms: C_29  and  C_30
REMARK                            x       y       z     vdW  Elec       q    Type
REMARK                         _______ _______ _______ _____ _____    ______ ____
ROOT
ATOM      1  N   UNL     1       1.512   8.065  19.894  0.00  0.00    +0.000 N 
ATOM      2  C   UNL     1       1.521   6.756  20.505  0.00  0.00    +0.000 C 
ATOM      3  C   UNL     1       2.341   5.930  19.602  0.00  0.00    +0.000 A 
ATOM      4  C   UNL     1       2.838   6.716  18.567  0.00  0.00    +0.000 A 
ATOM      5  C   UNL     1       3.682   6.165  17.617  0.00  0.00    +0.000 A 
ATOM      6  C   UNL     1       4.010   4.793  17.734  0.00  0.00    +0.000 A 
ATOM      7  C   UNL     1       3.458   4.014  18.782  0.00  0.00    +0.000 A 
ATOM      8  C   UNL     1       2.611   4.575  19.740  0.00  0.00    +0.000 A 
ATOM      9  C   UNL     1       2.297   8.098  18.736  0.00  0.00    +0.000 C 
ATOM     10  O   UNL     1       2.524   9.012  17.965  0.00  0.00    +0.000 OA
ENDROOT
BRANCH   1  15
ATOM     11  C   UNL     1      -0.933  10.883  20.082  0.00  0.00    +0.000 A 
ATOM     12  C   UNL     1      -0.845  11.236  21.428  0.00  0.00    +0.000 A 
ATOM     13  C   UNL     1      -0.023  10.504  22.300  0.00  0.00    +0.000 A 
ATOM     14  C   UNL     1       0.754   9.427  21.840  0.00  0.00    +0.000 A 
ATOM     15  C   UNL     1       0.725   9.085  20.495  0.00  0.00    +0.000 A 
ATOM     16  C   UNL     1      -0.132   9.823  19.654  0.00  0.00    +0.000 A 
BRANCH  11  17
ATOM     17  C   UNL     1      -1.824  11.588  19.054  0.00  0.00    +0.000 C 
ATOM     18  C   UNL     1      -2.635  10.615  18.170  0.00  0.00    +0.000 C 
ATOM     19  C   UNL     1      -3.896  11.367  17.822  0.00  0.00    +0.000 C 
ATOM     20  O   UNL     1      -4.169  12.231  18.923  0.00  0.00    +0.000 OA
ATOM     21  C   UNL     1      -2.994  12.331  19.740  0.00  0.00    +0.000 C 
BRANCH  17  22
ATOM     22  C   UNL     1      -0.977  12.594  18.219  0.00  0.00    +0.000 C 
BRANCH  22  28
ATOM     23  C   UNL     1       2.225  12.532  18.471  0.00  0.00    +0.000 C 
ATOM     24  N   UNL     1       1.298  13.418  19.121  0.00  0.00    +0.000 N 
ATOM     25  C   UNL     1       1.661  14.355  20.041  0.00  0.00    +0.000 A 
ATOM     26  N   UNL     1       0.604  15.030  20.420  0.00  0.00    +0.000 NA
ATOM     27  N   UNL     1      -0.480  14.505  19.759  0.00  0.00    +0.000 NA
ATOM     28  C   UNL     1      -0.069  13.514  18.989  0.00  0.00    +0.000 A 
ENDBRANCH  22  28
ENDBRANCH  17  22
ENDBRANCH  11  17
ENDBRANCH   1  15
BRANCH   8  29
ATOM     29  C   UNL     1       2.020   3.740  20.847  0.00  0.00    +0.000 C 
ATOM     30  F   UNL     1       0.657   3.711  20.842  0.00  0.00    +0.000 F 
ATOM     31  F   UNL     1       2.415   2.440  20.778  0.00  0.00    +0.000 F 
ATOM     32  F   UNL     1       2.370   4.183  22.083  0.00  0.00    +0.000 F 
ENDBRANCH   8  29
BRANCH   6  33
ATOM     33  C   UNL     1       4.975   4.112  16.780  0.00  0.00    +0.000 C 
BRANCH  33  34
ATOM     34  N   UNL     1       6.358   4.577  16.953  0.00  0.00    +0.000 NA
ATOM     35  C   UNL     1       6.764   4.571  18.367  0.00  0.00    +0.000 C 
ATOM     36  C   UNL     1       7.753   5.715  18.524  0.00  0.00    +0.000 C 
ATOM     37  C   UNL     1       7.300   6.686  17.484  0.00  0.00    +0.000 C 
ATOM     38  C   UNL     1       8.171   7.874  17.139  0.00  0.00    +0.000 C 
ATOM     39  C   UNL     1       6.877   8.091  17.865  0.00  0.00    +0.000 C 
ATOM     40  C   UNL     1       6.539   5.941  16.420  0.00  0.00    +0.000 C 
ENDBRANCH  33  34
ENDBRANCH   6  33
TORSDOF 7
ENDMDL
MODEL 4
REMARK VINA RESULT:      -9.5      2.530      8.681
REMARK  Name = 
REMARK  8 active torsions:
REMARK  status: ('A' for Active; 'I' for Inactive)
REMARK    1  A    between atoms: C_1  and  N_2
REMARK    2  A    between atoms: C_6  and  C_7
REMARK    3  A    between atoms: C_7  and  C_8
REMARK    4  A    between atoms: C_8  and  C_9
REMARK    5  A    between atoms: C_13  and  N_14
REMARK    6  A    between atoms: C_19  and  C_20
REMARK    7  A    between atoms: C_20  and  N_21
REMARK    8  A    between atoms: C_29  and  C_30
REMARK                            x       y       z     vdW  Elec       q    Type
REMARK                         _______ _______ _______ _____ _____    ______ ____
ROOT
ATOM      1  N   UNL     1       1.498   7.999  20.077  0.00  0.00    +0.000 N 
ATOM      2  C   UNL     1       1.506   6.667  20.636  0.00  0.00    +0.000 C 
ATOM      3  C   UNL     1       2.299   5.869  19.686  0.00  0.00    +0.000 A 
ATOM      4  C   UNL     1       2.784   6.690  18.672  0.00  0.00    +0.000 A 
ATOM      5  C   UNL     1       3.603   6.168  17.685  0.00  0.00    +0.000 A 
ATOM      6  C   UNL     1       3.918   4.790  17.742  0.00  0.00    +0.000 A 
ATOM      7  C   UNL     1       3.380   3.976  18.770  0.00  0.00    +0.000 A 
ATOM      8  C   UNL     1       2.557   4.508  19.766  0.00  0.00    +0.000 A 
ATOM      9  C   UNL     1       2.260   8.069  18.905  0.00  0.00    +0.000 C 
ATOM     10  O   UNL     1       2.481   9.010  18.166  0.00  0.00    +0.000 OA
ENDROOT
BRANCH   1  15
ATOM     11  C   UNL     1      -0.797  10.927  20.410  0.00  0.00    +0.000 A 
ATOM     12  C   UNL     1      -0.770  11.145  21.788  0.00  0.00    +0.000 A 
ATOM     13  C   UNL     1      -0.040  10.286  22.626  0.00  0.00    +0.000 A 
ATOM     14  C   UNL     1       0.702   9.213  22.105  0.00  0.00    +0.000 A 
ATOM     15  C   UNL     1       0.733   9.002  20.733  0.00  0.00    +0.000 A 
ATOM     16  C   UNL     1      -0.031   9.867  19.924  0.00  0.00    +0.000 A 
BRANCH  11  17
ATOM     17  C   UNL     1      -1.587  11.779  19.412  0.00  0.00    +0.000 C 
ATOM     18  C   UNL     1      -1.843  11.071  18.063  0.00  0.00    +0.000 C 
ATOM     19  C   UNL     1      -3.149  11.639  17.567  0.00  0.00    +0.000 C 
ATOM     20  O   UNL     1      -3.916  11.959  18.725  0.00  0.00    +0.000 OA
ATOM     21  C   UNL     1      -3.051  11.971  19.871  0.00  0.00    +0.000 C 
BRANCH  17  22
ATOM     22  C   UNL     1      -0.902  13.168  19.240  0.00  0.00    +0.000 C 
BRANCH  22  28
ATOM     23  C   UNL     1       1.099  14.239  21.514  0.00  0.00    +0.000 C 
ATOM     24  N   UNL     1       1.426  13.707  20.219  0.00  0.00    +0.000 N 
ATOM     25  C   UNL     1       2.693  13.650  19.719  0.00  0.00    +0.000 A 
ATOM     26  N   UNL     1       2.674  13.081  18.540  0.00  0.00    +0.000 NA
ATOM     27  N   UNL     1       1.365  12.785  18.245  0.00  0.00    +0.000 NA
ATOM     28  C   UNL     1       0.603  13.183  19.248  0.00  0.00    +0.000 A 
ENDBRANCH  22  28
ENDBRANCH  17  22
ENDBRANCH  11  17
ENDBRANCH   1  15
BRANCH   8  29
ATOM     29  C   UNL     1       1.979   3.635  20.851  0.00  0.00    +0.000 C 
ATOM     30  F   UNL     1       2.342   2.325  20.751  0.00  0.00    +0.000 F 
ATOM     31  F   UNL     1       2.370   4.031  22.092  0.00  0.00    +0.000 F 
ATOM     32  F   UNL     1       0.620   3.637  20.857  0.00  0.00    +0.000 F 
ENDBRANCH   8  29
BRANCH   6  33
ATOM     33  C   UNL     1       4.857   4.137  16.743  0.00  0.00    +0.000 C 
BRANCH  33  34
ATOM     34  N   UNL     1       6.250   4.575  16.912  0.00  0.00    +0.000 NA
ATOM     35  C   UNL     1       6.662   4.554  18.324  0.00  0.00    +0.000 C 
ATOM     36  C   UNL     1       7.673   5.678  18.482  0.00  0.00    +0.000 C 
ATOM     37  C   UNL     1       7.234   6.663  17.450  0.00  0.00    +0.000 C 
ATOM     38  C   UNL     1       8.126   7.836  17.106  0.00  0.00    +0.000 C 
ATOM     39  C   UNL     1       6.839   8.073  17.840  0.00  0.00    +0.000 C 
ATOM     40  C   UNL     1       6.455   5.938  16.386  0.00  0.00    +0.000 C 
ENDBRANCH  33  34
ENDBRANCH   6  33
TORSDOF 7
ENDMDL
MODEL 5
REMARK VINA RESULT:      -9.5      1.483      2.773
REMARK  Name = 
REMARK  8 active torsions:
REMARK  status: ('A' for Active; 'I' for Inactive)
REMARK    1  A    between atoms: C_1  and  N_2
REMARK    2  A    between atoms: C_6  and  C_7
REMARK    3  A    between atoms: C_7  and  C_8
REMARK    4  A    between atoms: C_8  and  C_9
REMARK    5  A    between atoms: C_13  and  N_14
REMARK    6  A    between atoms: C_19  and  C_20
REMARK    7  A    between atoms: C_20  and  N_21
REMARK    8  A    between atoms: C_29  and  C_30
REMARK                            x       y       z     vdW  Elec       q    Type
REMARK                         _______ _______ _______ _____ _____    ______ ____
ROOT
ATOM      1  N   UNL     1       2.194   7.473  19.246  0.00  0.00    +0.000 N 
ATOM      2  C   UNL     1       1.493   7.834  20.456  0.00  0.00    +0.000 C 
ATOM      3  C   UNL     1       1.012   9.204  20.213  0.00  0.00    +0.000 A 
ATOM      4  C   UNL     1       1.346   9.597  18.920  0.00  0.00    +0.000 A 
ATOM      5  C   UNL     1       0.951  10.837  18.444  0.00  0.00    +0.000 A 
ATOM      6  C   UNL     1       0.212  11.677  19.311  0.00  0.00    +0.000 A 
ATOM      7  C   UNL     1      -0.082  11.258  20.632  0.00  0.00    +0.000 A 
ATOM      8  C   UNL     1       0.315  10.005  21.107  0.00  0.00    +0.000 A 
ATOM      9  C   UNL     1       2.125   8.490  18.288  0.00  0.00    +0.000 C 
ATOM     10  O   UNL     1       2.590   8.546  17.165  0.00  0.00    +0.000 OA
ENDROOT
BRANCH   1  15
ATOM     11  C   UNL     1       4.452   4.804  17.930  0.00  0.00    +0.000 A 
ATOM     12  C   UNL     1       4.194   3.760  18.818  0.00  0.00    +0.000 A 
ATOM     13  C   UNL     1       3.317   3.950  19.898  0.00  0.00    +0.000 A 
ATOM     14  C   UNL     1       2.655   5.174  20.095  0.00  0.00    +0.000 A 
ATOM     15  C   UNL     1       2.853   6.214  19.198  0.00  0.00    +0.000 A 
ATOM     16  C   UNL     1       3.761   5.998  18.141  0.00  0.00    +0.000 A 
BRANCH  11  17
ATOM     17  C   UNL     1       5.417   4.717  16.743  0.00  0.00    +0.000 C 
ATOM     18  C   UNL     1       5.119   3.538  15.791  0.00  0.00    +0.000 C 
ATOM     19  C   UNL     1       5.575   4.010  14.433  0.00  0.00    +0.000 C 
ATOM     20  O   UNL     1       5.390   5.424  14.413  0.00  0.00    +0.000 OA
ATOM     21  C   UNL     1       5.204   5.889  15.758  0.00  0.00    +0.000 C 
BRANCH  17  22
ATOM     22  C   UNL     1       6.889   4.718  17.254  0.00  0.00    +0.000 C 
BRANCH  22  28
ATOM     23  C   UNL     1       8.152   5.789  20.007  0.00  0.00    +0.000 C 
ATOM     24  N   UNL     1       7.974   6.504  18.772  0.00  0.00    +0.000 N 
ATOM     25  C   UNL     1       8.260   7.826  18.611  0.00  0.00    +0.000 A 
ATOM     26  N   UNL     1       8.031   8.177  17.370  0.00  0.00    +0.000 NA
ATOM     27  N   UNL     1       7.555   7.070  16.710  0.00  0.00    +0.000 NA
ATOM     28  C   UNL     1       7.496   6.061  17.560  0.00  0.00    +0.000 A 
ENDBRANCH  22  28
ENDBRANCH  17  22
ENDBRANCH  11  17
ENDBRANCH   1  15
BRANCH   8  29
ATOM     29  C   UNL     1       0.008   9.569  22.517  0.00  0.00    +0.000 C 
ATOM     30  F   UNL     1      -0.604  10.531  23.265  0.00  0.00    +0.000 F 
ATOM     31  F   UNL     1      -0.821   8.492  22.553  0.00  0.00    +0.000 F 
ATOM     32  F   UNL     1       1.122   9.221  23.213  0.00  0.00    +0.000 F 
ENDBRANCH   8  29
BRANCH   6  33
ATOM     33  C   UNL     1      -0.320  13.026  18.862  0.00  0.00    +0.000 C 
BRANCH  33  34
ATOM     34  N   UNL     1       0.405  14.148  19.476  0.00  0.00    +0.000 NA
ATOM     35  C   UNL     1      -0.092  15.447  18.997  0.00  0.00    +0.000 C 
ATOM     36  C   UNL     1       1.106  16.384  19.010  0.00  0.00    +0.000 C 
ATOM     37  C   UNL     1       2.251  15.456  18.772  0.00  0.00    +0.000 C 
ATOM     38  C   UNL     1       3.669  15.955  18.954  0.00  0.00    +0.000 C 
ATOM     39  C   UNL     1       3.163  15.640  17.576  0.00  0.00    +0.000 C 
ATOM     40  C   UNL     1       1.852  14.070  19.200  0.00  0.00    +0.000 C 
ENDBRANCH  33  34
ENDBRANCH   6  33
TORSDOF 7
ENDMDL
MODEL 6
REMARK VINA RESULT:      -9.4      1.979      3.600
REMARK  Name = 
REMARK  8 active torsions:
REMARK  status: ('A' for Active; 'I' for Inactive)
REMARK    1  A    between atoms: C_1  and  N_2
REMARK    2  A    between atoms: C_6  and  C_7
REMARK    3  A    between atoms: C_7  and  C_8
REMARK    4  A    between atoms: C_8  and  C_9
REMARK    5  A    between atoms: C_13  and  N_14
REMARK    6  A    between atoms: C_19  and  C_20
REMARK    7  A    between atoms: C_20  and  N_21
REMARK    8  A    between atoms: C_29  and  C_30
REMARK                            x       y       z     vdW  Elec       q    Type
REMARK                         _______ _______ _______ _____ _____    ______ ____
ROOT
ATOM      1  N   UNL     1       2.122   7.668  19.405  0.00  0.00    +0.000 N 
ATOM      2  C   UNL     1       1.389   7.963  20.614  0.00  0.00    +0.000 C 
ATOM      3  C   UNL     1       0.814   9.299  20.384  0.00  0.00    +0.000 A 
ATOM      4  C   UNL     1       1.130   9.732  19.099  0.00  0.00    +0.000 A 
ATOM      5  C   UNL     1       0.653  10.947  18.636  0.00  0.00    +0.000 A 
ATOM      6  C   UNL     1      -0.151  11.721  19.507  0.00  0.00    +0.000 A 
ATOM      7  C   UNL     1      -0.425  11.265  20.820  0.00  0.00    +0.000 A 
ATOM      8  C   UNL     1       0.055  10.037  21.282  0.00  0.00    +0.000 A 
ATOM      9  C   UNL     1       1.990   8.691  18.460  0.00  0.00    +0.000 C 
ATOM     10  O   UNL     1       2.459   8.795  17.342  0.00  0.00    +0.000 OA
ENDROOT
BRANCH   1  15
ATOM     11  C   UNL     1       5.052   5.446  18.746  0.00  0.00    +0.000 A 
ATOM     12  C   UNL     1       4.517   4.190  19.030  0.00  0.00    +0.000 A 
ATOM     13  C   UNL     1       3.199   4.073  19.504  0.00  0.00    +0.000 A 
ATOM     14  C   UNL     1       2.380   5.201  19.671  0.00  0.00    +0.000 A 
ATOM     15  C   UNL     1       2.869   6.459  19.347  0.00  0.00    +0.000 A 
ATOM     16  C   UNL     1       4.204   6.543  18.901  0.00  0.00    +0.000 A 
BRANCH  11  17
ATOM     17  C   UNL     1       6.484   5.691  18.261  0.00  0.00    +0.000 C 
ATOM     18  C   UNL     1       6.676   7.056  17.565  0.00  0.00    +0.000 C 
ATOM     19  C   UNL     1       8.110   7.436  17.843  0.00  0.00    +0.000 C 
ATOM     20  O   UNL     1       8.440   6.868  19.108  0.00  0.00    +0.000 OA
ATOM     21  C   UNL     1       7.456   5.881  19.449  0.00  0.00    +0.000 C 
BRANCH  17  22
ATOM     22  C   UNL     1       6.957   4.496  17.378  0.00  0.00    +0.000 C 
BRANCH  22  28
ATOM     23  C   UNL     1       4.436   3.635  15.583  0.00  0.00    +0.000 C 
ATOM     24  N   UNL     1       5.686   4.198  15.150  0.00  0.00    +0.000 N 
ATOM     25  C   UNL     1       6.023   4.384  13.843  0.00  0.00    +0.000 A 
ATOM     26  N   UNL     1       7.203   4.949  13.770  0.00  0.00    +0.000 NA
ATOM     27  N   UNL     1       7.663   5.109  15.055  0.00  0.00    +0.000 NA
ATOM     28  C   UNL     1       6.759   4.635  15.893  0.00  0.00    +0.000 A 
ENDBRANCH  22  28
ENDBRANCH  17  22
ENDBRANCH  11  17
ENDBRANCH   1  15
BRANCH   8  29
ATOM     29  C   UNL     1      -0.232   9.562  22.683  0.00  0.00    +0.000 C 
ATOM     30  F   UNL     1      -0.963   8.412  22.731  0.00  0.00    +0.000 F 
ATOM     31  F   UNL     1       0.906   9.303  23.382  0.00  0.00    +0.000 F 
ATOM     32  F   UNL     1      -0.933  10.470  23.412  0.00  0.00    +0.000 F 
ENDBRANCH   8  29
BRANCH   6  33
ATOM     33  C   UNL     1      -0.773  13.036  19.071  0.00  0.00    +0.000 C 
BRANCH  33  34
ATOM     34  N   UNL     1      -0.138  14.197  19.710  0.00  0.00    +0.000 NA
ATOM     35  C   UNL     1      -0.608  15.465  19.132  0.00  0.00    +0.000 C 
ATOM     36  C   UNL     1       0.562  16.430  19.232  0.00  0.00    +0.000 C 
ATOM     37  C   UNL     1       1.745  15.523  19.149  0.00  0.00    +0.000 C 
ATOM     38  C   UNL     1       3.125  16.062  19.455  0.00  0.00    +0.000 C 
ATOM     39  C   UNL     1       2.772  15.684  18.047  0.00  0.00    +0.000 C 
ATOM     40  C   UNL     1       1.331  14.144  19.588  0.00  0.00    +0.000 C 
ENDBRANCH  33  34
ENDBRANCH   6  33
TORSDOF 7
ENDMDL
MODEL 7
REMARK VINA RESULT:      -9.3      2.369      9.304
REMARK  Name = 
REMARK  8 active torsions:
REMARK  status: ('A' for Active; 'I' for Inactive)
REMARK    1  A    between atoms: C_1  and  N_2
REMARK    2  A    between atoms: C_6  and  C_7
REMARK    3  A    between atoms: C_7  and  C_8
REMARK    4  A    between atoms: C_8  and  C_9
REMARK    5  A    between atoms: C_13  and  N_14
REMARK    6  A    between atoms: C_19  and  C_20
REMARK    7  A    between atoms: C_20  and  N_21
REMARK    8  A    between atoms: C_29  and  C_30
REMARK                            x       y       z     vdW  Elec       q    Type
REMARK                         _______ _______ _______ _____ _____    ______ ____
ROOT
ATOM      1  N   UNL     1       1.463   8.024  20.069  0.00  0.00    +0.000 N 
ATOM      2  C   UNL     1       1.490   6.695  20.635  0.00  0.00    +0.000 C 
ATOM      3  C   UNL     1       2.280   5.901  19.679  0.00  0.00    +0.000 A 
ATOM      4  C   UNL     1       2.746   6.722  18.656  0.00  0.00    +0.000 A 
ATOM      5  C   UNL     1       3.559   6.204  17.662  0.00  0.00    +0.000 A 
ATOM      6  C   UNL     1       3.889   4.829  17.722  0.00  0.00    +0.000 A 
ATOM      7  C   UNL     1       3.370   4.015  18.759  0.00  0.00    +0.000 A 
ATOM      8  C   UNL     1       2.553   4.542  19.762  0.00  0.00    +0.000 A 
ATOM      9  C   UNL     1       2.211   8.097  18.889  0.00  0.00    +0.000 C 
ATOM     10  O   UNL     1       2.414   9.037  18.144  0.00  0.00    +0.000 OA
ENDROOT
BRANCH   1  15
ATOM     11  C   UNL     1      -0.233  11.317  20.559  0.00  0.00    +0.000 A 
ATOM     12  C   UNL     1      -0.694  11.198  21.871  0.00  0.00    +0.000 A 
ATOM     13  C   UNL     1      -0.502  10.003  22.583  0.00  0.00    +0.000 A 
ATOM     14  C   UNL     1       0.182   8.915  22.015  0.00  0.00    +0.000 A 
ATOM     15  C   UNL     1       0.696   9.023  20.730  0.00  0.00    +0.000 A 
ATOM     16  C   UNL     1       0.462  10.226  20.034  0.00  0.00    +0.000 A 
BRANCH  11  17
ATOM     17  C   UNL     1      -0.420  12.558  19.681  0.00  0.00    +0.000 C 
ATOM     18  C   UNL     1      -1.236  13.679  20.362  0.00  0.00    +0.000 C 
ATOM     19  C   UNL     1      -0.704  14.960  19.770  0.00  0.00    +0.000 C 
ATOM     20  O   UNL     1       0.668  14.725  19.462  0.00  0.00    +0.000 OA
ATOM     21  C   UNL     1       0.915  13.311  19.480  0.00  0.00    +0.000 C 
BRANCH  17  22
ATOM     22  C   UNL     1      -1.006  12.145  18.297  0.00  0.00    +0.000 C 
BRANCH  22  28
ATOM     23  C   UNL     1      -2.725  10.866  15.903  0.00  0.00    +0.000 C 
ATOM     24  N   UNL     1      -3.185  11.307  17.192  0.00  0.00    +0.000 N 
ATOM     25  C   UNL     1      -4.494  11.316  17.570  0.00  0.00    +0.000 A 
ATOM     26  N   UNL     1      -4.591  11.732  18.807  0.00  0.00    +0.000 NA
ATOM     27  N   UNL     1      -3.323  12.033  19.242  0.00  0.00    +0.000 NA
ATOM     28  C   UNL     1      -2.470  11.800  18.260  0.00  0.00    +0.000 A 
ENDBRANCH  22  28
ENDBRANCH  17  22
ENDBRANCH  11  17
ENDBRANCH   1  15
BRANCH   8  29
ATOM     29  C   UNL     1       1.997   3.669  20.858  0.00  0.00    +0.000 C 
ATOM     30  F   UNL     1       2.379   2.364  20.764  0.00  0.00    +0.000 F 
ATOM     31  F   UNL     1       2.390   4.080  22.093  0.00  0.00    +0.000 F 
ATOM     32  F   UNL     1       0.638   3.650  20.874  0.00  0.00    +0.000 F 
ENDBRANCH   8  29
BRANCH   6  33
ATOM     33  C   UNL     1       4.823   4.181  16.715  0.00  0.00    +0.000 C 
BRANCH  33  34
ATOM     34  N   UNL     1       6.220   4.601  16.895  0.00  0.00    +0.000 NA
ATOM     35  C   UNL     1       6.627   4.561  18.308  0.00  0.00    +0.000 C 
ATOM     36  C   UNL     1       7.650   5.671  18.481  0.00  0.00    +0.000 C 
ATOM     37  C   UNL     1       7.226   6.672  17.457  0.00  0.00    +0.000 C 
ATOM     38  C   UNL     1       8.134   7.838  17.129  0.00  0.00    +0.000 C 
ATOM     39  C   UNL     1       6.847   8.082  17.861  0.00  0.00    +0.000 C 
ATOM     40  C   UNL     1       6.443   5.967  16.383  0.00  0.00    +0.000 C 
ENDBRANCH  33  34
ENDBRANCH   6  33
TORSDOF 7
ENDMDL
MODEL 8
REMARK VINA RESULT:      -9.3      1.424      2.399
REMARK  Name = 
REMARK  8 active torsions:
REMARK  status: ('A' for Active; 'I' for Inactive)
REMARK    1  A    between atoms: C_1  and  N_2
REMARK    2  A    between atoms: C_6  and  C_7
REMARK    3  A    between atoms: C_7  and  C_8
REMARK    4  A    between atoms: C_8  and  C_9
REMARK    5  A    between atoms: C_13  and  N_14
REMARK    6  A    between atoms: C_19  and  C_20
REMARK    7  A    between atoms: C_20  and  N_21
REMARK    8  A    between atoms: C_29  and  C_30
REMARK                            x       y       z     vdW  Elec       q    Type
REMARK                         _______ _______ _______ _____ _____    ______ ____
ROOT
ATOM      1  N   UNL     1       2.183   7.429  19.239  0.00  0.00    +0.000 N 
ATOM      2  C   UNL     1       1.501   7.789  20.460  0.00  0.00    +0.000 C 
ATOM      3  C   UNL     1       0.946   9.127  20.195  0.00  0.00    +0.000 A 
ATOM      4  C   UNL     1       1.223   9.500  18.883  0.00  0.00    +0.000 A 
ATOM      5  C   UNL     1       0.754  10.705  18.387  0.00  0.00    +0.000 A 
ATOM      6  C   UNL     1      -0.001  11.532  19.252  0.00  0.00    +0.000 A 
ATOM      7  C   UNL     1      -0.236  11.136  20.593  0.00  0.00    +0.000 A 
ATOM      8  C   UNL     1       0.237   9.918  21.088  0.00  0.00    +0.000 A 
ATOM      9  C   UNL     1       2.037   8.414  18.257  0.00  0.00    +0.000 C 
ATOM     10  O   UNL     1       2.466   8.461  17.120  0.00  0.00    +0.000 OA
ENDROOT
BRANCH   1  15
ATOM     11  C   UNL     1       4.532   4.837  17.927  0.00  0.00    +0.000 A 
ATOM     12  C   UNL     1       4.352   3.807  18.850  0.00  0.00    +0.000 A 
ATOM     13  C   UNL     1       3.498   3.985  19.951  0.00  0.00    +0.000 A 
ATOM     14  C   UNL     1       2.782   5.180  20.136  0.00  0.00    +0.000 A 
ATOM     15  C   UNL     1       2.903   6.202  19.205  0.00  0.00    +0.000 A 
ATOM     16  C   UNL     1       3.788   6.001  18.127  0.00  0.00    +0.000 A 
BRANCH  11  17
ATOM     17  C   UNL     1       5.464   4.763  16.713  0.00  0.00    +0.000 C 
ATOM     18  C   UNL     1       5.150   3.586  15.764  0.00  0.00    +0.000 C 
ATOM     19  C   UNL     1       5.565   4.069  14.396  0.00  0.00    +0.000 C 
ATOM     20  O   UNL     1       5.368   5.481  14.389  0.00  0.00    +0.000 OA
ATOM     21  C   UNL     1       5.215   5.938  15.740  0.00  0.00    +0.000 C 
BRANCH  17  22
ATOM     22  C   UNL     1       6.950   4.774  17.184  0.00  0.00    +0.000 C 
BRANCH  22  28
ATOM     23  C   UNL     1       8.150   5.801  19.982  0.00  0.00    +0.000 C 
ATOM     24  N   UNL     1       7.989   6.538  18.757  0.00  0.00    +0.000 N 
ATOM     25  C   UNL     1       8.267   7.866  18.628  0.00  0.00    +0.000 A 
ATOM     26  N   UNL     1       8.059   8.239  17.390  0.00  0.00    +0.000 NA
ATOM     27  N   UNL     1       7.605   7.142  16.699  0.00  0.00    +0.000 NA
ATOM     28  C   UNL     1       7.539   6.115  17.528  0.00  0.00    +0.000 A 
ENDBRANCH  22  28
ENDBRANCH  17  22
ENDBRANCH  11  17
ENDBRANCH   1  15
BRANCH   8  29
ATOM     29  C   UNL     1      -0.008   9.508  22.518  0.00  0.00    +0.000 C 
ATOM     30  F   UNL     1      -0.794   8.401  22.642  0.00  0.00    +0.000 F 
ATOM     31  F   UNL     1       1.147   9.214  23.174  0.00  0.00    +0.000 F 
ATOM     32  F   UNL     1      -0.626  10.476  23.243  0.00  0.00    +0.000 F 
ENDBRANCH   8  29
BRANCH   6  33
ATOM     33  C   UNL     1      -0.612  12.841  18.785  0.00  0.00    +0.000 C 
BRANCH  33  34
ATOM     34  N   UNL     1      -0.216  13.978  19.628  0.00  0.00    +0.000 NA
ATOM     35  C   UNL     1      -1.376  14.601  20.285  0.00  0.00    +0.000 C 
ATOM     36  C   UNL     1      -1.038  16.076  20.421  0.00  0.00    +0.000 C 
ATOM     37  C   UNL     1      -0.139  16.317  19.254  0.00  0.00    +0.000 C 
ATOM     38  C   UNL     1       0.626  17.619  19.154  0.00  0.00    +0.000 C 
ATOM     39  C   UNL     1      -0.496  17.342  18.197  0.00  0.00    +0.000 C 
ATOM     40  C   UNL     1       0.488  15.011  18.845  0.00  0.00    +0.000 C 
ENDBRANCH  33  34
ENDBRANCH   6  33
TORSDOF 7
ENDMDL
MODEL 9
REMARK VINA RESULT:      -9.3      2.733      9.122
REMARK  Name = 
REMARK  8 active torsions:
REMARK  status: ('A' for Active; 'I' for Inactive)
REMARK    1  A    between atoms: C_1  and  N_2
REMARK    2  A    between atoms: C_6  and  C_7
REMARK    3  A    between atoms: C_7  and  C_8
REMARK    4  A    between atoms: C_8  and  C_9
REMARK    5  A    between atoms: C_13  and  N_14
REMARK    6  A    between atoms: C_19  and  C_20
REMARK    7  A    between atoms: C_20  and  N_21
REMARK    8  A    between atoms: C_29  and  C_30
REMARK                            x       y       z     vdW  Elec       q    Type
REMARK                         _______ _______ _______ _____ _____    ______ ____
ROOT
ATOM      1  N   UNL     1       1.490   7.761  20.322  0.00  0.00    +0.000 N 
ATOM      2  C   UNL     1       1.541   6.405  20.816  0.00  0.00    +0.000 C 
ATOM      3  C   UNL     1       2.287   5.662  19.787  0.00  0.00    +0.000 A 
ATOM      4  C   UNL     1       2.707   6.535  18.788  0.00  0.00    +0.000 A 
ATOM      5  C   UNL     1       3.474   6.071  17.733  0.00  0.00    +0.000 A 
ATOM      6  C   UNL     1       3.805   4.695  17.706  0.00  0.00    +0.000 A 
ATOM      7  C   UNL     1       3.333   3.827  18.723  0.00  0.00    +0.000 A 
ATOM      8  C   UNL     1       2.562   4.301  19.787  0.00  0.00    +0.000 A 
ATOM      9  C   UNL     1       2.184   7.896  19.115  0.00  0.00    +0.000 C 
ATOM     10  O   UNL     1       2.355   8.873  18.411  0.00  0.00    +0.000 OA
ENDROOT
BRANCH   1  15
ATOM     11  C   UNL     1      -0.642  10.769  20.926  0.00  0.00    +0.000 A 
ATOM     12  C   UNL     1      -0.672  10.812  22.320  0.00  0.00    +0.000 A 
ATOM     13  C   UNL     1      -0.038   9.810  23.073  0.00  0.00    +0.000 A 
ATOM     14  C   UNL     1       0.665   8.764  22.452  0.00  0.00    +0.000 A 
ATOM     15  C   UNL     1       0.754   8.723  21.067  0.00  0.00    +0.000 A 
ATOM     16  C   UNL     1       0.084   9.730  20.342  0.00  0.00    +0.000 A 
BRANCH  11  17
ATOM     17  C   UNL     1      -1.328  11.787  20.010  0.00  0.00    +0.000 C 
ATOM     18  C   UNL     1      -2.100  11.142  18.838  0.00  0.00    +0.000 C 
ATOM     19  C   UNL     1      -3.235  12.093  18.551  0.00  0.00    +0.000 C 
ATOM     20  O   UNL     1      -3.571  12.709  19.792  0.00  0.00    +0.000 OA
ATOM     21  C   UNL     1      -2.507  12.484  20.728  0.00  0.00    +0.000 C 
BRANCH  17  22
ATOM     22  C   UNL     1      -0.296  12.853  19.534  0.00  0.00    +0.000 C 
BRANCH  22  28
ATOM     23  C   UNL     1      -1.171  15.865  20.232  0.00  0.00    +0.000 C 
ATOM     24  N   UNL     1      -0.111  15.088  20.816  0.00  0.00    +0.000 N 
ATOM     25  C   UNL     1       0.766  15.572  21.740  0.00  0.00    +0.000 A 
ATOM     26  N   UNL     1       1.586  14.619  22.108  0.00  0.00    +0.000 NA
ATOM     27  N   UNL     1       1.262  13.495  21.387  0.00  0.00    +0.000 NA
ATOM     28  C   UNL     1       0.251  13.780  20.586  0.00  0.00    +0.000 A 
ENDBRANCH  22  28
ENDBRANCH  17  22
ENDBRANCH  11  17
ENDBRANCH   1  15
BRANCH   8  29
ATOM     29  C   UNL     1       2.054   3.372  20.860  0.00  0.00    +0.000 C 
ATOM     30  F   UNL     1       0.695   3.267  20.893  0.00  0.00    +0.000 F 
ATOM     31  F   UNL     1       2.517   2.103  20.703  0.00  0.00    +0.000 F 
ATOM     32  F   UNL     1       2.420   3.763  22.109  0.00  0.00    +0.000 F 
ENDBRANCH   8  29
BRANCH   6  33
ATOM     33  C   UNL     1       4.693   4.101  16.627  0.00  0.00    +0.000 C 
BRANCH  33  34
ATOM     34  N   UNL     1       6.097   4.514  16.765  0.00  0.00    +0.000 NA
ATOM     35  C   UNL     1       6.563   4.412  18.156  0.00  0.00    +0.000 C 
ATOM     36  C   UNL     1       7.594   5.515  18.334  0.00  0.00    +0.000 C 
ATOM     37  C   UNL     1       7.128   6.559  17.374  0.00  0.00    +0.000 C 
ATOM     38  C   UNL     1       8.022   7.739  17.058  0.00  0.00    +0.000 C 
ATOM     39  C   UNL     1       6.767   7.951  17.854  0.00  0.00    +0.000 C 
ATOM     40  C   UNL     1       6.299   5.901  16.304  0.00  0.00    +0.000 C 
ENDBRANCH  33  34
ENDBRANCH   6  33
TORSDOF 7
ENDMDL
