MODEL 1
REMARK VINA RESULT:     -10.0      0.000      0.000
REMARK  Name = 
REMARK  11 active torsions:
REMARK  status: ('A' for Active; 'I' for Inactive)
REMARK    1  A    between atoms: C_1  and  N_2
REMARK    2  A    between atoms: C_6  and  C_7
REMARK    3  A    between atoms: C_7  and  C_10
REMARK    4  A    between atoms: C_10  and  C_11
REMARK    5  A    between atoms: C_10  and  C_13
REMARK    6  A    between atoms: C_17  and  N_18
REMARK    7  A    between atoms: C_23  and  C_24
REMARK    8  A    between atoms: C_24  and  N_25
REMARK    9  A    between atoms: C_28  and  S_29
REMARK   10  A    between atoms: S_29  and  C_30
REMARK   11  A    between atoms: C_35  and  C_36
REMARK                            x       y       z     vdW  Elec       q    Type
REMARK                         _______ _______ _______ _____ _____    ______ ____
ROOT
ATOM      1  N   UNL     1       2.064   7.847  19.190  0.00  0.00    +0.000 N 
ATOM      2  C   UNL     1       1.501   8.132  20.483  0.00  0.00    +0.000 C 
ATOM      3  C   UNL     1       0.777   9.407  20.292  0.00  0.00    +0.000 A 
ATOM      4  C   UNL     1       1.050   9.939  19.036  0.00  0.00    +0.000 A 
ATOM      5  C   UNL     1       0.604  11.219  18.708  0.00  0.00    +0.000 A 
ATOM      6  C   UNL     1      -0.234  11.895  19.632  0.00  0.00    +0.000 A 
ATOM      7  C   UNL     1      -0.616  11.245  20.823  0.00  0.00    +0.000 A 
ATOM      8  C   UNL     1      -0.036  10.042  21.218  0.00  0.00    +0.000 A 
ATOM      9  C   UNL     1       1.848   8.912  18.295  0.00  0.00    +0.000 C 
ATOM     10  O   UNL     1       2.212   9.034  17.135  0.00  0.00    +0.000 OA
ENDROOT
BRANCH   1  15
ATOM     11  C   UNL     1       4.379   5.310  17.661  0.00  0.00    +0.000 A 
ATOM     12  C   UNL     1       4.112   4.197  18.465  0.00  0.00    +0.000 A 
ATOM     13  C   UNL     1       3.179   4.286  19.513  0.00  0.00    +0.000 A 
ATOM     14  C   UNL     1       2.461   5.469  19.756  0.00  0.00    +0.000 A 
ATOM     15  C   UNL     1       2.733   6.605  19.003  0.00  0.00    +0.000 A 
ATOM     16  C   UNL     1       3.728   6.511  18.000  0.00  0.00    +0.000 A 
BRANCH  11  17
ATOM     17  C   UNL     1       5.120   5.243  16.306  0.00  0.00    +0.000 C 
ATOM     18  C   UNL     1       4.374   4.172  15.488  0.00  0.00    +0.000 C 
ATOM     19  F   UNL     1       4.938   6.425  15.600  0.00  0.00    +0.000 F 
BRANCH  17  20
ATOM     20  C   UNL     1       6.662   5.005  16.350  0.00  0.00    +0.000 C 
ATOM     21  F   UNL     1       7.270   5.700  15.345  0.00  0.00    +0.000 F 
ATOM     22  F   UNL     1       6.922   3.689  16.081  0.00  0.00    +0.000 F 
BRANCH  20  28
ATOM     23  C   UNL     1       7.350   7.943  17.456  0.00  0.00    +0.000 C 
ATOM     24  N   UNL     1       7.604   6.675  18.088  0.00  0.00    +0.000 N 
ATOM     25  C   UNL     1       8.230   6.528  19.290  0.00  0.00    +0.000 A 
ATOM     26  N   UNL     1       8.244   5.263  19.628  0.00  0.00    +0.000 NA
ATOM     27  N   UNL     1       7.634   4.562  18.621  0.00  0.00    +0.000 NA
ATOM     28  C   UNL     1       7.275   5.408  17.667  0.00  0.00    +0.000 A 
ENDBRANCH  20  28
ENDBRANCH  17  20
ENDBRANCH  11  17
ENDBRANCH   1  15
BRANCH   8  29
ATOM     29  C   UNL     1      -0.265   9.511  22.605  0.00  0.00    +0.000 C 
ATOM     30  F   UNL     1       0.881   9.336  23.320  0.00  0.00    +0.000 F 
ATOM     31  F   UNL     1      -1.033  10.360  23.346  0.00  0.00    +0.000 F 
ATOM     32  F   UNL     1      -0.902   8.313  22.613  0.00  0.00    +0.000 F 
ENDBRANCH   8  29
BRANCH   6  33
ATOM     33  C   UNL     1      -0.749  13.312  19.422  0.00  0.00    +0.000 C 
BRANCH  33  34
ATOM     34  N   UNL     1       0.054  14.427  19.950  0.00  0.00    +0.000 NA
ATOM     35  C   UNL     1      -0.662  15.690  20.114  0.00  0.00    +0.000 C 
ATOM     36  C   UNL     1      -0.367  16.482  18.852  0.00  0.00    +0.000 C 
ATOM     37  C   UNL     1       1.019  16.009  18.416  0.00  0.00    +0.000 C 
ATOM     38  C   UNL     1       1.313  14.786  19.284  0.00  0.00    +0.000 C 
BRANCH  37  39
ATOM     39  S   UNL     1       2.228  17.314  18.585  0.00  0.00    +0.000 S 
ATOM     40  C   UNL     1       3.298  16.778  19.901  0.00  0.00    +0.000 C 
ATOM     41  O   UNL     1       3.027  17.318  17.373  0.00  0.00    +0.000 OA
ATOM     42  O   UNL     1       1.554  18.519  19.023  0.00  0.00    +0.000 OA
ENDBRANCH  37  39
ENDBRANCH  33  34
ENDBRANCH   6  33
TORSDOF 8
ENDMDL
MODEL 2
REMARK VINA RESULT:     -10.0      1.523      1.996
REMARK  Name = 
REMARK  11 active torsions:
REMARK  status: ('A' for Active; 'I' for Inactive)
REMARK    1  A    between atoms: C_1  and  N_2
REMARK    2  A    between atoms: C_6  and  C_7
REMARK    3  A    between atoms: C_7  and  C_10
REMARK    4  A    between atoms: C_10  and  C_11
REMARK    5  A    between atoms: C_10  and  C_13
REMARK    6  A    between atoms: C_17  and  N_18
REMARK    7  A    between atoms: C_23  and  C_24
REMARK    8  A    between atoms: C_24  and  N_25
REMARK    9  A    between atoms: C_28  and  S_29
REMARK   10  A    between atoms: S_29  and  C_30
REMARK   11  A    between atoms: C_35  and  C_36
REMARK                            x       y       z     vdW  Elec       q    Type
REMARK                         _______ _______ _______ _____ _____    ______ ____
ROOT
ATOM      1  N   UNL     1       2.069   7.841  19.382  0.00  0.00    +0.000 N 
ATOM      2  C   UNL     1       1.459   8.160  20.646  0.00  0.00    +0.000 C 
ATOM      3  C   UNL     1       0.732   9.422  20.391  0.00  0.00    +0.000 A 
ATOM      4  C   UNL     1       1.043   9.917  19.129  0.00  0.00    +0.000 A 
ATOM      5  C   UNL     1       0.598  11.182  18.746  0.00  0.00    +0.000 A 
ATOM      6  C   UNL     1      -0.278  11.879  19.619  0.00  0.00    +0.000 A 
ATOM      7  C   UNL     1      -0.695  11.262  20.816  0.00  0.00    +0.000 A 
ATOM      8  C   UNL     1      -0.118  10.078  21.268  0.00  0.00    +0.000 A 
ATOM      9  C   UNL     1       1.876   8.875  18.448  0.00  0.00    +0.000 C 
ATOM     10  O   UNL     1       2.279   8.965  17.298  0.00  0.00    +0.000 OA
ENDROOT
BRANCH   1  15
ATOM     11  C   UNL     1       4.424   5.264  17.987  0.00  0.00    +0.000 A 
ATOM     12  C   UNL     1       4.167   4.187  18.840  0.00  0.00    +0.000 A 
ATOM     13  C   UNL     1       3.227   4.313  19.879  0.00  0.00    +0.000 A 
ATOM     14  C   UNL     1       2.493   5.498  20.062  0.00  0.00    +0.000 A 
ATOM     15  C   UNL     1       2.754   6.600  19.258  0.00  0.00    +0.000 A 
ATOM     16  C   UNL     1       3.756   6.471  18.265  0.00  0.00    +0.000 A 
BRANCH  11  17
ATOM     17  C   UNL     1       5.173   5.143  16.639  0.00  0.00    +0.000 C 
ATOM     18  C   UNL     1       4.559   3.914  15.943  0.00  0.00    +0.000 C 
ATOM     19  F   UNL     1       4.858   6.216  15.816  0.00  0.00    +0.000 F 
BRANCH  17  20
ATOM     20  C   UNL     1       6.732   5.091  16.694  0.00  0.00    +0.000 C 
ATOM     21  F   UNL     1       7.236   4.889  15.443  0.00  0.00    +0.000 F 
ATOM     22  F   UNL     1       7.121   3.996  17.416  0.00  0.00    +0.000 F 
BRANCH  20  28
ATOM     23  C   UNL     1       7.968   5.595  19.619  0.00  0.00    +0.000 C 
ATOM     24  N   UNL     1       7.809   6.542  18.547  0.00  0.00    +0.000 N 
ATOM     25  C   UNL     1       8.149   7.860  18.630  0.00  0.00    +0.000 A 
ATOM     26  N   UNL     1       7.956   8.439  17.472  0.00  0.00    +0.000 NA
ATOM     27  N   UNL     1       7.460   7.492  16.616  0.00  0.00    +0.000 NA
ATOM     28  C   UNL     1       7.335   6.347  17.271  0.00  0.00    +0.000 A 
ENDBRANCH  20  28
ENDBRANCH  17  20
ENDBRANCH  11  17
ENDBRANCH   1  15
BRANCH   8  29
ATOM     29  C   UNL     1      -0.391   9.587  22.662  0.00  0.00    +0.000 C 
ATOM     30  F   UNL     1      -1.241  10.385  23.366  0.00  0.00    +0.000 F 
ATOM     31  F   UNL     1      -0.968   8.353  22.656  0.00  0.00    +0.000 F 
ATOM     32  F   UNL     1       0.735   9.479  23.412  0.00  0.00    +0.000 F 
ENDBRANCH   8  29
BRANCH   6  33
ATOM     33  C   UNL     1      -0.796  13.283  19.347  0.00  0.00    +0.000 C 
BRANCH  33  34
ATOM     34  N   UNL     1      -0.042  14.420  19.899  0.00  0.00    +0.000 NA
ATOM     35  C   UNL     1       0.835  15.106  18.952  0.00  0.00    +0.000 C 
ATOM     36  C   UNL     1       2.208  14.492  19.163  0.00  0.00    +0.000 C 
ATOM     37  C   UNL     1       2.224  14.080  20.634  0.00  0.00    +0.000 C 
ATOM     38  C   UNL     1       0.776  14.225  21.103  0.00  0.00    +0.000 C 
BRANCH  37  39
ATOM     39  S   UNL     1       3.381  15.071  21.569  0.00  0.00    +0.000 S 
ATOM     40  C   UNL     1       2.392  16.346  22.317  0.00  0.00    +0.000 C 
ATOM     41  O   UNL     1       3.880  14.241  22.651  0.00  0.00    +0.000 OA
ATOM     42  O   UNL     1       4.301  15.705  20.647  0.00  0.00    +0.000 OA
ENDBRANCH  37  39
ENDBRANCH  33  34
ENDBRANCH   6  33
TORSDOF 8
ENDMDL
MODEL 3
REMARK VINA RESULT:     -10.0      1.563      1.884
REMARK  Name = 
REMARK  11 active torsions:
REMARK  status: ('A' for Active; 'I' for Inactive)
REMARK    1  A    between atoms: C_1  and  N_2
REMARK    2  A    between atoms: C_6  and  C_7
REMARK    3  A    between atoms: C_7  and  C_10
REMARK    4  A    between atoms: C_10  and  C_11
REMARK    5  A    between atoms: C_10  and  C_13
REMARK    6  A    between atoms: C_17  and  N_18
REMARK    7  A    between atoms: C_23  and  C_24
REMARK    8  A    between atoms: C_24  and  N_25
REMARK    9  A    between atoms: C_28  and  S_29
REMARK   10  A    between atoms: S_29  and  C_30
REMARK   11  A    between atoms: C_35  and  C_36
REMARK                            x       y       z     vdW  Elec       q    Type
REMARK                         _______ _______ _______ _____ _____    ______ ____
ROOT
ATOM      1  N   UNL     1       2.082   7.841  19.047  0.00  0.00    +0.000 N 
ATOM      2  C   UNL     1       1.491   8.064  20.340  0.00  0.00    +0.000 C 
ATOM      3  C   UNL     1       0.822   9.376  20.214  0.00  0.00    +0.000 A 
ATOM      4  C   UNL     1       1.151   9.977  19.004  0.00  0.00    +0.000 A 
ATOM      5  C   UNL     1       0.763  11.291  18.748  0.00  0.00    +0.000 A 
ATOM      6  C   UNL     1      -0.077  11.939  19.691  0.00  0.00    +0.000 A 
ATOM      7  C   UNL     1      -0.517  11.229  20.826  0.00  0.00    +0.000 A 
ATOM      8  C   UNL     1       0.006   9.981  21.157  0.00  0.00    +0.000 A 
ATOM      9  C   UNL     1       1.932   8.969  18.218  0.00  0.00    +0.000 C 
ATOM     10  O   UNL     1       2.335   9.152  17.080  0.00  0.00    +0.000 OA
ENDROOT
BRANCH   1  15
ATOM     11  C   UNL     1       4.389   5.333  17.459  0.00  0.00    +0.000 A 
ATOM     12  C   UNL     1       4.020   4.171  18.143  0.00  0.00    +0.000 A 
ATOM     13  C   UNL     1       3.021   4.216  19.132  0.00  0.00    +0.000 A 
ATOM     14  C   UNL     1       2.338   5.408  19.428  0.00  0.00    +0.000 A 
ATOM     15  C   UNL     1       2.709   6.588  18.797  0.00  0.00    +0.000 A 
ATOM     16  C   UNL     1       3.767   6.531  17.858  0.00  0.00    +0.000 A 
BRANCH  11  17
ATOM     17  C   UNL     1       5.219   5.345  16.155  0.00  0.00    +0.000 C 
ATOM     18  C   UNL     1       4.489   4.381  15.201  0.00  0.00    +0.000 C 
ATOM     19  F   UNL     1       5.135   6.588  15.543  0.00  0.00    +0.000 F 
BRANCH  17  20
ATOM     20  C   UNL     1       6.743   5.033  16.280  0.00  0.00    +0.000 C 
ATOM     21  F   UNL     1       7.436   5.698  15.310  0.00  0.00    +0.000 F 
ATOM     22  F   UNL     1       6.954   3.706  16.021  0.00  0.00    +0.000 F 
BRANCH  20  28
ATOM     23  C   UNL     1       7.450   7.941  17.453  0.00  0.00    +0.000 C 
ATOM     24  N   UNL     1       7.644   6.660  18.080  0.00  0.00    +0.000 N 
ATOM     25  C   UNL     1       8.210   6.483  19.308  0.00  0.00    +0.000 A 
ATOM     26  N   UNL     1       8.178   5.215  19.630  0.00  0.00    +0.000 NA
ATOM     27  N   UNL     1       7.599   4.540  18.587  0.00  0.00    +0.000 NA
ATOM     28  C   UNL     1       7.305   5.405  17.628  0.00  0.00    +0.000 A 
ENDBRANCH  20  28
ENDBRANCH  17  20
ENDBRANCH  11  17
ENDBRANCH   1  15
BRANCH   8  29
ATOM     29  C   UNL     1      -0.283   9.371  22.500  0.00  0.00    +0.000 C 
ATOM     30  F   UNL     1      -0.818   8.121  22.428  0.00  0.00    +0.000 F 
ATOM     31  F   UNL     1       0.850   9.242  23.247  0.00  0.00    +0.000 F 
ATOM     32  F   UNL     1      -1.147  10.111  23.240  0.00  0.00    +0.000 F 
ENDBRANCH   8  29
BRANCH   6  33
ATOM     33  C   UNL     1      -0.532  13.385  19.561  0.00  0.00    +0.000 C 
BRANCH  33  34
ATOM     34  N   UNL     1       0.246  14.422  20.259  0.00  0.00    +0.000 NA
ATOM     35  C   UNL     1       1.124  15.223  19.409  0.00  0.00    +0.000 C 
ATOM     36  C   UNL     1       2.489  14.567  19.515  0.00  0.00    +0.000 C 
ATOM     37  C   UNL     1       2.513  13.951  20.913  0.00  0.00    +0.000 C 
ATOM     38  C   UNL     1       1.071  14.048  21.414  0.00  0.00    +0.000 C 
BRANCH  37  39
ATOM     39  S   UNL     1       3.693  14.783  21.966  0.00  0.00    +0.000 S 
ATOM     40  C   UNL     1       4.603  15.854  20.875  0.00  0.00    +0.000 C 
ATOM     41  O   UNL     1       2.938  15.642  22.861  0.00  0.00    +0.000 OA
ATOM     42  O   UNL     1       4.616  13.801  22.496  0.00  0.00    +0.000 OA
ENDBRANCH  37  39
ENDBRANCH  33  34
ENDBRANCH   6  33
TORSDOF 8
ENDMDL
MODEL 4
REMARK VINA RESULT:      -9.9      0.955      1.309
REMARK  Name = 
REMARK  11 active torsions:
REMARK  status: ('A' for Active; 'I' for Inactive)
REMARK    1  A    between atoms: C_1  and  N_2
REMARK    2  A    between atoms: C_6  and  C_7
REMARK    3  A    between atoms: C_7  and  C_10
REMARK    4  A    between atoms: C_10  and  C_11
REMARK    5  A    between atoms: C_10  and  C_13
REMARK    6  A    between atoms: C_17  and  N_18
REMARK    7  A    between atoms: C_23  and  C_24
REMARK    8  A    between atoms: C_24  and  N_25
REMARK    9  A    between atoms: C_28  and  S_29
REMARK   10  A    between atoms: S_29  and  C_30
REMARK   11  A    between atoms: C_35  and  C_36
REMARK                            x       y       z     vdW  Elec       q    Type
REMARK                         _______ _______ _______ _____ _____    ______ ____
ROOT
ATOM      1  N   UNL     1       1.972   7.814  19.477  0.00  0.00    +0.000 N 
ATOM      2  C   UNL     1       1.367   8.168  20.734  0.00  0.00    +0.000 C 
ATOM      3  C   UNL     1       0.671   9.442  20.458  0.00  0.00    +0.000 A 
ATOM      4  C   UNL     1       0.996   9.910  19.189  0.00  0.00    +0.000 A 
ATOM      5  C   UNL     1       0.583  11.179  18.785  0.00  0.00    +0.000 A 
ATOM      6  C   UNL     1      -0.278  11.910  19.644  0.00  0.00    +0.000 A 
ATOM      7  C   UNL     1      -0.712  11.322  20.850  0.00  0.00    +0.000 A 
ATOM      8  C   UNL     1      -0.165  10.132  21.322  0.00  0.00    +0.000 A 
ATOM      9  C   UNL     1       1.805   8.838  18.526  0.00  0.00    +0.000 C 
ATOM     10  O   UNL     1       2.213   8.900  17.376  0.00  0.00    +0.000 OA
ENDROOT
BRANCH   1  15
ATOM     11  C   UNL     1       4.317   5.183  18.169  0.00  0.00    +0.000 A 
ATOM     12  C   UNL     1       3.991   4.107  19.001  0.00  0.00    +0.000 A 
ATOM     13  C   UNL     1       3.008   4.252  19.996  0.00  0.00    +0.000 A 
ATOM     14  C   UNL     1       2.299   5.455  20.155  0.00  0.00    +0.000 A 
ATOM     15  C   UNL     1       2.628   6.555  19.374  0.00  0.00    +0.000 A 
ATOM     16  C   UNL     1       3.671   6.406  18.427  0.00  0.00    +0.000 A 
BRANCH  11  17
ATOM     17  C   UNL     1       5.124   5.051  16.857  0.00  0.00    +0.000 C 
ATOM     18  C   UNL     1       4.510   3.844  16.123  0.00  0.00    +0.000 C 
ATOM     19  F   UNL     1       4.878   6.138  16.030  0.00  0.00    +0.000 F 
BRANCH  17  20
ATOM     20  C   UNL     1       6.677   4.953  16.984  0.00  0.00    +0.000 C 
ATOM     21  F   UNL     1       7.220   4.587  15.787  0.00  0.00    +0.000 F 
ATOM     22  F   UNL     1       6.996   3.940  17.846  0.00  0.00    +0.000 F 
BRANCH  20  28
ATOM     23  C   UNL     1       8.115   5.654  19.772  0.00  0.00    +0.000 C 
ATOM     24  N   UNL     1       7.868   6.529  18.657  0.00  0.00    +0.000 N 
ATOM     25  C   UNL     1       8.197   7.852  18.631  0.00  0.00    +0.000 A 
ATOM     26  N   UNL     1       7.913   8.354  17.456  0.00  0.00    +0.000 NA
ATOM     27  N   UNL     1       7.369   7.349  16.700  0.00  0.00    +0.000 NA
ATOM     28  C   UNL     1       7.305   6.248  17.434  0.00  0.00    +0.000 A 
ENDBRANCH  20  28
ENDBRANCH  17  20
ENDBRANCH  11  17
ENDBRANCH   1  15
BRANCH   8  29
ATOM     29  C   UNL     1      -0.452   9.670  22.723  0.00  0.00    +0.000 C 
ATOM     30  F   UNL     1       0.659   9.572  23.505  0.00  0.00    +0.000 F 
ATOM     31  F   UNL     1      -1.282  10.533  23.375  0.00  0.00    +0.000 F 
ATOM     32  F   UNL     1      -1.053   8.455  22.765  0.00  0.00    +0.000 F 
ENDBRANCH   8  29
BRANCH   6  33
ATOM     33  C   UNL     1      -0.762  13.322  19.350  0.00  0.00    +0.000 C 
BRANCH  33  34
ATOM     34  N   UNL     1      -0.133  14.437  20.077  0.00  0.00    +0.000 NA
ATOM     35  C   UNL     1      -0.400  15.767  19.533  0.00  0.00    +0.000 C 
ATOM     36  C   UNL     1       0.792  16.081  18.645  0.00  0.00    +0.000 C 
ATOM     37  C   UNL     1       1.957  15.326  19.283  0.00  0.00    +0.000 C 
ATOM     38  C   UNL     1       1.314  14.409  20.324  0.00  0.00    +0.000 C 
BRANCH  37  39
ATOM     39  S   UNL     1       3.159  16.456  19.970  0.00  0.00    +0.000 S 
ATOM     40  C   UNL     1       4.547  15.435  20.412  0.00  0.00    +0.000 C 
ATOM     41  O   UNL     1       3.602  17.320  18.890  0.00  0.00    +0.000 OA
ATOM     42  O   UNL     1       2.619  17.023  21.189  0.00  0.00    +0.000 OA
ENDBRANCH  37  39
ENDBRANCH  33  34
ENDBRANCH   6  33
TORSDOF 8
ENDMDL
MODEL 5
REMARK VINA RESULT:      -9.6      1.884      2.754
REMARK  Name = 
REMARK  11 active torsions:
REMARK  status: ('A' for Active; 'I' for Inactive)
REMARK    1  A    between atoms: C_1  and  N_2
REMARK    2  A    between atoms: C_6  and  C_7
REMARK    3  A    between atoms: C_7  and  C_10
REMARK    4  A    between atoms: C_10  and  C_11
REMARK    5  A    between atoms: C_10  and  C_13
REMARK    6  A    between atoms: C_17  and  N_18
REMARK    7  A    between atoms: C_23  and  C_24
REMARK    8  A    between atoms: C_24  and  N_25
REMARK    9  A    between atoms: C_28  and  S_29
REMARK   10  A    between atoms: S_29  and  C_30
REMARK   11  A    between atoms: C_35  and  C_36
REMARK                            x       y       z     vdW  Elec       q    Type
REMARK                         _______ _______ _______ _____ _____    ______ ____
ROOT
ATOM      1  N   UNL     1       2.180   7.585  19.533  0.00  0.00    +0.000 N 
ATOM      2  C   UNL     1       1.531   7.974  20.758  0.00  0.00    +0.000 C 
ATOM      3  C   UNL     1       0.798   9.208  20.406  0.00  0.00    +0.000 A 
ATOM      4  C   UNL     1       1.139   9.629  19.125  0.00  0.00    +0.000 A 
ATOM      5  C   UNL     1       0.692  10.862  18.652  0.00  0.00    +0.000 A 
ATOM      6  C   UNL     1      -0.215  11.600  19.456  0.00  0.00    +0.000 A 
ATOM      7  C   UNL     1      -0.660  11.053  20.677  0.00  0.00    +0.000 A 
ATOM      8  C   UNL     1      -0.083   9.906  21.217  0.00  0.00    +0.000 A 
ATOM      9  C   UNL     1       2.002   8.558  18.532  0.00  0.00    +0.000 C 
ATOM     10  O   UNL     1       2.436   8.582  17.391  0.00  0.00    +0.000 OA
ENDROOT
BRANCH   1  15
ATOM     11  C   UNL     1       5.043   5.191  19.081  0.00  0.00    +0.000 A 
ATOM     12  C   UNL     1       4.410   3.974  19.352  0.00  0.00    +0.000 A 
ATOM     13  C   UNL     1       3.046   3.944  19.694  0.00  0.00    +0.000 A 
ATOM     14  C   UNL     1       2.275   5.118  19.728  0.00  0.00    +0.000 A 
ATOM     15  C   UNL     1       2.882   6.347  19.504  0.00  0.00    +0.000 A 
ATOM     16  C   UNL     1       4.272   6.358  19.233  0.00  0.00    +0.000 A 
BRANCH  11  17
ATOM     17  C   UNL     1       6.420   5.317  18.390  0.00  0.00    +0.000 C 
ATOM     18  C   UNL     1       7.397   5.738  19.505  0.00  0.00    +0.000 C 
ATOM     19  F   UNL     1       6.866   4.069  17.975  0.00  0.00    +0.000 F 
BRANCH  17  20
ATOM     20  C   UNL     1       6.505   6.239  17.134  0.00  0.00    +0.000 C 
ATOM     21  F   UNL     1       7.614   7.031  17.210  0.00  0.00    +0.000 F 
ATOM     22  F   UNL     1       5.447   7.107  17.139  0.00  0.00    +0.000 F 
BRANCH  20  28
ATOM     23  C   UNL     1       4.294   4.271  15.879  0.00  0.00    +0.000 C 
ATOM     24  N   UNL     1       5.599   4.586  15.360  0.00  0.00    +0.000 N 
ATOM     25  C   UNL     1       6.125   4.046  14.223  0.00  0.00    +0.000 A 
ATOM     26  N   UNL     1       7.291   4.585  13.978  0.00  0.00    +0.000 NA
ATOM     27  N   UNL     1       7.550   5.481  14.981  0.00  0.00    +0.000 NA
ATOM     28  C   UNL     1       6.544   5.461  15.843  0.00  0.00    +0.000 A 
ENDBRANCH  20  28
ENDBRANCH  17  20
ENDBRANCH  11  17
ENDBRANCH   1  15
BRANCH   8  29
ATOM     29  C   UNL     1      -0.389   9.498  22.631  0.00  0.00    +0.000 C 
ATOM     30  F   UNL     1      -1.265  10.329  23.262  0.00  0.00    +0.000 F 
ATOM     31  F   UNL     1      -0.957   8.260  22.684  0.00  0.00    +0.000 F 
ATOM     32  F   UNL     1       0.716   9.446  23.416  0.00  0.00    +0.000 F 
ENDBRANCH   8  29
BRANCH   6  33
ATOM     33  C   UNL     1      -0.742  12.978  19.085  0.00  0.00    +0.000 C 
BRANCH  33  34
ATOM     34  N   UNL     1      -0.137  14.151  19.739  0.00  0.00    +0.000 NA
ATOM     35  C   UNL     1       0.561  15.073  18.845  0.00  0.00    +0.000 C 
ATOM     36  C   UNL     1       2.023  14.668  18.916  0.00  0.00    +0.000 C 
ATOM     37  C   UNL     1       2.197  14.097  20.323  0.00  0.00    +0.000 C 
ATOM     38  C   UNL     1       0.777  13.952  20.871  0.00  0.00    +0.000 C 
BRANCH  37  39
ATOM     39  S   UNL     1       3.244  15.147  21.320  0.00  0.00    +0.000 S 
ATOM     40  C   UNL     1       2.211  16.519  21.782  0.00  0.00    +0.000 C 
ATOM     41  O   UNL     1       3.543  14.419  22.540  0.00  0.00    +0.000 OA
ATOM     42  O   UNL     1       4.316  15.657  20.489  0.00  0.00    +0.000 OA
ENDBRANCH  37  39
ENDBRANCH  33  34
ENDBRANCH   6  33
TORSDOF 8
ENDMDL
MODEL 6
REMARK VINA RESULT:      -9.5      0.603      1.101
REMARK  Name = 
REMARK  11 active torsions:
REMARK  status: ('A' for Active; 'I' for Inactive)
REMARK    1  A    between atoms: C_1  and  N_2
REMARK    2  A    between atoms: C_6  and  C_7
REMARK    3  A    between atoms: C_7  and  C_10
REMARK    4  A    between atoms: C_10  and  C_11
REMARK    5  A    between atoms: C_10  and  C_13
REMARK    6  A    between atoms: C_17  and  N_18
REMARK    7  A    between atoms: C_23  and  C_24
REMARK    8  A    between atoms: C_24  and  N_25
REMARK    9  A    between atoms: C_28  and  S_29
REMARK   10  A    between atoms: S_29  and  C_30
REMARK   11  A    between atoms: C_35  and  C_36
REMARK                            x       y       z     vdW  Elec       q    Type
REMARK                         _______ _______ _______ _____ _____    ______ ____
ROOT
ATOM      1  N   UNL     1       2.085   7.798  19.085  0.00  0.00    +0.000 N 
ATOM      2  C   UNL     1       1.520   8.057  20.383  0.00  0.00    +0.000 C 
ATOM      3  C   UNL     1       0.836   9.359  20.230  0.00  0.00    +0.000 A 
ATOM      4  C   UNL     1       1.133   9.923  18.994  0.00  0.00    +0.000 A 
ATOM      5  C   UNL     1       0.727  11.225  18.706  0.00  0.00    +0.000 A 
ATOM      6  C   UNL     1      -0.098  11.895  19.646  0.00  0.00    +0.000 A 
ATOM      7  C   UNL     1      -0.507  11.218  20.813  0.00  0.00    +0.000 A 
ATOM      8  C   UNL     1       0.035   9.986  21.172  0.00  0.00    +0.000 A 
ATOM      9  C   UNL     1       1.906   8.897  18.224  0.00  0.00    +0.000 C 
ATOM     10  O   UNL     1       2.282   9.047  17.072  0.00  0.00    +0.000 OA
ENDROOT
BRANCH   1  15
ATOM     11  C   UNL     1       4.375   5.259  17.523  0.00  0.00    +0.000 A 
ATOM     12  C   UNL     1       4.037   4.118  18.256  0.00  0.00    +0.000 A 
ATOM     13  C   UNL     1       3.063   4.187  19.269  0.00  0.00    +0.000 A 
ATOM     14  C   UNL     1       2.376   5.382  19.542  0.00  0.00    +0.000 A 
ATOM     15  C   UNL     1       2.718   6.543  18.862  0.00  0.00    +0.000 A 
ATOM     16  C   UNL     1       3.752   6.464  17.897  0.00  0.00    +0.000 A 
BRANCH  11  17
ATOM     17  C   UNL     1       5.171   5.234  16.198  0.00  0.00    +0.000 C 
ATOM     18  C   UNL     1       4.443   4.210  15.307  0.00  0.00    +0.000 C 
ATOM     19  F   UNL     1       5.037   6.446  15.534  0.00  0.00    +0.000 F 
BRANCH  17  20
ATOM     20  C   UNL     1       6.706   4.968  16.294  0.00  0.00    +0.000 C 
ATOM     21  F   UNL     1       7.358   5.636  15.300  0.00  0.00    +0.000 F 
ATOM     22  F   UNL     1       6.950   3.644  16.054  0.00  0.00    +0.000 F 
BRANCH  20  28
ATOM     23  C   UNL     1       7.388   7.912  17.390  0.00  0.00    +0.000 C 
ATOM     24  N   UNL     1       7.612   6.649  18.042  0.00  0.00    +0.000 N 
ATOM     25  C   UNL     1       8.202   6.508  19.264  0.00  0.00    +0.000 A 
ATOM     26  N   UNL     1       8.193   5.247  19.614  0.00  0.00    +0.000 NA
ATOM     27  N   UNL     1       7.607   4.541  18.598  0.00  0.00    +0.000 NA
ATOM     28  C   UNL     1       7.284   5.380  17.625  0.00  0.00    +0.000 A 
ENDBRANCH  20  28
ENDBRANCH  17  20
ENDBRANCH  11  17
ENDBRANCH   1  15
BRANCH   8  29
ATOM     29  C   UNL     1      -0.219   9.417  22.539  0.00  0.00    +0.000 C 
ATOM     30  F   UNL     1      -0.779   8.176  22.519  0.00  0.00    +0.000 F 
ATOM     31  F   UNL     1       0.937   9.286  23.250  0.00  0.00    +0.000 F 
ATOM     32  F   UNL     1      -1.043  10.192  23.288  0.00  0.00    +0.000 F 
ENDBRANCH   8  29
BRANCH   6  33
ATOM     33  C   UNL     1      -0.569  13.332  19.480  0.00  0.00    +0.000 C 
BRANCH  33  34
ATOM     34  N   UNL     1       0.375  14.312  18.919  0.00  0.00    +0.000 NA
ATOM     35  C   UNL     1       1.783  14.074  19.234  0.00  0.00    +0.000 C 
ATOM     36  C   UNL     1       2.075  14.947  20.441  0.00  0.00    +0.000 C 
ATOM     37  C   UNL     1       1.128  16.138  20.293  0.00  0.00    +0.000 C 
ATOM     38  C   UNL     1       0.165  15.743  19.174  0.00  0.00    +0.000 C 
BRANCH  37  39
ATOM     39  S   UNL     1       2.032  17.643  19.960  0.00  0.00    +0.000 S 
ATOM     40  C   UNL     1       3.741  17.214  20.205  0.00  0.00    +0.000 C 
ATOM     41  O   UNL     1       1.873  17.935  18.546  0.00  0.00    +0.000 OA
ATOM     42  O   UNL     1       1.675  18.631  20.958  0.00  0.00    +0.000 OA
ENDBRANCH  37  39
ENDBRANCH  33  34
ENDBRANCH   6  33
TORSDOF 8
ENDMDL
MODEL 7
REMARK VINA RESULT:      -9.5      0.879      1.489
REMARK  Name = 
REMARK  11 active torsions:
REMARK  status: ('A' for Active; 'I' for Inactive)
REMARK    1  A    between atoms: C_1  and  N_2
REMARK    2  A    between atoms: C_6  and  C_7
REMARK    3  A    between atoms: C_7  and  C_10
REMARK    4  A    between atoms: C_10  and  C_11
REMARK    5  A    between atoms: C_10  and  C_13
REMARK    6  A    between atoms: C_17  and  N_18
REMARK    7  A    between atoms: C_23  and  C_24
REMARK    8  A    between atoms: C_24  and  N_25
REMARK    9  A    between atoms: C_28  and  S_29
REMARK   10  A    between atoms: S_29  and  C_30
REMARK   11  A    between atoms: C_35  and  C_36
REMARK                            x       y       z     vdW  Elec       q    Type
REMARK                         _______ _______ _______ _____ _____    ______ ____
ROOT
ATOM      1  N   UNL     1       1.913   7.818  19.637  0.00  0.00    +0.000 N 
ATOM      2  C   UNL     1       1.318   8.180  20.897  0.00  0.00    +0.000 C 
ATOM      3  C   UNL     1       0.595   9.438  20.610  0.00  0.00    +0.000 A 
ATOM      4  C   UNL     1       0.895   9.892  19.330  0.00  0.00    +0.000 A 
ATOM      5  C   UNL     1       0.453  11.146  18.913  0.00  0.00    +0.000 A 
ATOM      6  C   UNL     1      -0.409  11.875  19.772  0.00  0.00    +0.000 A 
ATOM      7  C   UNL     1      -0.817  11.298  20.992  0.00  0.00    +0.000 A 
ATOM      8  C   UNL     1      -0.242  10.125  21.475  0.00  0.00    +0.000 A 
ATOM      9  C   UNL     1       1.715   8.824  18.673  0.00  0.00    +0.000 C 
ATOM     10  O   UNL     1       2.106   8.876  17.517  0.00  0.00    +0.000 OA
ENDROOT
BRANCH   1  15
ATOM     11  C   UNL     1       4.249   5.191  18.307  0.00  0.00    +0.000 A 
ATOM     12  C   UNL     1       3.986   4.139  19.188  0.00  0.00    +0.000 A 
ATOM     13  C   UNL     1       3.049   4.297  20.224  0.00  0.00    +0.000 A 
ATOM     14  C   UNL     1       2.323   5.491  20.377  0.00  0.00    +0.000 A 
ATOM     15  C   UNL     1       2.590   6.570  19.544  0.00  0.00    +0.000 A 
ATOM     16  C   UNL     1       3.590   6.409  18.554  0.00  0.00    +0.000 A 
BRANCH  11  17
ATOM     17  C   UNL     1       4.996   5.031  16.962  0.00  0.00    +0.000 C 
ATOM     18  C   UNL     1       4.326   3.830  16.267  0.00  0.00    +0.000 C 
ATOM     19  F   UNL     1       4.737   6.115  16.135  0.00  0.00    +0.000 F 
BRANCH  17  20
ATOM     20  C   UNL     1       6.550   4.903  17.023  0.00  0.00    +0.000 C 
ATOM     21  F   UNL     1       7.032   4.493  15.814  0.00  0.00    +0.000 F 
ATOM     22  F   UNL     1       6.887   3.906  17.897  0.00  0.00    +0.000 F 
BRANCH  20  28
ATOM     23  C   UNL     1       8.169   5.630  19.703  0.00  0.00    +0.000 C 
ATOM     24  N   UNL     1       7.867   6.488  18.588  0.00  0.00    +0.000 N 
ATOM     25  C   UNL     1       8.214   7.805  18.517  0.00  0.00    +0.000 A 
ATOM     26  N   UNL     1       7.866   8.290  17.352  0.00  0.00    +0.000 NA
ATOM     27  N   UNL     1       7.260   7.281  16.651  0.00  0.00    +0.000 NA
ATOM     28  C   UNL     1       7.225   6.195  17.408  0.00  0.00    +0.000 A 
ENDBRANCH  20  28
ENDBRANCH  17  20
ENDBRANCH  11  17
ENDBRANCH   1  15
BRANCH   8  29
ATOM     29  C   UNL     1      -0.503   9.680  22.887  0.00  0.00    +0.000 C 
ATOM     30  F   UNL     1      -1.403  10.459  23.548  0.00  0.00    +0.000 F 
ATOM     31  F   UNL     1      -1.012   8.416  22.928  0.00  0.00    +0.000 F 
ATOM     32  F   UNL     1       0.619   9.665  23.650  0.00  0.00    +0.000 F 
ENDBRANCH   8  29
BRANCH   6  33
ATOM     33  C   UNL     1      -0.923  13.273  19.463  0.00  0.00    +0.000 C 
BRANCH  33  34
ATOM     34  N   UNL     1      -0.133  14.422  19.933  0.00  0.00    +0.000 NA
ATOM     35  C   UNL     1      -0.790  15.722  19.815  0.00  0.00    +0.000 C 
ATOM     36  C   UNL     1      -0.286  16.307  18.506  0.00  0.00    +0.000 C 
ATOM     37  C   UNL     1       1.116  15.721  18.338  0.00  0.00    +0.000 C 
ATOM     38  C   UNL     1       1.221  14.630  19.404  0.00  0.00    +0.000 C 
BRANCH  37  39
ATOM     39  S   UNL     1       2.367  16.989  18.487  0.00  0.00    +0.000 S 
ATOM     40  C   UNL     1       2.550  17.646  16.845  0.00  0.00    +0.000 C 
ATOM     41  O   UNL     1       1.805  18.051  19.302  0.00  0.00    +0.000 OA
ATOM     42  O   UNL     1       3.620  16.364  18.858  0.00  0.00    +0.000 OA
ENDBRANCH  37  39
ENDBRANCH  33  34
ENDBRANCH   6  33
TORSDOF 8
ENDMDL
MODEL 8
REMARK VINA RESULT:      -9.5      2.107      2.769
REMARK  Name = 
REMARK  11 active torsions:
REMARK  status: ('A' for Active; 'I' for Inactive)
REMARK    1  A    between atoms: C_1  and  N_2
REMARK    2  A    between atoms: C_6  and  C_7
REMARK    3  A    between atoms: C_7  and  C_10
REMARK    4  A    between atoms: C_10  and  C_11
REMARK    5  A    between atoms: C_10  and  C_13
REMARK    6  A    between atoms: C_17  and  N_18
REMARK    7  A    between atoms: C_23  and  C_24
REMARK    8  A    between atoms: C_24  and  N_25
REMARK    9  A    between atoms: C_28  and  S_29
REMARK   10  A    between atoms: S_29  and  C_30
REMARK   11  A    between atoms: C_35  and  C_36
REMARK                            x       y       z     vdW  Elec       q    Type
REMARK                         _______ _______ _______ _____ _____    ______ ____
ROOT
ATOM      1  N   UNL     1       1.999   7.996  19.105  0.00  0.00    +0.000 N 
ATOM      2  C   UNL     1       1.455   8.192  20.422  0.00  0.00    +0.000 C 
ATOM      3  C   UNL     1       0.687   9.451  20.316  0.00  0.00    +0.000 A 
ATOM      4  C   UNL     1       0.914  10.058  19.086  0.00  0.00    +0.000 A 
ATOM      5  C   UNL     1       0.421  11.338  18.836  0.00  0.00    +0.000 A 
ATOM      6  C   UNL     1      -0.419  11.935  19.812  0.00  0.00    +0.000 A 
ATOM      7  C   UNL     1      -0.754  11.210  20.973  0.00  0.00    +0.000 A 
ATOM      8  C   UNL     1      -0.126  10.008  21.291  0.00  0.00    +0.000 A 
ATOM      9  C   UNL     1       1.730   9.099  18.273  0.00  0.00    +0.000 C 
ATOM     10  O   UNL     1       2.065   9.296  17.116  0.00  0.00    +0.000 OA
ENDROOT
BRANCH   1  15
ATOM     11  C   UNL     1       4.639   5.718  17.701  0.00  0.00    +0.000 A 
ATOM     12  C   UNL     1       4.192   4.480  18.173  0.00  0.00    +0.000 A 
ATOM     13  C   UNL     1       3.030   4.398  18.960  0.00  0.00    +0.000 A 
ATOM     14  C   UNL     1       2.265   5.539  19.256  0.00  0.00    +0.000 A 
ATOM     15  C   UNL     1       2.703   6.788  18.838  0.00  0.00    +0.000 A 
ATOM     16  C   UNL     1       3.915   6.854  18.108  0.00  0.00    +0.000 A 
BRANCH  11  17
ATOM     17  C   UNL     1       5.690   5.891  16.581  0.00  0.00    +0.000 C 
ATOM     18  C   UNL     1       5.019   6.793  15.529  0.00  0.00    +0.000 C 
ATOM     19  F   UNL     1       6.773   6.625  17.045  0.00  0.00    +0.000 F 
BRANCH  17  20
ATOM     20  C   UNL     1       6.292   4.589  15.963  0.00  0.00    +0.000 C 
ATOM     21  F   UNL     1       5.324   3.633  15.856  0.00  0.00    +0.000 F 
ATOM     22  F   UNL     1       7.216   4.066  16.826  0.00  0.00    +0.000 F 
BRANCH  20  28
ATOM     23  C   UNL     1       5.376   3.457  13.098  0.00  0.00    +0.000 C 
ATOM     24  N   UNL     1       6.518   4.277  13.404  0.00  0.00    +0.000 N 
ATOM     25  C   UNL     1       7.438   4.687  12.484  0.00  0.00    +0.000 A 
ATOM     26  N   UNL     1       8.310   5.478  13.056  0.00  0.00    +0.000 NA
ATOM     27  N   UNL     1       7.972   5.575  14.380  0.00  0.00    +0.000 NA
ATOM     28  C   UNL     1       6.907   4.820  14.606  0.00  0.00    +0.000 A 
ENDBRANCH  20  28
ENDBRANCH  17  20
ENDBRANCH  11  17
ENDBRANCH   1  15
BRANCH   8  29
ATOM     29  C   UNL     1      -0.308   9.395  22.651  0.00  0.00    +0.000 C 
ATOM     30  F   UNL     1      -0.847   8.145  22.620  0.00  0.00    +0.000 F 
ATOM     31  F   UNL     1       0.881   9.266  23.305  0.00  0.00    +0.000 F 
ATOM     32  F   UNL     1      -1.111  10.134  23.459  0.00  0.00    +0.000 F 
ENDBRANCH   8  29
BRANCH   6  33
ATOM     33  C   UNL     1      -0.983  13.343  19.690  0.00  0.00    +0.000 C 
BRANCH  33  34
ATOM     34  N   UNL     1      -0.307  14.427  20.421  0.00  0.00    +0.000 NA
ATOM     35  C   UNL     1       0.265  15.482  19.586  0.00  0.00    +0.000 C 
ATOM     36  C   UNL     1       1.726  15.106  19.412  0.00  0.00    +0.000 C 
ATOM     37  C   UNL     1       2.083  14.349  20.691  0.00  0.00    +0.000 C 
ATOM     38  C   UNL     1       0.746  14.095  21.389  0.00  0.00    +0.000 C 
BRANCH  37  39
ATOM     39  S   UNL     1       3.244  15.274  21.686  0.00  0.00    +0.000 S 
ATOM     40  C   UNL     1       4.563  14.132  22.031  0.00  0.00    +0.000 C 
ATOM     41  O   UNL     1       3.802  16.313  20.838  0.00  0.00    +0.000 OA
ATOM     42  O   UNL     1       2.610  15.615  22.944  0.00  0.00    +0.000 OA
ENDBRANCH  37  39
ENDBRANCH  33  34
ENDBRANCH   6  33
TORSDOF 8
ENDMDL
MODEL 9
REMARK VINA RESULT:      -9.5      2.675      3.328
REMARK  Name = 
REMARK  11 active torsions:
REMARK  status: ('A' for Active; 'I' for Inactive)
REMARK    1  A    between atoms: C_1  and  N_2
REMARK    2  A    between atoms: C_6  and  C_7
REMARK    3  A    between atoms: C_7  and  C_10
REMARK    4  A    between atoms: C_10  and  C_11
REMARK    5  A    between atoms: C_10  and  C_13
REMARK    6  A    between atoms: C_17  and  N_18
REMARK    7  A    between atoms: C_23  and  C_24
REMARK    8  A    between atoms: C_24  and  N_25
REMARK    9  A    between atoms: C_28  and  S_29
REMARK   10  A    between atoms: S_29  and  C_30
REMARK   11  A    between atoms: C_35  and  C_36
REMARK                            x       y       z     vdW  Elec       q    Type
REMARK                         _______ _______ _______ _____ _____    ______ ____
ROOT
ATOM      1  N   UNL     1       2.143   7.877  19.050  0.00  0.00    +0.000 N 
ATOM      2  C   UNL     1       1.651   8.070  20.389  0.00  0.00    +0.000 C 
ATOM      3  C   UNL     1       1.048   9.419  20.364  0.00  0.00    +0.000 A 
ATOM      4  C   UNL     1       1.330  10.058  19.161  0.00  0.00    +0.000 A 
ATOM      5  C   UNL     1       1.000  11.401  18.989  0.00  0.00    +0.000 A 
ATOM      6  C   UNL     1       0.260  12.047  20.014  0.00  0.00    +0.000 A 
ATOM      7  C   UNL     1      -0.145  11.309  21.145  0.00  0.00    +0.000 A 
ATOM      8  C   UNL     1       0.330  10.022  21.386  0.00  0.00    +0.000 A 
ATOM      9  C   UNL     1       2.002   9.049  18.282  0.00  0.00    +0.000 C 
ATOM     10  O   UNL     1       2.339   9.263  17.128  0.00  0.00    +0.000 OA
ENDROOT
BRANCH   1  15
ATOM     11  C   UNL     1       4.328   5.350  17.326  0.00  0.00    +0.000 A 
ATOM     12  C   UNL     1       3.834   4.162  17.873  0.00  0.00    +0.000 A 
ATOM     13  C   UNL     1       2.790   4.195  18.815  0.00  0.00    +0.000 A 
ATOM     14  C   UNL     1       2.188   5.406  19.198  0.00  0.00    +0.000 A 
ATOM     15  C   UNL     1       2.682   6.606  18.705  0.00  0.00    +0.000 A 
ATOM     16  C   UNL     1       3.781   6.552  17.813  0.00  0.00    +0.000 A 
BRANCH  11  17
ATOM     17  C   UNL     1       5.224   5.418  16.068  0.00  0.00    +0.000 C 
ATOM     18  C   UNL     1       4.533   4.518  15.027  0.00  0.00    +0.000 C 
ATOM     19  F   UNL     1       5.188   6.693  15.520  0.00  0.00    +0.000 F 
BRANCH  17  20
ATOM     20  C   UNL     1       6.736   5.076  16.253  0.00  0.00    +0.000 C 
ATOM     21  F   UNL     1       7.480   5.730  15.314  0.00  0.00    +0.000 F 
ATOM     22  F   UNL     1       6.932   3.746  16.000  0.00  0.00    +0.000 F 
BRANCH  20  28
ATOM     23  C   UNL     1       7.554   7.955  17.427  0.00  0.00    +0.000 C 
ATOM     24  N   UNL     1       7.640   6.674  18.078  0.00  0.00    +0.000 N 
ATOM     25  C   UNL     1       8.131   6.483  19.335  0.00  0.00    +0.000 A 
ATOM     26  N   UNL     1       8.007   5.224  19.670  0.00  0.00    +0.000 NA
ATOM     27  N   UNL     1       7.442   4.569  18.608  0.00  0.00    +0.000 NA
ATOM     28  C   UNL     1       7.250   5.436  17.625  0.00  0.00    +0.000 A 
ENDBRANCH  20  28
ENDBRANCH  17  20
ENDBRANCH  11  17
ENDBRANCH   1  15
BRANCH   8  29
ATOM     29  C   UNL     1       0.094   9.366  22.717  0.00  0.00    +0.000 C 
ATOM     30  F   UNL     1      -0.572   8.181  22.633  0.00  0.00    +0.000 F 
ATOM     31  F   UNL     1       1.268   9.081  23.350  0.00  0.00    +0.000 F 
ATOM     32  F   UNL     1      -0.621  10.143  23.569  0.00  0.00    +0.000 F 
ENDBRANCH   8  29
BRANCH   6  33
ATOM     33  C   UNL     1      -0.123  13.519  19.977  0.00  0.00    +0.000 C 
BRANCH  33  34
ATOM     34  N   UNL     1      -1.540  13.863  19.776  0.00  0.00    +0.000 NA
ATOM     35  C   UNL     1      -2.009  15.035  20.512  0.00  0.00    +0.000 C 
ATOM     36  C   UNL     1      -2.643  14.483  21.777  0.00  0.00    +0.000 C 
ATOM     37  C   UNL     1      -3.171  13.107  21.375  0.00  0.00    +0.000 C 
ATOM     38  C   UNL     1      -2.568  12.838  19.996  0.00  0.00    +0.000 C 
BRANCH  37  39
ATOM     39  S   UNL     1      -4.958  13.070  21.393  0.00  0.00    +0.000 S 
ATOM     40  C   UNL     1      -5.413  12.224  19.896  0.00  0.00    +0.000 C 
ATOM     41  O   UNL     1      -5.357  12.214  22.495  0.00  0.00    +0.000 OA
ATOM     42  O   UNL     1      -5.451  14.429  21.303  0.00  0.00    +0.000 OA
ENDBRANCH  37  39
ENDBRANCH  33  34
ENDBRANCH   6  33
TORSDOF 8
ENDMDL
