MODEL 1
REMARK VINA RESULT:      -8.6      0.000      0.000
REMARK  Name = 
REMARK  10 active torsions:
REMARK  status: ('A' for Active; 'I' for Inactive)
REMARK    1  A    between atoms: C_1  and  C_2
REMARK    2  A    between atoms: C_2  and  S_3
REMARK    3  A    between atoms: C_2  and  C_10
REMARK    4  A    between atoms: S_3  and  C_4
REMARK    5  A    between atoms: N_8  and  C_9
REMARK    6  A    between atoms: C_14  and  N_15
REMARK    7  A    between atoms: C_16  and  C_18
REMARK    8  A    between atoms: C_20  and  C_21
REMARK    9  A    between atoms: C_25  and  O_26
REMARK   10  A    between atoms: C_27  and  O_28
REMARK                            x       y       z     vdW  Elec       q    Type
REMARK                         _______ _______ _______ _____ _____    ______ ____
ROOT
ATOM      1  N   UNL     1       2.069   7.356  20.550  0.00  0.00    +0.000 N 
ATOM      2  C   UNL     1       1.678   6.027  20.483  0.00  0.00    +0.000 C 
ATOM      3  O   UNL     1       0.546   5.584  20.668  0.00  0.00    +0.000 OA
ATOM      4  H   UNL     1       3.035   7.541  20.290  0.00  0.00    +0.000 HD
ENDROOT
BRANCH   1   9
ATOM      5  C   UNL     1       0.004  10.455  20.121  0.00  0.00    +0.000 A 
ATOM      6  C   UNL     1      -0.438  10.631  21.443  0.00  0.00    +0.000 A 
ATOM      7  C   UNL     1      -0.035   9.771  22.459  0.00  0.00    +0.000 A 
ATOM      8  C   UNL     1       0.801   8.698  22.176  0.00  0.00    +0.000 A 
ATOM      9  C   UNL     1       1.238   8.454  20.872  0.00  0.00    +0.000 A 
ATOM     10  C   UNL     1       0.847   9.346  19.854  0.00  0.00    +0.000 A 
BRANCH   5  12
ATOM     11  C   UNL     1       0.613  12.649  18.914  0.00  0.00    +0.000 C 
ATOM     12  C   UNL     1      -0.356  11.455  19.011  0.00  0.00    +0.000 C 
BRANCH  12  13
ATOM     13  S   UNL     1      -2.069  12.091  19.236  0.00  0.00    +0.000 S 
BRANCH  13  14
ATOM     14  C   UNL     1      -2.839  11.576  17.776  0.00  0.00    +0.000 A 
ATOM     15  N   UNL     1      -2.261  11.143  16.678  0.00  0.00    +0.000 NA
ATOM     16  N   UNL     1      -3.252  10.914  15.745  0.00  0.00    +0.000 NA
ATOM     17  C   UNL     1      -4.403  11.204  16.309  0.00  0.00    +0.000 A 
ATOM     18  N   UNL     1      -4.191  11.619  17.590  0.00  0.00    +0.000 N 
ATOM     19  C   UNL     1      -5.200  12.033  18.525  0.00  0.00    +0.000 C 
ENDBRANCH  13  14
ENDBRANCH  12  13
ENDBRANCH   5  12
ENDBRANCH   1   9
BRANCH   2  20
ATOM     20  C   UNL     1       2.758   5.051  20.136  0.00  0.00    +0.000 A 
ATOM     21  C   UNL     1       3.969   5.544  19.672  0.00  0.00    +0.000 A 
ATOM     22  C   UNL     1       4.932   4.629  19.265  0.00  0.00    +0.000 A 
ATOM     23  C   UNL     1       4.702   3.265  19.414  0.00  0.00    +0.000 A 
ATOM     24  C   UNL     1       3.467   2.870  19.901  0.00  0.00    +0.000 A 
ATOM     25  N   UNL     1       2.477   3.727  20.254  0.00  0.00    +0.000 NA
BRANCH  22  26
ATOM     26  C   UNL     1       6.187   5.083  18.611  0.00  0.00    +0.000 C 
ATOM     27  O   UNL     1       7.177   5.253  19.305  0.00  0.00    +0.000 OA
ATOM     28  N   UNL     1       6.177   5.227  17.234  0.00  0.00    +0.000 N 
ATOM     29  C   UNL     1       7.364   5.621  16.493  0.00  0.00    +0.000 C 
ATOM     30  C   UNL     1       7.320   4.785  15.206  0.00  0.00    +0.000 C 
ATOM     31  C   UNL     1       5.877   4.245  15.106  0.00  0.00    +0.000 C 
ATOM     32  C   UNL     1       5.136   4.798  16.319  0.00  0.00    +0.000 C 
BRANCH  30  33
ATOM     33  O   UNL     1       7.669   5.555  14.059  0.00  0.00    +0.000 OA
ATOM     34  H   UNL     1       7.311   5.120  13.268  0.00  0.00    +0.000 HD
ENDBRANCH  30  33
BRANCH  31  35
ATOM     35  O   UNL     1       5.868   2.813  15.161  0.00  0.00    +0.000 OA
ATOM     36  H   UNL     1       5.574   2.481  14.294  0.00  0.00    +0.000 HD
ENDBRANCH  31  35
ENDBRANCH  22  26
ENDBRANCH   2  20
TORSDOF 8
ENDMDL
MODEL 2
REMARK VINA RESULT:      -8.3      5.852      8.397
REMARK  Name = 
REMARK  10 active torsions:
REMARK  status: ('A' for Active; 'I' for Inactive)
REMARK    1  A    between atoms: C_1  and  C_2
REMARK    2  A    between atoms: C_2  and  S_3
REMARK    3  A    between atoms: C_2  and  C_10
REMARK    4  A    between atoms: S_3  and  C_4
REMARK    5  A    between atoms: N_8  and  C_9
REMARK    6  A    between atoms: C_14  and  N_15
REMARK    7  A    between atoms: C_16  and  C_18
REMARK    8  A    between atoms: C_20  and  C_21
REMARK    9  A    between atoms: C_25  and  O_26
REMARK   10  A    between atoms: C_27  and  O_28
REMARK                            x       y       z     vdW  Elec       q    Type
REMARK                         _______ _______ _______ _____ _____    ______ ____
ROOT
ATOM      1  N   UNL     1       7.816   9.032  17.820  0.00  0.00    +0.000 N 
ATOM      2  C   UNL     1       7.869   7.679  18.121  0.00  0.00    +0.000 C 
ATOM      3  O   UNL     1       8.631   7.133  18.917  0.00  0.00    +0.000 OA
ATOM      4  H   UNL     1       7.066   9.311  17.192  0.00  0.00    +0.000 HD
ENDROOT
BRANCH   1   9
ATOM      5  C   UNL     1       9.697  12.261  18.112  0.00  0.00    +0.000 A 
ATOM      6  C   UNL     1      10.275  12.086  19.381  0.00  0.00    +0.000 A 
ATOM      7  C   UNL     1      10.079  10.916  20.107  0.00  0.00    +0.000 A 
ATOM      8  C   UNL     1       9.281   9.901  19.595  0.00  0.00    +0.000 A 
ATOM      9  C   UNL     1       8.653  10.039  18.356  0.00  0.00    +0.000 A 
ATOM     10  C   UNL     1       8.878  11.215  17.615  0.00  0.00    +0.000 A 
BRANCH   5  12
ATOM     11  C   UNL     1      11.414  13.544  16.682  0.00  0.00    +0.000 C 
ATOM     12  C   UNL     1       9.987  13.507  17.260  0.00  0.00    +0.000 C 
BRANCH  12  13
ATOM     13  S   UNL     1       9.693  15.044  18.231  0.00  0.00    +0.000 S 
BRANCH  13  14
ATOM     14  C   UNL     1       7.968  15.142  18.236  0.00  0.00    +0.000 A 
ATOM     15  N   UNL     1       7.123  14.397  17.558  0.00  0.00    +0.000 NA
ATOM     16  N   UNL     1       5.852  14.873  17.807  0.00  0.00    +0.000 NA
ATOM     17  C   UNL     1       5.962  15.886  18.638  0.00  0.00    +0.000 A 
ATOM     18  N   UNL     1       7.276  16.086  18.939  0.00  0.00    +0.000 N 
ATOM     19  C   UNL     1       7.801  17.106  19.805  0.00  0.00    +0.000 C 
ENDBRANCH  13  14
ENDBRANCH  12  13
ENDBRANCH   5  12
ENDBRANCH   1   9
BRANCH   2  20
ATOM     20  C   UNL     1       6.880   6.817  17.401  0.00  0.00    +0.000 A 
ATOM     21  C   UNL     1       5.608   6.682  17.938  0.00  0.00    +0.000 A 
ATOM     22  C   UNL     1       4.728   5.807  17.314  0.00  0.00    +0.000 A 
ATOM     23  C   UNL     1       5.100   5.168  16.136  0.00  0.00    +0.000 A 
ATOM     24  C   UNL     1       6.387   5.378  15.669  0.00  0.00    +0.000 A 
ATOM     25  N   UNL     1       7.299   6.176  16.279  0.00  0.00    +0.000 NA
BRANCH  22  26
ATOM     26  C   UNL     1       3.409   5.492  17.921  0.00  0.00    +0.000 C 
ATOM     27  O   UNL     1       2.419   6.066  17.496  0.00  0.00    +0.000 OA
ATOM     28  N   UNL     1       3.369   4.512  18.899  0.00  0.00    +0.000 N 
ATOM     29  C   UNL     1       2.124   4.096  19.523  0.00  0.00    +0.000 C 
ATOM     30  C   UNL     1       2.258   2.576  19.695  0.00  0.00    +0.000 C 
ATOM     31  C   UNL     1       3.760   2.265  19.519  0.00  0.00    +0.000 C 
ATOM     32  C   UNL     1       4.441   3.608  19.271  0.00  0.00    +0.000 C 
BRANCH  30  33
ATOM     33  O   UNL     1       1.781   2.141  20.965  0.00  0.00    +0.000 OA
ATOM     34  H   UNL     1       1.122   1.440  20.830  0.00  0.00    +0.000 HD
ENDBRANCH  30  33
BRANCH  31  35
ATOM     35  O   UNL     1       3.971   1.414  18.386  0.00  0.00    +0.000 OA
ATOM     36  H   UNL     1       3.552   1.832  17.613  0.00  0.00    +0.000 HD
ENDBRANCH  31  35
ENDBRANCH  22  26
ENDBRANCH   2  20
TORSDOF 8
ENDMDL
MODEL 3
REMARK VINA RESULT:      -8.2      1.531      2.035
REMARK  Name = 
REMARK  10 active torsions:
REMARK  status: ('A' for Active; 'I' for Inactive)
REMARK    1  A    between atoms: C_1  and  C_2
REMARK    2  A    between atoms: C_2  and  S_3
REMARK    3  A    between atoms: C_2  and  C_10
REMARK    4  A    between atoms: S_3  and  C_4
REMARK    5  A    between atoms: N_8  and  C_9
REMARK    6  A    between atoms: C_14  and  N_15
REMARK    7  A    between atoms: C_16  and  C_18
REMARK    8  A    between atoms: C_20  and  C_21
REMARK    9  A    between atoms: C_25  and  O_26
REMARK   10  A    between atoms: C_27  and  O_28
REMARK                            x       y       z     vdW  Elec       q    Type
REMARK                         _______ _______ _______ _____ _____    ______ ____
ROOT
ATOM      1  N   UNL     1       0.695   7.779  21.235  0.00  0.00    +0.000 N 
ATOM      2  C   UNL     1       1.759   7.602  20.363  0.00  0.00    +0.000 C 
ATOM      3  O   UNL     1       2.360   8.482  19.749  0.00  0.00    +0.000 OA
ATOM      4  H   UNL     1       0.376   6.938  21.710  0.00  0.00    +0.000 HD
ENDROOT
BRANCH   1   9
ATOM      5  C   UNL     1      -0.918  11.134  20.798  0.00  0.00    +0.000 A 
ATOM      6  C   UNL     1      -1.173  11.452  22.143  0.00  0.00    +0.000 A 
ATOM      7  C   UNL     1      -0.788  10.598  23.171  0.00  0.00    +0.000 A 
ATOM      8  C   UNL     1      -0.161   9.393  22.882  0.00  0.00    +0.000 A 
ATOM      9  C   UNL     1       0.080   9.010  21.561  0.00  0.00    +0.000 A 
ATOM     10  C   UNL     1      -0.287   9.893  20.527  0.00  0.00    +0.000 A 
BRANCH   5  12
ATOM     11  C   UNL     1      -0.817  13.564  19.949  0.00  0.00    +0.000 C 
ATOM     12  C   UNL     1      -1.250  12.114  19.662  0.00  0.00    +0.000 C 
BRANCH  12  13
ATOM     13  S   UNL     1      -3.052  12.090  19.285  0.00  0.00    +0.000 S 
BRANCH  13  14
ATOM     14  C   UNL     1      -3.079  11.386  17.706  0.00  0.00    +0.000 A 
ATOM     15  N   UNL     1      -2.099  10.763  17.092  0.00  0.00    +0.000 NA
ATOM     16  N   UNL     1      -2.539  10.433  15.827  0.00  0.00    +0.000 NA
ATOM     17  C   UNL     1      -3.778  10.856  15.714  0.00  0.00    +0.000 A 
ATOM     18  N   UNL     1      -4.162  11.457  16.876  0.00  0.00    +0.000 N 
ATOM     19  C   UNL     1      -5.441  12.055  17.140  0.00  0.00    +0.000 C 
ENDBRANCH  13  14
ENDBRANCH  12  13
ENDBRANCH   5  12
ENDBRANCH   1   9
BRANCH   2  20
ATOM     20  C   UNL     1       2.215   6.189  20.175  0.00  0.00    +0.000 A 
ATOM     21  C   UNL     1       2.860   5.854  18.994  0.00  0.00    +0.000 A 
ATOM     22  C   UNL     1       3.196   4.521  18.791  0.00  0.00    +0.000 A 
ATOM     23  C   UNL     1       2.965   3.584  19.794  0.00  0.00    +0.000 A 
ATOM     24  C   UNL     1       2.328   4.019  20.945  0.00  0.00    +0.000 A 
ATOM     25  N   UNL     1       1.929   5.297  21.160  0.00  0.00    +0.000 NA
BRANCH  22  26
ATOM     26  C   UNL     1       3.744   4.063  17.488  0.00  0.00    +0.000 C 
ATOM     27  O   UNL     1       2.990   3.516  16.698  0.00  0.00    +0.000 OA
ATOM     28  N   UNL     1       5.073   4.341  17.217  0.00  0.00    +0.000 N 
ATOM     29  C   UNL     1       5.694   3.979  15.954  0.00  0.00    +0.000 C 
ATOM     30  C   UNL     1       6.623   5.155  15.620  0.00  0.00    +0.000 C 
ATOM     31  C   UNL     1       6.778   5.953  16.933  0.00  0.00    +0.000 C 
ATOM     32  C   UNL     1       5.955   5.206  17.978  0.00  0.00    +0.000 C 
BRANCH  30  33
ATOM     33  O   UNL     1       7.884   4.713  15.126  0.00  0.00    +0.000 OA
ATOM     34  H   UNL     1       7.875   4.761  14.156  0.00  0.00    +0.000 HD
ENDBRANCH  30  33
BRANCH  31  35
ATOM     35  O   UNL     1       6.257   7.280  16.784  0.00  0.00    +0.000 OA
ATOM     36  H   UNL     1       6.412   7.759  17.617  0.00  0.00    +0.000 HD
ENDBRANCH  31  35
ENDBRANCH  22  26
ENDBRANCH   2  20
TORSDOF 8
ENDMDL
MODEL 4
REMARK VINA RESULT:      -8.2      3.780      9.908
REMARK  Name = 
REMARK  10 active torsions:
REMARK  status: ('A' for Active; 'I' for Inactive)
REMARK    1  A    between atoms: C_1  and  C_2
REMARK    2  A    between atoms: C_2  and  S_3
REMARK    3  A    between atoms: C_2  and  C_10
REMARK    4  A    between atoms: S_3  and  C_4
REMARK    5  A    between atoms: N_8  and  C_9
REMARK    6  A    between atoms: C_14  and  N_15
REMARK    7  A    between atoms: C_16  and  C_18
REMARK    8  A    between atoms: C_20  and  C_21
REMARK    9  A    between atoms: C_25  and  O_26
REMARK   10  A    between atoms: C_27  and  O_28
REMARK                            x       y       z     vdW  Elec       q    Type
REMARK                         _______ _______ _______ _____ _____    ______ ____
ROOT
ATOM      1  N   UNL     1       1.704   8.487  19.489  0.00  0.00    +0.000 N 
ATOM      2  C   UNL     1       1.820   9.298  18.370  0.00  0.00    +0.000 C 
ATOM      3  O   UNL     1       2.258   8.971  17.268  0.00  0.00    +0.000 OA
ATOM      4  H   UNL     1       1.246   8.913  20.291  0.00  0.00    +0.000 HD
ENDROOT
BRANCH   1   9
ATOM      5  C   UNL     1       3.261   5.203  18.576  0.00  0.00    +0.000 A 
ATOM      6  C   UNL     1       2.931   4.456  19.719  0.00  0.00    +0.000 A 
ATOM      7  C   UNL     1       2.181   5.011  20.751  0.00  0.00    +0.000 A 
ATOM      8  C   UNL     1       1.762   6.334  20.677  0.00  0.00    +0.000 A 
ATOM      9  C   UNL     1       2.096   7.131  19.581  0.00  0.00    +0.000 A 
ATOM     10  C   UNL     1       2.832   6.553  18.529  0.00  0.00    +0.000 A 
BRANCH   5  12
ATOM     11  C   UNL     1       3.355   3.273  16.870  0.00  0.00    +0.000 C 
ATOM     12  C   UNL     1       4.005   4.570  17.389  0.00  0.00    +0.000 C 
BRANCH  12  13
ATOM     13  S   UNL     1       5.760   4.228  17.825  0.00  0.00    +0.000 S 
BRANCH  13  14
ATOM     14  C   UNL     1       6.489   5.783  17.630  0.00  0.00    +0.000 A 
ATOM     15  N   UNL     1       6.297   6.639  16.651  0.00  0.00    +0.000 NA
ATOM     16  N   UNL     1       7.137   7.713  16.863  0.00  0.00    +0.000 NA
ATOM     17  C   UNL     1       7.806   7.483  17.970  0.00  0.00    +0.000 A 
ATOM     18  N   UNL     1       7.425   6.282  18.490  0.00  0.00    +0.000 N 
ATOM     19  C   UNL     1       7.937   5.676  19.688  0.00  0.00    +0.000 C 
ENDBRANCH  13  14
ENDBRANCH  12  13
ENDBRANCH   5  12
ENDBRANCH   1   9
BRANCH   2  20
ATOM     20  C   UNL     1       1.346  10.707  18.539  0.00  0.00    +0.000 A 
ATOM     21  C   UNL     1       0.039  10.918  18.954  0.00  0.00    +0.000 A 
ATOM     22  C   UNL     1      -0.420  12.229  19.019  0.00  0.00    +0.000 A 
ATOM     23  C   UNL     1       0.449  13.284  18.761  0.00  0.00    +0.000 A 
ATOM     24  C   UNL     1       1.741  12.972  18.368  0.00  0.00    +0.000 A 
ATOM     25  N   UNL     1       2.212  11.707  18.233  0.00  0.00    +0.000 NA
BRANCH  22  26
ATOM     26  C   UNL     1      -1.849  12.522  19.301  0.00  0.00    +0.000 C 
ATOM     27  O   UNL     1      -2.118  13.465  20.029  0.00  0.00    +0.000 OA
ATOM     28  N   UNL     1      -2.802  11.743  18.666  0.00  0.00    +0.000 N 
ATOM     29  C   UNL     1      -4.226  11.977  18.837  0.00  0.00    +0.000 C 
ATOM     30  C   UNL     1      -4.835  11.731  17.449  0.00  0.00    +0.000 C 
ATOM     31  C   UNL     1      -3.757  10.972  16.647  0.00  0.00    +0.000 C 
ATOM     32  C   UNL     1      -2.577  10.789  17.597  0.00  0.00    +0.000 C 
BRANCH  30  33
ATOM     33  O   UNL     1      -6.049  10.989  17.525  0.00  0.00    +0.000 OA
ATOM     34  H   UNL     1      -6.268  10.840  18.460  0.00  0.00    +0.000 HD
ENDBRANCH  30  33
BRANCH  31  35
ATOM     35  O   UNL     1      -3.334  11.740  15.514  0.00  0.00    +0.000 OA
ATOM     36  H   UNL     1      -2.709  12.419  15.826  0.00  0.00    +0.000 HD
ENDBRANCH  31  35
ENDBRANCH  22  26
ENDBRANCH   2  20
TORSDOF 8
ENDMDL
MODEL 5
REMARK VINA RESULT:      -8.1      2.571      3.507
REMARK  Name = 
REMARK  10 active torsions:
REMARK  status: ('A' for Active; 'I' for Inactive)
REMARK    1  A    between atoms: C_1  and  C_2
REMARK    2  A    between atoms: C_2  and  S_3
REMARK    3  A    between atoms: C_2  and  C_10
REMARK    4  A    between atoms: S_3  and  C_4
REMARK    5  A    between atoms: N_8  and  C_9
REMARK    6  A    between atoms: C_14  and  N_15
REMARK    7  A    between atoms: C_16  and  C_18
REMARK    8  A    between atoms: C_20  and  C_21
REMARK    9  A    between atoms: C_25  and  O_26
REMARK   10  A    between atoms: C_27  and  O_28
REMARK                            x       y       z     vdW  Elec       q    Type
REMARK                         _______ _______ _______ _____ _____    ______ ____
ROOT
ATOM      1  N   UNL     1       1.975   7.327  20.704  0.00  0.00    +0.000 N 
ATOM      2  C   UNL     1       1.569   6.011  20.541  0.00  0.00    +0.000 C 
ATOM      3  O   UNL     1       0.425   5.576  20.653  0.00  0.00    +0.000 OA
ATOM      4  H   UNL     1       2.953   7.512  20.494  0.00  0.00    +0.000 HD
ENDROOT
BRANCH   1   9
ATOM      5  C   UNL     1       0.109  10.567  20.437  0.00  0.00    +0.000 A 
ATOM      6  C   UNL     1      -0.513  10.588  21.697  0.00  0.00    +0.000 A 
ATOM      7  C   UNL     1      -0.293   9.577  22.626  0.00  0.00    +0.000 A 
ATOM      8  C   UNL     1       0.534   8.506  22.312  0.00  0.00    +0.000 A 
ATOM      9  C   UNL     1       1.147   8.417  21.061  0.00  0.00    +0.000 A 
ATOM     10  C   UNL     1       0.941   9.459  20.136  0.00  0.00    +0.000 A 
BRANCH   5  12
ATOM     11  C   UNL     1      -0.984  11.407  18.260  0.00  0.00    +0.000 C 
ATOM     12  C   UNL     1      -0.049  11.727  19.442  0.00  0.00    +0.000 C 
BRANCH  12  13
ATOM     13  S   UNL     1       1.589  12.252  18.784  0.00  0.00    +0.000 S 
BRANCH  13  14
ATOM     14  C   UNL     1       2.136  13.343  20.008  0.00  0.00    +0.000 A 
ATOM     15  N   UNL     1       2.078  13.176  21.310  0.00  0.00    +0.000 NA
ATOM     16  N   UNL     1       2.558  14.327  21.901  0.00  0.00    +0.000 NA
ATOM     17  C   UNL     1       2.903  15.154  20.940  0.00  0.00    +0.000 A 
ATOM     18  N   UNL     1       2.660  14.573  19.731  0.00  0.00    +0.000 N 
ATOM     19  C   UNL     1       2.896  15.165  18.443  0.00  0.00    +0.000 C 
ENDBRANCH  13  14
ENDBRANCH  12  13
ENDBRANCH   5  12
ENDBRANCH   1   9
BRANCH   2  20
ATOM     20  C   UNL     1       2.649   5.041  20.177  0.00  0.00    +0.000 A 
ATOM     21  C   UNL     1       3.867   5.542  19.740  0.00  0.00    +0.000 A 
ATOM     22  C   UNL     1       4.830   4.635  19.317  0.00  0.00    +0.000 A 
ATOM     23  C   UNL     1       4.593   3.268  19.424  0.00  0.00    +0.000 A 
ATOM     24  C   UNL     1       3.351   2.865  19.886  0.00  0.00    +0.000 A 
ATOM     25  N   UNL     1       2.361   3.716  20.252  0.00  0.00    +0.000 NA
BRANCH  22  26
ATOM     26  C   UNL     1       6.094   5.102  18.690  0.00  0.00    +0.000 C 
ATOM     27  O   UNL     1       7.067   5.284  19.405  0.00  0.00    +0.000 OA
ATOM     28  N   UNL     1       6.113   5.246  17.313  0.00  0.00    +0.000 N 
ATOM     29  C   UNL     1       7.311   5.652  16.597  0.00  0.00    +0.000 C 
ATOM     30  C   UNL     1       7.304   4.816  15.310  0.00  0.00    +0.000 C 
ATOM     31  C   UNL     1       5.869   4.260  15.179  0.00  0.00    +0.000 C 
ATOM     32  C   UNL     1       5.096   4.806  16.376  0.00  0.00    +0.000 C 
BRANCH  30  33
ATOM     33  O   UNL     1       7.669   5.590  14.171  0.00  0.00    +0.000 OA
ATOM     34  H   UNL     1       8.624   5.764  14.203  0.00  0.00    +0.000 HD
ENDBRANCH  30  33
BRANCH  31  35
ATOM     35  O   UNL     1       5.874   2.828  15.235  0.00  0.00    +0.000 OA
ATOM     36  H   UNL     1       6.737   2.543  15.584  0.00  0.00    +0.000 HD
ENDBRANCH  31  35
ENDBRANCH  22  26
ENDBRANCH   2  20
TORSDOF 8
ENDMDL
MODEL 6
REMARK VINA RESULT:      -8.1      1.067      1.082
REMARK  Name = 
REMARK  10 active torsions:
REMARK  status: ('A' for Active; 'I' for Inactive)
REMARK    1  A    between atoms: C_1  and  C_2
REMARK    2  A    between atoms: C_2  and  S_3
REMARK    3  A    between atoms: C_2  and  C_10
REMARK    4  A    between atoms: S_3  and  C_4
REMARK    5  A    between atoms: N_8  and  C_9
REMARK    6  A    between atoms: C_14  and  N_15
REMARK    7  A    between atoms: C_16  and  C_18
REMARK    8  A    between atoms: C_20  and  C_21
REMARK    9  A    between atoms: C_25  and  O_26
REMARK   10  A    between atoms: C_27  and  O_28
REMARK                            x       y       z     vdW  Elec       q    Type
REMARK                         _______ _______ _______ _____ _____    ______ ____
ROOT
ATOM      1  N   UNL     1       1.375   7.698  20.979  0.00  0.00    +0.000 N 
ATOM      2  C   UNL     1       2.011   7.523  19.758  0.00  0.00    +0.000 C 
ATOM      3  O   UNL     1       2.052   8.328  18.829  0.00  0.00    +0.000 OA
ATOM      4  H   UNL     1       1.516   6.951  21.655  0.00  0.00    +0.000 HD
ENDROOT
BRANCH   1   9
ATOM      5  C   UNL     1      -0.514  10.926  20.746  0.00  0.00    +0.000 A 
ATOM      6  C   UNL     1      -0.886  11.082  22.091  0.00  0.00    +0.000 A 
ATOM      7  C   UNL     1      -0.492  10.164  23.059  0.00  0.00    +0.000 A 
ATOM      8  C   UNL     1       0.264   9.054  22.703  0.00  0.00    +0.000 A 
ATOM      9  C   UNL     1       0.627   8.831  21.374  0.00  0.00    +0.000 A 
ATOM     10  C   UNL     1       0.247   9.779  20.405  0.00  0.00    +0.000 A 
BRANCH   5  12
ATOM     11  C   UNL     1      -0.208  13.356  19.945  0.00  0.00    +0.000 C 
ATOM     12  C   UNL     1      -0.861  11.985  19.686  0.00  0.00    +0.000 C 
BRANCH  12  13
ATOM     13  S   UNL     1      -2.684  12.204  19.555  0.00  0.00    +0.000 S 
BRANCH  13  14
ATOM     14  C   UNL     1      -3.001  11.632  17.955  0.00  0.00    +0.000 A 
ATOM     15  N   UNL     1      -2.122  11.251  17.054  0.00  0.00    +0.000 NA
ATOM     16  N   UNL     1      -2.813  10.945  15.899  0.00  0.00    +0.000 NA
ATOM     17  C   UNL     1      -4.091  11.137  16.136  0.00  0.00    +0.000 A 
ATOM     18  N   UNL     1      -4.256  11.564  17.421  0.00  0.00    +0.000 N 
ATOM     19  C   UNL     1      -5.504  11.891  18.051  0.00  0.00    +0.000 C 
ENDBRANCH  13  14
ENDBRANCH  12  13
ENDBRANCH   5  12
ENDBRANCH   1   9
BRANCH   2  20
ATOM     20  C   UNL     1       2.725   6.220  19.581  0.00  0.00    +0.000 A 
ATOM     21  C   UNL     1       4.059   6.244  19.201  0.00  0.00    +0.000 A 
ATOM     22  C   UNL     1       4.686   5.029  18.949  0.00  0.00    +0.000 A 
ATOM     23  C   UNL     1       4.005   3.836  19.167  0.00  0.00    +0.000 A 
ATOM     24  C   UNL     1       2.679   3.915  19.561  0.00  0.00    +0.000 A 
ATOM     25  N   UNL     1       2.010   5.078  19.760  0.00  0.00    +0.000 NA
BRANCH  22  26
ATOM     26  C   UNL     1       6.061   4.984  18.388  0.00  0.00    +0.000 C 
ATOM     27  O   UNL     1       6.963   4.551  19.088  0.00  0.00    +0.000 OA
ATOM     28  N   UNL     1       6.231   5.381  17.072  0.00  0.00    +0.000 N 
ATOM     29  C   UNL     1       7.525   5.331  16.413  0.00  0.00    +0.000 C 
ATOM     30  C   UNL     1       7.221   4.872  14.980  0.00  0.00    +0.000 C 
ATOM     31  C   UNL     1       5.702   5.072  14.789  0.00  0.00    +0.000 C 
ATOM     32  C   UNL     1       5.187   5.655  16.102  0.00  0.00    +0.000 C 
BRANCH  30  33
ATOM     33  O   UNL     1       7.970   5.607  14.016  0.00  0.00    +0.000 OA
ATOM     34  H   UNL     1       7.385   5.839  13.275  0.00  0.00    +0.000 HD
ENDBRANCH  30  33
BRANCH  31  35
ATOM     35  O   UNL     1       5.053   3.819  14.543  0.00  0.00    +0.000 OA
ATOM     36  H   UNL     1       5.453   3.424  13.748  0.00  0.00    +0.000 HD
ENDBRANCH  31  35
ENDBRANCH  22  26
ENDBRANCH   2  20
TORSDOF 8
ENDMDL
MODEL 7
REMARK VINA RESULT:      -8.0      2.689      3.750
REMARK  Name = 
REMARK  10 active torsions:
REMARK  status: ('A' for Active; 'I' for Inactive)
REMARK    1  A    between atoms: C_1  and  C_2
REMARK    2  A    between atoms: C_2  and  S_3
REMARK    3  A    between atoms: C_2  and  C_10
REMARK    4  A    between atoms: S_3  and  C_4
REMARK    5  A    between atoms: N_8  and  C_9
REMARK    6  A    between atoms: C_14  and  N_15
REMARK    7  A    between atoms: C_16  and  C_18
REMARK    8  A    between atoms: C_20  and  C_21
REMARK    9  A    between atoms: C_25  and  O_26
REMARK   10  A    between atoms: C_27  and  O_28
REMARK                            x       y       z     vdW  Elec       q    Type
REMARK                         _______ _______ _______ _____ _____    ______ ____
ROOT
ATOM      1  N   UNL     1       0.701   7.849  21.261  0.00  0.00    +0.000 N 
ATOM      2  C   UNL     1       1.634   7.636  20.257  0.00  0.00    +0.000 C 
ATOM      3  O   UNL     1       2.095   8.480  19.491  0.00  0.00    +0.000 OA
ATOM      4  H   UNL     1       0.496   7.041  21.845  0.00  0.00    +0.000 HD
ENDROOT
BRANCH   1   9
ATOM      5  C   UNL     1      -0.845  11.232  20.798  0.00  0.00    +0.000 A 
ATOM      6  C   UNL     1      -1.179  11.525  22.131  0.00  0.00    +0.000 A 
ATOM      7  C   UNL     1      -0.868  10.646  23.162  0.00  0.00    +0.000 A 
ATOM      8  C   UNL     1      -0.238   9.439  22.886  0.00  0.00    +0.000 A 
ATOM      9  C   UNL     1       0.081   9.081  21.575  0.00  0.00    +0.000 A 
ATOM     10  C   UNL     1      -0.213   9.989  20.540  0.00  0.00    +0.000 A 
BRANCH   5  12
ATOM     11  C   UNL     1      -2.009  11.699  18.546  0.00  0.00    +0.000 C 
ATOM     12  C   UNL     1      -1.096  12.239  19.664  0.00  0.00    +0.000 C 
BRANCH  12  13
ATOM     13  S   UNL     1       0.494  12.796  18.922  0.00  0.00    +0.000 S 
BRANCH  13  14
ATOM     14  C   UNL     1       1.196  13.704  20.215  0.00  0.00    +0.000 A 
ATOM     15  N   UNL     1       2.054  13.280  21.116  0.00  0.00    +0.000 NA
ATOM     16  N   UNL     1       2.284  14.317  21.996  0.00  0.00    +0.000 NA
ATOM     17  C   UNL     1       1.568  15.344  21.597  0.00  0.00    +0.000 A 
ATOM     18  N   UNL     1       0.872  15.005  20.475  0.00  0.00    +0.000 N 
ATOM     19  C   UNL     1      -0.031  15.854  19.748  0.00  0.00    +0.000 C 
ENDBRANCH  13  14
ENDBRANCH  12  13
ENDBRANCH   5  12
ENDBRANCH   1   9
BRANCH   2  20
ATOM     20  C   UNL     1       2.126   6.229  20.119  0.00  0.00    +0.000 A 
ATOM     21  C   UNL     1       2.769   5.867  18.944  0.00  0.00    +0.000 A 
ATOM     22  C   UNL     1       3.139   4.536  18.788  0.00  0.00    +0.000 A 
ATOM     23  C   UNL     1       2.943   3.633  19.828  0.00  0.00    +0.000 A 
ATOM     24  C   UNL     1       2.306   4.094  20.968  0.00  0.00    +0.000 A 
ATOM     25  N   UNL     1       1.874   5.368  21.139  0.00  0.00    +0.000 NA
BRANCH  22  26
ATOM     26  C   UNL     1       3.687   4.044  17.498  0.00  0.00    +0.000 C 
ATOM     27  O   UNL     1       2.942   3.445  16.738  0.00  0.00    +0.000 OA
ATOM     28  N   UNL     1       5.004   4.351  17.201  0.00  0.00    +0.000 N 
ATOM     29  C   UNL     1       5.623   3.958  15.946  0.00  0.00    +0.000 C 
ATOM     30  C   UNL     1       6.512   5.147  15.555  0.00  0.00    +0.000 C 
ATOM     31  C   UNL     1       6.657   6.000  16.834  0.00  0.00    +0.000 C 
ATOM     32  C   UNL     1       5.868   5.270  17.917  0.00  0.00    +0.000 C 
BRANCH  30  33
ATOM     33  O   UNL     1       7.781   4.723  15.064  0.00  0.00    +0.000 OA
ATOM     34  H   UNL     1       7.657   4.305  14.196  0.00  0.00    +0.000 HD
ENDBRANCH  30  33
BRANCH  31  35
ATOM     35  O   UNL     1       6.095   7.304  16.639  0.00  0.00    +0.000 OA
ATOM     36  H   UNL     1       6.302   7.840  17.425  0.00  0.00    +0.000 HD
ENDBRANCH  31  35
ENDBRANCH  22  26
ENDBRANCH   2  20
TORSDOF 8
ENDMDL
MODEL 8
REMARK VINA RESULT:      -8.0      4.176      9.784
REMARK  Name = 
REMARK  10 active torsions:
REMARK  status: ('A' for Active; 'I' for Inactive)
REMARK    1  A    between atoms: C_1  and  C_2
REMARK    2  A    between atoms: C_2  and  S_3
REMARK    3  A    between atoms: C_2  and  C_10
REMARK    4  A    between atoms: S_3  and  C_4
REMARK    5  A    between atoms: N_8  and  C_9
REMARK    6  A    between atoms: C_14  and  N_15
REMARK    7  A    between atoms: C_16  and  C_18
REMARK    8  A    between atoms: C_20  and  C_21
REMARK    9  A    between atoms: C_25  and  O_26
REMARK   10  A    between atoms: C_27  and  O_28
REMARK                            x       y       z     vdW  Elec       q    Type
REMARK                         _______ _______ _______ _____ _____    ______ ____
ROOT
ATOM      1  N   UNL     1       2.052   6.686  19.171  0.00  0.00    +0.000 N 
ATOM      2  C   UNL     1       1.843   7.981  18.721  0.00  0.00    +0.000 C 
ATOM      3  O   UNL     1       2.023   8.401  17.579  0.00  0.00    +0.000 OA
ATOM      4  H   UNL     1       1.774   6.507  20.133  0.00  0.00    +0.000 HD
ENDROOT
BRANCH   1   9
ATOM      5  C   UNL     1       4.260   4.715  16.871  0.00  0.00    +0.000 A 
ATOM      6  C   UNL     1       3.577   3.487  16.879  0.00  0.00    +0.000 A 
ATOM      7  C   UNL     1       2.396   3.323  17.596  0.00  0.00    +0.000 A 
ATOM      8  C   UNL     1       1.881   4.375  18.343  0.00  0.00    +0.000 A 
ATOM      9  C   UNL     1       2.540   5.605  18.400  0.00  0.00    +0.000 A 
ATOM     10  C   UNL     1       3.720   5.770  17.649  0.00  0.00    +0.000 A 
BRANCH   5  12
ATOM     11  C   UNL     1       5.539   4.071  14.729  0.00  0.00    +0.000 C 
ATOM     12  C   UNL     1       5.510   4.935  16.005  0.00  0.00    +0.000 C 
BRANCH  12  13
ATOM     13  S   UNL     1       7.042   4.620  16.976  0.00  0.00    +0.000 S 
BRANCH  13  14
ATOM     14  C   UNL     1       7.505   6.218  17.444  0.00  0.00    +0.000 A 
ATOM     15  N   UNL     1       7.545   7.292  16.688  0.00  0.00    +0.000 NA
ATOM     16  N   UNL     1       8.043   8.326  17.454  0.00  0.00    +0.000 NA
ATOM     17  C   UNL     1       8.280   7.852  18.656  0.00  0.00    +0.000 A 
ATOM     18  N   UNL     1       7.950   6.530  18.697  0.00  0.00    +0.000 N 
ATOM     19  C   UNL     1       8.076   5.659  19.833  0.00  0.00    +0.000 C 
ENDBRANCH  13  14
ENDBRANCH  12  13
ENDBRANCH   5  12
ENDBRANCH   1   9
BRANCH   2  20
ATOM     20  C   UNL     1       1.334   8.947  19.745  0.00  0.00    +0.000 A 
ATOM     21  C   UNL     1       0.818  10.159  19.310  0.00  0.00    +0.000 A 
ATOM     22  C   UNL     1       0.434  11.086  20.272  0.00  0.00    +0.000 A 
ATOM     23  C   UNL     1       0.489  10.751  21.621  0.00  0.00    +0.000 A 
ATOM     24  C   UNL     1       1.006   9.511  21.956  0.00  0.00    +0.000 A 
ATOM     25  N   UNL     1       1.448   8.600  21.053  0.00  0.00    +0.000 NA
BRANCH  22  26
ATOM     26  C   UNL     1       0.022  12.460  19.884  0.00  0.00    +0.000 C 
ATOM     27  O   UNL     1      -1.167  12.688  19.722  0.00  0.00    +0.000 OA
ATOM     28  N   UNL     1       1.011  13.424  19.790  0.00  0.00    +0.000 N 
ATOM     29  C   UNL     1       0.709  14.808  19.463  0.00  0.00    +0.000 C 
ATOM     30  C   UNL     1       1.656  15.636  20.343  0.00  0.00    +0.000 C 
ATOM     31  C   UNL     1       2.737  14.652  20.838  0.00  0.00    +0.000 C 
ATOM     32  C   UNL     1       2.392  13.301  20.216  0.00  0.00    +0.000 C 
BRANCH  30  33
ATOM     33  O   UNL     1       2.231  16.726  19.627  0.00  0.00    +0.000 OA
ATOM     34  H   UNL     1       2.536  16.406  18.761  0.00  0.00    +0.000 HD
ENDBRANCH  30  33
BRANCH  31  35
ATOM     35  O   UNL     1       2.701  14.536  22.266  0.00  0.00    +0.000 OA
ATOM     36  H   UNL     1       3.619  14.511  22.589  0.00  0.00    +0.000 HD
ENDBRANCH  31  35
ENDBRANCH  22  26
ENDBRANCH   2  20
TORSDOF 8
ENDMDL
MODEL 9
REMARK VINA RESULT:      -7.9      5.654      8.503
REMARK  Name = 
REMARK  10 active torsions:
REMARK  status: ('A' for Active; 'I' for Inactive)
REMARK    1  A    between atoms: C_1  and  C_2
REMARK    2  A    between atoms: C_2  and  S_3
REMARK    3  A    between atoms: C_2  and  C_10
REMARK    4  A    between atoms: S_3  and  C_4
REMARK    5  A    between atoms: N_8  and  C_9
REMARK    6  A    between atoms: C_14  and  N_15
REMARK    7  A    between atoms: C_16  and  C_18
REMARK    8  A    between atoms: C_20  and  C_21
REMARK    9  A    between atoms: C_25  and  O_26
REMARK   10  A    between atoms: C_27  and  O_28
REMARK                            x       y       z     vdW  Elec       q    Type
REMARK                         _______ _______ _______ _____ _____    ______ ____
ROOT
ATOM      1  N   UNL     1       8.002   8.942  18.024  0.00  0.00    +0.000 N 
ATOM      2  C   UNL     1       8.105   7.623  18.441  0.00  0.00    +0.000 C 
ATOM      3  O   UNL     1       8.838   7.189  19.327  0.00  0.00    +0.000 OA
ATOM      4  H   UNL     1       7.282   9.125  17.328  0.00  0.00    +0.000 HD
ENDROOT
BRANCH   1   9
ATOM      5  C   UNL     1       9.741  12.261  18.140  0.00  0.00    +0.000 A 
ATOM      6  C   UNL     1      10.186  12.250  19.472  0.00  0.00    +0.000 A 
ATOM      7  C   UNL     1       9.952  11.158  20.302  0.00  0.00    +0.000 A 
ATOM      8  C   UNL     1       9.245  10.060  19.829  0.00  0.00    +0.000 A 
ATOM      9  C   UNL     1       8.746  10.036  18.525  0.00  0.00    +0.000 A 
ATOM     10  C   UNL     1       9.011  11.133  17.684  0.00  0.00    +0.000 A 
BRANCH   5  12
ATOM     11  C   UNL     1      11.523  13.377  16.650  0.00  0.00    +0.000 C 
ATOM     12  C   UNL     1      10.079  13.418  17.187  0.00  0.00    +0.000 C 
BRANCH  12  13
ATOM     13  S   UNL     1       9.790  15.043  18.004  0.00  0.00    +0.000 S 
BRANCH  13  14
ATOM     14  C   UNL     1       8.097  14.976  18.348  0.00  0.00    +0.000 A 
ATOM     15  N   UNL     1       7.113  14.842  17.489  0.00  0.00    +0.000 NA
ATOM     16  N   UNL     1       5.929  14.914  18.193  0.00  0.00    +0.000 NA
ATOM     17  C   UNL     1       6.230  15.079  19.462  0.00  0.00    +0.000 A 
ATOM     18  N   UNL     1       7.585  15.118  19.606  0.00  0.00    +0.000 N 
ATOM     19  C   UNL     1       8.302  15.295  20.838  0.00  0.00    +0.000 C 
ENDBRANCH  13  14
ENDBRANCH  12  13
ENDBRANCH   5  12
ENDBRANCH   1   9
BRANCH   2  20
ATOM     20  C   UNL     1       7.214   6.650  17.735  0.00  0.00    +0.000 A 
ATOM     21  C   UNL     1       6.371   5.854  18.497  0.00  0.00    +0.000 A 
ATOM     22  C   UNL     1       5.617   4.890  17.840  0.00  0.00    +0.000 A 
ATOM     23  C   UNL     1       5.652   4.805  16.452  0.00  0.00    +0.000 A 
ATOM     24  C   UNL     1       6.514   5.654  15.777  0.00  0.00    +0.000 A 
ATOM     25  N   UNL     1       7.313   6.568  16.383  0.00  0.00    +0.000 NA
BRANCH  22  26
ATOM     26  C   UNL     1       4.815   3.899  18.604  0.00  0.00    +0.000 C 
ATOM     27  O   UNL     1       5.381   2.920  19.064  0.00  0.00    +0.000 OA
ATOM     28  N   UNL     1       3.473   4.177  18.805  0.00  0.00    +0.000 N 
ATOM     29  C   UNL     1       2.611   3.298  19.577  0.00  0.00    +0.000 C 
ATOM     30  C   UNL     1       1.694   4.241  20.369  0.00  0.00    +0.000 C 
ATOM     31  C   UNL     1       1.824   5.621  19.689  0.00  0.00    +0.000 C 
ATOM     32  C   UNL     1       2.790   5.426  18.524  0.00  0.00    +0.000 C 
BRANCH  30  33
ATOM     33  O   UNL     1       0.343   3.788  20.375  0.00  0.00    +0.000 OA
ATOM     34  H   UNL     1      -0.217   4.475  20.774  0.00  0.00    +0.000 HD
ENDBRANCH  30  33
BRANCH  31  35
ATOM     35  O   UNL     1       2.370   6.584  20.598  0.00  0.00    +0.000 OA
ATOM     36  H   UNL     1       3.304   6.356  20.753  0.00  0.00    +0.000 HD
ENDBRANCH  31  35
ENDBRANCH  22  26
ENDBRANCH   2  20
TORSDOF 8
ENDMDL
