MODEL 1
REMARK VINA RESULT:     -10.7      0.000      0.000
REMARK  Name = 
REMARK  7 active torsions:
REMARK  status: ('A' for Active; 'I' for Inactive)
REMARK    1  A    between atoms: C_1  and  N_2
REMARK    2  A    between atoms: C_6  and  C_7
REMARK    3  A    between atoms: C_7  and  C_8
REMARK    4  A    between atoms: C_8  and  C_9
REMARK    5  A    between atoms: C_13  and  N_14
REMARK    6  A    between atoms: C_19  and  N_20
REMARK    7  A    between atoms: C_30  and  C_31
REMARK                            x       y       z     vdW  Elec       q    Type
REMARK                         _______ _______ _______ _____ _____    ______ ____
ROOT
ATOM      1  N   UNL     1       1.355   8.220  20.284  0.00  0.00    +0.000 N 
ATOM      2  C   UNL     1       1.459   6.867  20.793  0.00  0.00    +0.000 C 
ATOM      3  C   UNL     1       2.275   6.160  19.787  0.00  0.00    +0.000 A 
ATOM      4  C   UNL     1       2.720   7.057  18.825  0.00  0.00    +0.000 A 
ATOM      5  C   UNL     1       3.586   6.658  17.822  0.00  0.00    +0.000 A 
ATOM      6  C   UNL     1       4.016   5.315  17.773  0.00  0.00    +0.000 A 
ATOM      7  C   UNL     1       3.471   4.416  18.722  0.00  0.00    +0.000 A 
ATOM      8  C   UNL     1       2.604   4.817  19.746  0.00  0.00    +0.000 A 
ATOM      9  C   UNL     1       2.118   8.386  19.114  0.00  0.00    +0.000 C 
ATOM     10  O   UNL     1       2.287   9.360  18.417  0.00  0.00    +0.000 OA
ENDROOT
BRANCH   6  11
ATOM     11  N   UNL     1       4.981   4.885  16.880  0.00  0.00    +0.000 N 
ATOM     12  C   UNL     1       6.433   5.060  17.144  0.00  0.00    +0.000 C 
ATOM     13  C   UNL     1       7.266   5.280  15.844  0.00  0.00    +0.000 C 
ATOM     14  N   UNL     1       6.865   4.394  14.748  0.00  0.00    +0.000 NA
ATOM     15  C   UNL     1       7.446   4.687  13.449  0.00  0.00    +0.000 C 
ATOM     16  C   UNL     1       6.583   3.808  12.546  0.00  0.00    +0.000 C 
ATOM     17  C   UNL     1       5.216   3.729  13.236  0.00  0.00    +0.000 C 
ATOM     18  C   UNL     1       5.410   4.498  14.531  0.00  0.00    +0.000 C 
ATOM     19  C   UNL     1       4.664   3.975  15.762  0.00  0.00    +0.000 C 
ENDBRANCH   6  11
BRANCH   1  24
ATOM     20  C   UNL     1      -0.915  11.180  20.648  0.00  0.00    +0.000 A 
ATOM     21  C   UNL     1      -1.127  11.149  22.033  0.00  0.00    +0.000 A 
ATOM     22  C   UNL     1      -0.575  10.141  22.840  0.00  0.00    +0.000 A 
ATOM     23  C   UNL     1       0.233   9.138  22.290  0.00  0.00    +0.000 A 
ATOM     24  C   UNL     1       0.490   9.136  20.926  0.00  0.00    +0.000 A 
ATOM     25  C   UNL     1      -0.116  10.140  20.146  0.00  0.00    +0.000 A 
BRANCH  20  26
ATOM     26  C   UNL     1      -1.516  12.296  19.645  0.00  0.00    +0.000 C 
ATOM     27  C   UNL     1      -0.574  12.740  18.495  0.00  0.00    +0.000 C 
ATOM     28  O   UNL     1      -0.567  14.110  18.934  0.00  0.00    +0.000 OA
ATOM     29  C   UNL     1      -1.397  13.793  20.070  0.00  0.00    +0.000 C 
BRANCH  26  30
ATOM     30  C   UNL     1      -2.934  11.912  19.152  0.00  0.00    +0.000 C 
BRANCH  30  36
ATOM     31  C   UNL     1      -5.260  12.128  17.021  0.00  0.00    +0.000 C 
ATOM     32  N   UNL     1      -4.007  11.438  16.872  0.00  0.00    +0.000 N 
ATOM     33  C   UNL     1      -3.629  10.737  15.766  0.00  0.00    +0.000 A 
ATOM     34  N   UNL     1      -2.456  10.192  15.972  0.00  0.00    +0.000 NA
ATOM     35  N   UNL     1      -2.059  10.531  17.240  0.00  0.00    +0.000 NA
ATOM     36  C   UNL     1      -2.978  11.313  17.777  0.00  0.00    +0.000 A 
ENDBRANCH  30  36
ENDBRANCH  26  30
ENDBRANCH  20  26
ENDBRANCH   1  24
BRANCH   8  37
ATOM     37  C   UNL     1       2.077   3.814  20.738  0.00  0.00    +0.000 C 
ATOM     38  F   UNL     1       2.424   4.076  22.026  0.00  0.00    +0.000 F 
ATOM     39  F   UNL     1       0.720   3.737  20.721  0.00  0.00    +0.000 F 
ATOM     40  F   UNL     1       2.529   2.556  20.487  0.00  0.00    +0.000 F 
ENDBRANCH   8  37
TORSDOF 6
ENDMDL
MODEL 2
REMARK VINA RESULT:     -10.4      1.760      2.813
REMARK  Name = 
REMARK  7 active torsions:
REMARK  status: ('A' for Active; 'I' for Inactive)
REMARK    1  A    between atoms: C_1  and  N_2
REMARK    2  A    between atoms: C_6  and  C_7
REMARK    3  A    between atoms: C_7  and  C_8
REMARK    4  A    between atoms: C_8  and  C_9
REMARK    5  A    between atoms: C_13  and  N_14
REMARK    6  A    between atoms: C_19  and  N_20
REMARK    7  A    between atoms: C_30  and  C_31
REMARK                            x       y       z     vdW  Elec       q    Type
REMARK                         _______ _______ _______ _____ _____    ______ ____
ROOT
ATOM      1  N   UNL     1       1.404   8.227  20.224  0.00  0.00    +0.000 N 
ATOM      2  C   UNL     1       1.503   6.879  20.747  0.00  0.00    +0.000 C 
ATOM      3  C   UNL     1       2.302   6.155  19.740  0.00  0.00    +0.000 A 
ATOM      4  C   UNL     1       2.743   7.038  18.763  0.00  0.00    +0.000 A 
ATOM      5  C   UNL     1       3.595   6.621  17.755  0.00  0.00    +0.000 A 
ATOM      6  C   UNL     1       4.014   5.274  17.716  0.00  0.00    +0.000 A 
ATOM      7  C   UNL     1       3.473   4.390  18.681  0.00  0.00    +0.000 A 
ATOM      8  C   UNL     1       2.621   4.809  19.710  0.00  0.00    +0.000 A 
ATOM      9  C   UNL     1       2.155   8.374  19.045  0.00  0.00    +0.000 C 
ATOM     10  O   UNL     1       2.323   9.339  18.334  0.00  0.00    +0.000 OA
ENDROOT
BRANCH   6  11
ATOM     11  N   UNL     1       4.966   4.827  16.817  0.00  0.00    +0.000 N 
ATOM     12  C   UNL     1       6.422   4.985  17.067  0.00  0.00    +0.000 C 
ATOM     13  C   UNL     1       7.246   5.187  15.759  0.00  0.00    +0.000 C 
ATOM     14  N   UNL     1       6.824   4.300  14.672  0.00  0.00    +0.000 NA
ATOM     15  C   UNL     1       7.398   4.578  13.366  0.00  0.00    +0.000 C 
ATOM     16  C   UNL     1       6.515   3.705  12.475  0.00  0.00    +0.000 C 
ATOM     17  C   UNL     1       5.153   3.648  13.178  0.00  0.00    +0.000 C 
ATOM     18  C   UNL     1       5.369   4.422  14.467  0.00  0.00    +0.000 C 
ATOM     19  C   UNL     1       4.627   3.915  15.707  0.00  0.00    +0.000 C 
ENDBRANCH   6  11
BRANCH   1  24
ATOM     20  C   UNL     1      -0.930  11.140  20.559  0.00  0.00    +0.000 A 
ATOM     21  C   UNL     1      -1.053  11.190  21.954  0.00  0.00    +0.000 A 
ATOM     22  C   UNL     1      -0.418  10.249  22.782  0.00  0.00    +0.000 A 
ATOM     23  C   UNL     1       0.384   9.237  22.241  0.00  0.00    +0.000 A 
ATOM     24  C   UNL     1       0.553   9.157  20.866  0.00  0.00    +0.000 A 
ATOM     25  C   UNL     1      -0.133  10.094  20.068  0.00  0.00    +0.000 A 
BRANCH  20  26
ATOM     26  C   UNL     1      -1.630  12.175  19.533  0.00  0.00    +0.000 C 
ATOM     27  C   UNL     1      -3.178  12.248  19.608  0.00  0.00    +0.000 C 
ATOM     28  O   UNL     1      -3.336  11.832  18.240  0.00  0.00    +0.000 OA
ATOM     29  C   UNL     1      -1.911  11.677  18.081  0.00  0.00    +0.000 C 
BRANCH  26  30
ATOM     30  C   UNL     1      -0.955  13.569  19.581  0.00  0.00    +0.000 C 
BRANCH  30  36
ATOM     31  C   UNL     1       1.175  14.524  21.713  0.00  0.00    +0.000 C 
ATOM     32  N   UNL     1       1.437  13.961  20.416  0.00  0.00    +0.000 N 
ATOM     33  C   UNL     1       2.677  13.767  19.886  0.00  0.00    +0.000 A 
ATOM     34  N   UNL     1       2.565  13.284  18.674  0.00  0.00    +0.000 NA
ATOM     35  N   UNL     1       1.228  13.169  18.396  0.00  0.00    +0.000 NA
ATOM     36  C   UNL     1       0.540  13.546  19.459  0.00  0.00    +0.000 A 
ENDBRANCH  30  36
ENDBRANCH  26  30
ENDBRANCH  20  26
ENDBRANCH   1  24
BRANCH   8  37
ATOM     37  C   UNL     1       2.097   3.821  20.719  0.00  0.00    +0.000 C 
ATOM     38  F   UNL     1       0.741   3.752  20.771  0.00  0.00    +0.000 F 
ATOM     39  F   UNL     1       2.530   2.555  20.473  0.00  0.00    +0.000 F 
ATOM     40  F   UNL     1       2.498   4.117  21.985  0.00  0.00    +0.000 F 
ENDBRANCH   8  37
TORSDOF 6
ENDMDL
MODEL 3
REMARK VINA RESULT:     -10.3      1.908      2.946
REMARK  Name = 
REMARK  7 active torsions:
REMARK  status: ('A' for Active; 'I' for Inactive)
REMARK    1  A    between atoms: C_1  and  N_2
REMARK    2  A    between atoms: C_6  and  C_7
REMARK    3  A    between atoms: C_7  and  C_8
REMARK    4  A    between atoms: C_8  and  C_9
REMARK    5  A    between atoms: C_13  and  N_14
REMARK    6  A    between atoms: C_19  and  N_20
REMARK    7  A    between atoms: C_30  and  C_31
REMARK                            x       y       z     vdW  Elec       q    Type
REMARK                         _______ _______ _______ _____ _____    ______ ____
ROOT
ATOM      1  N   UNL     1       1.398   8.140  20.299  0.00  0.00    +0.000 N 
ATOM      2  C   UNL     1       1.496   6.783  20.799  0.00  0.00    +0.000 C 
ATOM      3  C   UNL     1       2.300   6.077  19.782  0.00  0.00    +0.000 A 
ATOM      4  C   UNL     1       2.744   6.977  18.823  0.00  0.00    +0.000 A 
ATOM      5  C   UNL     1       3.600   6.579  17.811  0.00  0.00    +0.000 A 
ATOM      6  C   UNL     1       4.021   5.233  17.750  0.00  0.00    +0.000 A 
ATOM      7  C   UNL     1       3.477   4.332  18.698  0.00  0.00    +0.000 A 
ATOM      8  C   UNL     1       2.621   4.733  19.730  0.00  0.00    +0.000 A 
ATOM      9  C   UNL     1       2.153   8.308  19.125  0.00  0.00    +0.000 C 
ATOM     10  O   UNL     1       2.323   9.286  18.432  0.00  0.00    +0.000 OA
ENDROOT
BRANCH   6  11
ATOM     11  N   UNL     1       4.976   4.803  16.847  0.00  0.00    +0.000 N 
ATOM     12  C   UNL     1       6.432   4.957  17.106  0.00  0.00    +0.000 C 
ATOM     13  C   UNL     1       7.261   5.182  15.805  0.00  0.00    +0.000 C 
ATOM     14  N   UNL     1       6.844   4.316  14.701  0.00  0.00    +0.000 NA
ATOM     15  C   UNL     1       7.423   4.618  13.402  0.00  0.00    +0.000 C 
ATOM     16  C   UNL     1       6.544   3.761  12.492  0.00  0.00    +0.000 C 
ATOM     17  C   UNL     1       5.179   3.690  13.188  0.00  0.00    +0.000 C 
ATOM     18  C   UNL     1       5.389   4.440  14.492  0.00  0.00    +0.000 C 
ATOM     19  C   UNL     1       4.643   3.911  15.719  0.00  0.00    +0.000 C 
ENDBRANCH   6  11
BRANCH   1  24
ATOM     20  C   UNL     1      -0.959  11.030  20.672  0.00  0.00    +0.000 A 
ATOM     21  C   UNL     1      -1.072  11.068  22.068  0.00  0.00    +0.000 A 
ATOM     22  C   UNL     1      -0.423  10.128  22.884  0.00  0.00    +0.000 A 
ATOM     23  C   UNL     1       0.384   9.126  22.330  0.00  0.00    +0.000 A 
ATOM     24  C   UNL     1       0.544   9.057  20.953  0.00  0.00    +0.000 A 
ATOM     25  C   UNL     1      -0.156   9.994  20.167  0.00  0.00    +0.000 A 
BRANCH  20  26
ATOM     26  C   UNL     1      -1.675  12.065  19.658  0.00  0.00    +0.000 C 
ATOM     27  C   UNL     1      -2.908  12.815  20.228  0.00  0.00    +0.000 C 
ATOM     28  O   UNL     1      -3.790  12.275  19.228  0.00  0.00    +0.000 OA
ATOM     29  C   UNL     1      -2.724  11.490  18.655  0.00  0.00    +0.000 C 
BRANCH  26  30
ATOM     30  C   UNL     1      -0.647  13.012  18.990  0.00  0.00    +0.000 C 
BRANCH  30  36
ATOM     31  C   UNL     1       2.447  12.646  18.449  0.00  0.00    +0.000 C 
ATOM     32  N   UNL     1       1.832  13.253  19.598  0.00  0.00    +0.000 N 
ATOM     33  C   UNL     1       2.508  13.761  20.667  0.00  0.00    +0.000 A 
ATOM     34  N   UNL     1       1.654  14.195  21.560  0.00  0.00    +0.000 NA
ATOM     35  N   UNL     1       0.393  13.960  21.075  0.00  0.00    +0.000 NA
ATOM     36  C   UNL     1       0.495  13.421  19.874  0.00  0.00    +0.000 A 
ENDBRANCH  30  36
ENDBRANCH  26  30
ENDBRANCH  20  26
ENDBRANCH   1  24
BRANCH   8  37
ATOM     37  C   UNL     1       2.095   3.727  20.720  0.00  0.00    +0.000 C 
ATOM     38  F   UNL     1       2.528   2.457  20.501  0.00  0.00    +0.000 F 
ATOM     39  F   UNL     1       2.446   4.030  21.999  0.00  0.00    +0.000 F 
ATOM     40  F   UNL     1       0.736   3.656  20.710  0.00  0.00    +0.000 F 
ENDBRANCH   8  37
TORSDOF 6
ENDMDL
MODEL 4
REMARK VINA RESULT:     -10.3      1.922      2.657
REMARK  Name = 
REMARK  7 active torsions:
REMARK  status: ('A' for Active; 'I' for Inactive)
REMARK    1  A    between atoms: C_1  and  N_2
REMARK    2  A    between atoms: C_6  and  C_7
REMARK    3  A    between atoms: C_7  and  C_8
REMARK    4  A    between atoms: C_8  and  C_9
REMARK    5  A    between atoms: C_13  and  N_14
REMARK    6  A    between atoms: C_19  and  N_20
REMARK    7  A    between atoms: C_30  and  C_31
REMARK                            x       y       z     vdW  Elec       q    Type
REMARK                         _______ _______ _______ _____ _____    ______ ____
ROOT
ATOM      1  N   UNL     1       1.372   8.141  20.408  0.00  0.00    +0.000 N 
ATOM      2  C   UNL     1       1.488   6.784  20.903  0.00  0.00    +0.000 C 
ATOM      3  C   UNL     1       2.298   6.091  19.883  0.00  0.00    +0.000 A 
ATOM      4  C   UNL     1       2.728   6.999  18.925  0.00  0.00    +0.000 A 
ATOM      5  C   UNL     1       3.586   6.615  17.910  0.00  0.00    +0.000 A 
ATOM      6  C   UNL     1       4.023   5.274  17.844  0.00  0.00    +0.000 A 
ATOM      7  C   UNL     1       3.493   4.364  18.790  0.00  0.00    +0.000 A 
ATOM      8  C   UNL     1       2.635   4.751  19.826  0.00  0.00    +0.000 A 
ATOM      9  C   UNL     1       2.122   8.322  19.233  0.00  0.00    +0.000 C 
ATOM     10  O   UNL     1       2.278   9.304  18.542  0.00  0.00    +0.000 OA
ENDROOT
BRANCH   6  11
ATOM     11  N   UNL     1       4.981   4.858  16.936  0.00  0.00    +0.000 N 
ATOM     12  C   UNL     1       6.434   5.063  17.175  0.00  0.00    +0.000 C 
ATOM     13  C   UNL     1       7.240   5.292  15.860  0.00  0.00    +0.000 C 
ATOM     14  N   UNL     1       6.838   4.392  14.777  0.00  0.00    +0.000 NA
ATOM     15  C   UNL     1       7.393   4.689  13.466  0.00  0.00    +0.000 C 
ATOM     16  C   UNL     1       6.531   3.788  12.582  0.00  0.00    +0.000 C 
ATOM     17  C   UNL     1       5.178   3.686  13.296  0.00  0.00    +0.000 C 
ATOM     18  C   UNL     1       5.378   4.467  14.583  0.00  0.00    +0.000 C 
ATOM     19  C   UNL     1       4.664   3.936  15.829  0.00  0.00    +0.000 C 
ENDBRANCH   6  11
BRANCH   1  24
ATOM     20  C   UNL     1      -0.861  11.120  20.839  0.00  0.00    +0.000 A 
ATOM     21  C   UNL     1      -1.100  11.043  22.218  0.00  0.00    +0.000 A 
ATOM     22  C   UNL     1      -0.578   9.998  22.997  0.00  0.00    +0.000 A 
ATOM     23  C   UNL     1       0.226   9.003  22.426  0.00  0.00    +0.000 A 
ATOM     24  C   UNL     1       0.508   9.046  21.068  0.00  0.00    +0.000 A 
ATOM     25  C   UNL     1      -0.068  10.087  20.314  0.00  0.00    +0.000 A 
BRANCH  20  26
ATOM     26  C   UNL     1      -1.428  12.281  19.867  0.00  0.00    +0.000 C 
ATOM     27  C   UNL     1      -2.940  12.193  19.531  0.00  0.00    +0.000 C 
ATOM     28  O   UNL     1      -2.692  12.066  18.119  0.00  0.00    +0.000 OA
ATOM     29  C   UNL     1      -1.264  12.081  18.328  0.00  0.00    +0.000 C 
BRANCH  26  30
ATOM     30  C   UNL     1      -0.996  13.688  20.350  0.00  0.00    +0.000 C 
BRANCH  30  36
ATOM     31  C   UNL     1      -0.332  16.272  18.652  0.00  0.00    +0.000 C 
ATOM     32  N   UNL     1       0.596  15.278  19.120  0.00  0.00    +0.000 N 
ATOM     33  C   UNL     1       1.937  15.289  18.880  0.00  0.00    +0.000 A 
ATOM     34  N   UNL     1       2.485  14.220  19.403  0.00  0.00    +0.000 NA
ATOM     35  N   UNL     1       1.485  13.487  19.988  0.00  0.00    +0.000 NA
ATOM     36  C   UNL     1       0.345  14.139  19.849  0.00  0.00    +0.000 A 
ENDBRANCH  30  36
ENDBRANCH  26  30
ENDBRANCH  20  26
ENDBRANCH   1  24
BRANCH   8  37
ATOM     37  C   UNL     1       2.124   3.735  20.814  0.00  0.00    +0.000 C 
ATOM     38  F   UNL     1       2.437   4.017  22.107  0.00  0.00    +0.000 F 
ATOM     39  F   UNL     1       0.770   3.612  20.772  0.00  0.00    +0.000 F 
ATOM     40  F   UNL     1       2.623   2.492  20.579  0.00  0.00    +0.000 F 
ENDBRANCH   8  37
TORSDOF 6
ENDMDL
MODEL 5
REMARK VINA RESULT:     -10.2      1.555      2.301
REMARK  Name = 
REMARK  7 active torsions:
REMARK  status: ('A' for Active; 'I' for Inactive)
REMARK    1  A    between atoms: C_1  and  N_2
REMARK    2  A    between atoms: C_6  and  C_7
REMARK    3  A    between atoms: C_7  and  C_8
REMARK    4  A    between atoms: C_8  and  C_9
REMARK    5  A    between atoms: C_13  and  N_14
REMARK    6  A    between atoms: C_19  and  N_20
REMARK    7  A    between atoms: C_30  and  C_31
REMARK                            x       y       z     vdW  Elec       q    Type
REMARK                         _______ _______ _______ _____ _____    ______ ____
ROOT
ATOM      1  N   UNL     1       1.377   8.223  20.308  0.00  0.00    +0.000 N 
ATOM      2  C   UNL     1       1.480   6.874  20.827  0.00  0.00    +0.000 C 
ATOM      3  C   UNL     1       2.281   6.155  19.818  0.00  0.00    +0.000 A 
ATOM      4  C   UNL     1       2.719   7.041  18.843  0.00  0.00    +0.000 A 
ATOM      5  C   UNL     1       3.571   6.629  17.833  0.00  0.00    +0.000 A 
ATOM      6  C   UNL     1       3.993   5.284  17.790  0.00  0.00    +0.000 A 
ATOM      7  C   UNL     1       3.456   4.395  18.754  0.00  0.00    +0.000 A 
ATOM      8  C   UNL     1       2.604   4.810  19.784  0.00  0.00    +0.000 A 
ATOM      9  C   UNL     1       2.127   8.375  19.128  0.00  0.00    +0.000 C 
ATOM     10  O   UNL     1       2.291   9.342  18.420  0.00  0.00    +0.000 OA
ENDROOT
BRANCH   6  11
ATOM     11  N   UNL     1       4.946   4.841  16.889  0.00  0.00    +0.000 N 
ATOM     12  C   UNL     1       6.402   5.003  17.138  0.00  0.00    +0.000 C 
ATOM     13  C   UNL     1       7.224   5.211  15.829  0.00  0.00    +0.000 C 
ATOM     14  N   UNL     1       6.803   4.325  14.741  0.00  0.00    +0.000 NA
ATOM     15  C   UNL     1       7.375   4.608  13.435  0.00  0.00    +0.000 C 
ATOM     16  C   UNL     1       6.494   3.734  12.544  0.00  0.00    +0.000 C 
ATOM     17  C   UNL     1       5.133   3.671  13.248  0.00  0.00    +0.000 C 
ATOM     18  C   UNL     1       5.348   4.442  14.538  0.00  0.00    +0.000 C 
ATOM     19  C   UNL     1       4.609   3.931  15.778  0.00  0.00    +0.000 C 
ENDBRANCH   6  11
BRANCH   1  24
ATOM     20  C   UNL     1      -1.024  11.081  20.642  0.00  0.00    +0.000 A 
ATOM     21  C   UNL     1      -1.098  11.170  22.038  0.00  0.00    +0.000 A 
ATOM     22  C   UNL     1      -0.409  10.272  22.870  0.00  0.00    +0.000 A 
ATOM     23  C   UNL     1       0.402   9.265  22.330  0.00  0.00    +0.000 A 
ATOM     24  C   UNL     1       0.524   9.148  20.952  0.00  0.00    +0.000 A 
ATOM     25  C   UNL     1      -0.216  10.042  20.153  0.00  0.00    +0.000 A 
BRANCH  20  26
ATOM     26  C   UNL     1      -1.789  12.065  19.612  0.00  0.00    +0.000 C 
ATOM     27  C   UNL     1      -2.658  11.362  18.536  0.00  0.00    +0.000 C 
ATOM     28  O   UNL     1      -1.896  11.922  17.451  0.00  0.00    +0.000 OA
ATOM     29  C   UNL     1      -0.993  12.573  18.369  0.00  0.00    +0.000 C 
BRANCH  26  30
ATOM     30  C   UNL     1      -2.544  13.194  20.357  0.00  0.00    +0.000 C 
BRANCH  30  36
ATOM     31  C   UNL     1      -4.038  12.729  23.105  0.00  0.00    +0.000 C 
ATOM     32  N   UNL     1      -4.621  12.745  21.790  0.00  0.00    +0.000 N 
ATOM     33  C   UNL     1      -5.941  12.538  21.521  0.00  0.00    +0.000 A 
ATOM     34  N   UNL     1      -6.135  12.571  20.226  0.00  0.00    +0.000 NA
ATOM     35  N   UNL     1      -4.919  12.793  19.632  0.00  0.00    +0.000 NA
ATOM     36  C   UNL     1      -4.005  12.932  20.575  0.00  0.00    +0.000 A 
ENDBRANCH  30  36
ENDBRANCH  26  30
ENDBRANCH  20  26
ENDBRANCH   1  24
BRANCH   8  37
ATOM     37  C   UNL     1       2.084   3.818  20.792  0.00  0.00    +0.000 C 
ATOM     38  F   UNL     1       0.729   3.736  20.837  0.00  0.00    +0.000 F 
ATOM     39  F   UNL     1       2.531   2.556  20.550  0.00  0.00    +0.000 F 
ATOM     40  F   UNL     1       2.475   4.119  22.059  0.00  0.00    +0.000 F 
ENDBRANCH   8  37
TORSDOF 6
ENDMDL
MODEL 6
REMARK VINA RESULT:     -10.2      2.024      3.075
REMARK  Name = 
REMARK  7 active torsions:
REMARK  status: ('A' for Active; 'I' for Inactive)
REMARK    1  A    between atoms: C_1  and  N_2
REMARK    2  A    between atoms: C_6  and  C_7
REMARK    3  A    between atoms: C_7  and  C_8
REMARK    4  A    between atoms: C_8  and  C_9
REMARK    5  A    between atoms: C_13  and  N_14
REMARK    6  A    between atoms: C_19  and  N_20
REMARK    7  A    between atoms: C_30  and  C_31
REMARK                            x       y       z     vdW  Elec       q    Type
REMARK                         _______ _______ _______ _____ _____    ______ ____
ROOT
ATOM      1  N   UNL     1       1.378   8.056  20.383  0.00  0.00    +0.000 N 
ATOM      2  C   UNL     1       1.475   6.693  20.865  0.00  0.00    +0.000 C 
ATOM      3  C   UNL     1       2.279   6.000  19.841  0.00  0.00    +0.000 A 
ATOM      4  C   UNL     1       2.726   6.912  18.894  0.00  0.00    +0.000 A 
ATOM      5  C   UNL     1       3.582   6.525  17.878  0.00  0.00    +0.000 A 
ATOM      6  C   UNL     1       4.001   5.180  17.800  0.00  0.00    +0.000 A 
ATOM      7  C   UNL     1       3.456   4.267  18.735  0.00  0.00    +0.000 A 
ATOM      8  C   UNL     1       2.599   4.655  19.772  0.00  0.00    +0.000 A 
ATOM      9  C   UNL     1       2.135   8.239  19.212  0.00  0.00    +0.000 C 
ATOM     10  O   UNL     1       2.307   9.225  18.532  0.00  0.00    +0.000 OA
ENDROOT
BRANCH   6  11
ATOM     11  N   UNL     1       4.958   4.761  16.893  0.00  0.00    +0.000 N 
ATOM     12  C   UNL     1       6.413   4.914  17.154  0.00  0.00    +0.000 C 
ATOM     13  C   UNL     1       7.242   5.154  15.855  0.00  0.00    +0.000 C 
ATOM     14  N   UNL     1       6.826   4.298  14.742  0.00  0.00    +0.000 NA
ATOM     15  C   UNL     1       7.405   4.614  13.446  0.00  0.00    +0.000 C 
ATOM     16  C   UNL     1       6.528   3.766  12.528  0.00  0.00    +0.000 C 
ATOM     17  C   UNL     1       5.163   3.686  13.223  0.00  0.00    +0.000 C 
ATOM     18  C   UNL     1       5.372   4.423  14.534  0.00  0.00    +0.000 C 
ATOM     19  C   UNL     1       4.626   3.880  15.756  0.00  0.00    +0.000 C 
ENDBRANCH   6  11
BRANCH   1  24
ATOM     20  C   UNL     1      -0.677  11.148  20.895  0.00  0.00    +0.000 A 
ATOM     21  C   UNL     1      -1.039  10.976  22.237  0.00  0.00    +0.000 A 
ATOM     22  C   UNL     1      -0.658   9.834  22.961  0.00  0.00    +0.000 A 
ATOM     23  C   UNL     1       0.123   8.832  22.370  0.00  0.00    +0.000 A 
ATOM     24  C   UNL     1       0.524   8.966  21.048  0.00  0.00    +0.000 A 
ATOM     25  C   UNL     1       0.087  10.106  20.345  0.00  0.00    +0.000 A 
BRANCH  20  26
ATOM     26  C   UNL     1      -1.078  12.424  19.986  0.00  0.00    +0.000 C 
ATOM     27  C   UNL     1      -2.212  12.182  18.956  0.00  0.00    +0.000 C 
ATOM     28  O   UNL     1      -1.365  12.503  17.839  0.00  0.00    +0.000 OA
ATOM     29  C   UNL     1      -0.228  12.698  18.706  0.00  0.00    +0.000 C 
BRANCH  26  30
ATOM     30  C   UNL     1      -1.305  13.690  20.850  0.00  0.00    +0.000 C 
BRANCH  30  36
ATOM     31  C   UNL     1      -0.194  16.421  19.709  0.00  0.00    +0.000 C 
ATOM     32  N   UNL     1       0.396  15.605  20.736  0.00  0.00    +0.000 N 
ATOM     33  C   UNL     1       1.565  15.884  21.378  0.00  0.00    +0.000 A 
ATOM     34  N   UNL     1       1.844  14.919  22.219  0.00  0.00    +0.000 NA
ATOM     35  N   UNL     1       0.846  13.984  22.122  0.00  0.00    +0.000 NA
ATOM     36  C   UNL     1      -0.050  14.409  21.250  0.00  0.00    +0.000 A 
ENDBRANCH  30  36
ENDBRANCH  26  30
ENDBRANCH  20  26
ENDBRANCH   1  24
BRANCH   8  37
ATOM     37  C   UNL     1       2.071   3.637  20.748  0.00  0.00    +0.000 C 
ATOM     38  F   UNL     1       0.714   3.557  20.782  0.00  0.00    +0.000 F 
ATOM     39  F   UNL     1       2.517   2.382  20.475  0.00  0.00    +0.000 F 
ATOM     40  F   UNL     1       2.453   3.903  22.026  0.00  0.00    +0.000 F 
ENDBRANCH   8  37
TORSDOF 6
ENDMDL
MODEL 7
REMARK VINA RESULT:     -10.2      0.688      1.067
REMARK  Name = 
REMARK  7 active torsions:
REMARK  status: ('A' for Active; 'I' for Inactive)
REMARK    1  A    between atoms: C_1  and  N_2
REMARK    2  A    between atoms: C_6  and  C_7
REMARK    3  A    between atoms: C_7  and  C_8
REMARK    4  A    between atoms: C_8  and  C_9
REMARK    5  A    between atoms: C_13  and  N_14
REMARK    6  A    between atoms: C_19  and  N_20
REMARK    7  A    between atoms: C_30  and  C_31
REMARK                            x       y       z     vdW  Elec       q    Type
REMARK                         _______ _______ _______ _____ _____    ______ ____
ROOT
ATOM      1  N   UNL     1       1.395   8.289  20.195  0.00  0.00    +0.000 N 
ATOM      2  C   UNL     1       1.504   6.951  20.738  0.00  0.00    +0.000 C 
ATOM      3  C   UNL     1       2.305   6.216  19.740  0.00  0.00    +0.000 A 
ATOM      4  C   UNL     1       2.737   7.086  18.748  0.00  0.00    +0.000 A 
ATOM      5  C   UNL     1       3.588   6.659  17.744  0.00  0.00    +0.000 A 
ATOM      6  C   UNL     1       4.015   5.314  17.724  0.00  0.00    +0.000 A 
ATOM      7  C   UNL     1       3.483   4.442  18.705  0.00  0.00    +0.000 A 
ATOM      8  C   UNL     1       2.632   4.872  19.730  0.00  0.00    +0.000 A 
ATOM      9  C   UNL     1       2.141   8.423  19.011  0.00  0.00    +0.000 C 
ATOM     10  O   UNL     1       2.300   9.378  18.285  0.00  0.00    +0.000 OA
ENDROOT
BRANCH   6  11
ATOM     11  N   UNL     1       4.967   4.859  16.828  0.00  0.00    +0.000 N 
ATOM     12  C   UNL     1       6.423   4.996  17.089  0.00  0.00    +0.000 C 
ATOM     13  C   UNL     1       7.259   5.194  15.788  0.00  0.00    +0.000 C 
ATOM     14  N   UNL     1       6.832   4.319  14.693  0.00  0.00    +0.000 NA
ATOM     15  C   UNL     1       7.418   4.597  13.392  0.00  0.00    +0.000 C 
ATOM     16  C   UNL     1       6.529   3.741  12.491  0.00  0.00    +0.000 C 
ATOM     17  C   UNL     1       5.162   3.698  13.184  0.00  0.00    +0.000 C 
ATOM     18  C   UNL     1       5.380   4.462  14.479  0.00  0.00    +0.000 C 
ATOM     19  C   UNL     1       4.623   3.958  15.711  0.00  0.00    +0.000 C 
ENDBRANCH   6  11
BRANCH   1  24
ATOM     20  C   UNL     1      -0.616  11.425  20.611  0.00  0.00    +0.000 A 
ATOM     21  C   UNL     1      -1.017  11.277  21.946  0.00  0.00    +0.000 A 
ATOM     22  C   UNL     1      -0.676  10.139  22.694  0.00  0.00    +0.000 A 
ATOM     23  C   UNL     1       0.101   9.115  22.137  0.00  0.00    +0.000 A 
ATOM     24  C   UNL     1       0.540   9.224  20.825  0.00  0.00    +0.000 A 
ATOM     25  C   UNL     1       0.143  10.362  20.096  0.00  0.00    +0.000 A 
BRANCH  20  26
ATOM     26  C   UNL     1      -0.968  12.696  19.676  0.00  0.00    +0.000 C 
ATOM     27  C   UNL     1       0.079  13.840  19.679  0.00  0.00    +0.000 C 
ATOM     28  O   UNL     1      -0.866  14.802  20.181  0.00  0.00    +0.000 OA
ATOM     29  C   UNL     1      -1.899  13.798  20.271  0.00  0.00    +0.000 C 
BRANCH  26  30
ATOM     30  C   UNL     1      -1.379  12.255  18.248  0.00  0.00    +0.000 C 
BRANCH  30  36
ATOM     31  C   UNL     1      -2.754  10.914  15.736  0.00  0.00    +0.000 C 
ATOM     32  N   UNL     1      -3.357  11.191  17.012  0.00  0.00    +0.000 N 
ATOM     33  C   UNL     1      -4.654  10.927  17.335  0.00  0.00    +0.000 A 
ATOM     34  N   UNL     1      -4.896  11.343  18.553  0.00  0.00    +0.000 NA
ATOM     35  N   UNL     1      -3.741  11.900  19.038  0.00  0.00    +0.000 NA
ATOM     36  C   UNL     1      -2.796  11.781  18.121  0.00  0.00    +0.000 A 
ENDBRANCH  30  36
ENDBRANCH  26  30
ENDBRANCH  20  26
ENDBRANCH   1  24
BRANCH   8  37
ATOM     37  C   UNL     1       2.118   3.896  20.756  0.00  0.00    +0.000 C 
ATOM     38  F   UNL     1       2.462   4.207  22.034  0.00  0.00    +0.000 F 
ATOM     39  F   UNL     1       0.762   3.801  20.742  0.00  0.00    +0.000 F 
ATOM     40  F   UNL     1       2.587   2.636  20.548  0.00  0.00    +0.000 F 
ENDBRANCH   8  37
TORSDOF 6
ENDMDL
MODEL 8
REMARK VINA RESULT:     -10.0      1.700      2.285
REMARK  Name = 
REMARK  7 active torsions:
REMARK  status: ('A' for Active; 'I' for Inactive)
REMARK    1  A    between atoms: C_1  and  N_2
REMARK    2  A    between atoms: C_6  and  C_7
REMARK    3  A    between atoms: C_7  and  C_8
REMARK    4  A    between atoms: C_8  and  C_9
REMARK    5  A    between atoms: C_13  and  N_14
REMARK    6  A    between atoms: C_19  and  N_20
REMARK    7  A    between atoms: C_30  and  C_31
REMARK                            x       y       z     vdW  Elec       q    Type
REMARK                         _______ _______ _______ _____ _____    ______ ____
ROOT
ATOM      1  N   UNL     1       1.367   8.759  19.581  0.00  0.00    +0.000 N 
ATOM      2  C   UNL     1       1.503   7.483  20.254  0.00  0.00    +0.000 C 
ATOM      3  C   UNL     1       2.331   6.674  19.340  0.00  0.00    +0.000 A 
ATOM      4  C   UNL     1       2.753   7.453  18.271  0.00  0.00    +0.000 A 
ATOM      5  C   UNL     1       3.624   6.951  17.320  0.00  0.00    +0.000 A 
ATOM      6  C   UNL     1       4.083   5.622  17.436  0.00  0.00    +0.000 A 
ATOM      7  C   UNL     1       3.563   4.837  18.494  0.00  0.00    +0.000 A 
ATOM      8  C   UNL     1       2.691   5.344  19.465  0.00  0.00    +0.000 A 
ATOM      9  C   UNL     1       2.122   8.794  18.395  0.00  0.00    +0.000 C 
ATOM     10  O   UNL     1       2.265   9.677  17.580  0.00  0.00    +0.000 OA
ENDROOT
BRANCH   6  11
ATOM     11  N   UNL     1       5.055   5.105  16.597  0.00  0.00    +0.000 N 
ATOM     12  C   UNL     1       6.505   5.281  16.869  0.00  0.00    +0.000 C 
ATOM     13  C   UNL     1       7.361   5.379  15.569  0.00  0.00    +0.000 C 
ATOM     14  N   UNL     1       6.962   4.410  14.545  0.00  0.00    +0.000 NA
ATOM     15  C   UNL     1       7.567   4.585  13.235  0.00  0.00    +0.000 C 
ATOM     16  C   UNL     1       6.703   3.645  12.395  0.00  0.00    +0.000 C 
ATOM     17  C   UNL     1       5.325   3.644  13.068  0.00  0.00    +0.000 C 
ATOM     18  C   UNL     1       5.512   4.516  14.297  0.00  0.00    +0.000 C 
ATOM     19  C   UNL     1       4.741   4.109  15.555  0.00  0.00    +0.000 C 
ENDBRANCH   6  11
BRANCH   1  24
ATOM     20  C   UNL     1      -1.539  11.124  19.673  0.00  0.00    +0.000 A 
ATOM     21  C   UNL     1      -1.297  11.753  20.901  0.00  0.00    +0.000 A 
ATOM     22  C   UNL     1      -0.221  11.377  21.720  0.00  0.00    +0.000 A 
ATOM     23  C   UNL     1       0.669  10.370  21.326  0.00  0.00    +0.000 A 
ATOM     24  C   UNL     1       0.483   9.729  20.109  0.00  0.00    +0.000 A 
ATOM     25  C   UNL     1      -0.631  10.107  19.335  0.00  0.00    +0.000 A 
BRANCH  20  26
ATOM     26  C   UNL     1      -2.756  11.487  18.672  0.00  0.00    +0.000 C 
ATOM     27  C   UNL     1      -3.593  10.281  18.170  0.00  0.00    +0.000 C 
ATOM     28  O   UNL     1      -3.274  10.540  16.792  0.00  0.00    +0.000 OA
ATOM     29  C   UNL     1      -2.424  11.648  17.156  0.00  0.00    +0.000 C 
BRANCH  26  30
ATOM     30  C   UNL     1      -3.629  12.638  19.232  0.00  0.00    +0.000 C 
BRANCH  30  36
ATOM     31  C   UNL     1      -6.311  12.639  17.557  0.00  0.00    +0.000 C 
ATOM     32  N   UNL     1      -6.141  12.227  18.925  0.00  0.00    +0.000 N 
ATOM     33  C   UNL     1      -7.142  11.779  19.734  0.00  0.00    +0.000 A 
ATOM     34  N   UNL     1      -6.662  11.533  20.928  0.00  0.00    +0.000 NA
ATOM     35  N   UNL     1      -5.325  11.833  20.907  0.00  0.00    +0.000 NA
ATOM     36  C   UNL     1      -4.997  12.222  19.688  0.00  0.00    +0.000 A 
ENDBRANCH  30  36
ENDBRANCH  26  30
ENDBRANCH  20  26
ENDBRANCH   1  24
BRANCH   8  37
ATOM     37  C   UNL     1       2.191   4.462  20.578  0.00  0.00    +0.000 C 
ATOM     38  F   UNL     1       2.633   3.179  20.507  0.00  0.00    +0.000 F 
ATOM     39  F   UNL     1       2.559   4.921  21.804  0.00  0.00    +0.000 F 
ATOM     40  F   UNL     1       0.833   4.380  20.599  0.00  0.00    +0.000 F 
ENDBRANCH   8  37
TORSDOF 6
ENDMDL
MODEL 9
REMARK VINA RESULT:      -9.9      1.121      1.580
REMARK  Name = 
REMARK  7 active torsions:
REMARK  status: ('A' for Active; 'I' for Inactive)
REMARK    1  A    between atoms: C_1  and  N_2
REMARK    2  A    between atoms: C_6  and  C_7
REMARK    3  A    between atoms: C_7  and  C_8
REMARK    4  A    between atoms: C_8  and  C_9
REMARK    5  A    between atoms: C_13  and  N_14
REMARK    6  A    between atoms: C_19  and  N_20
REMARK    7  A    between atoms: C_30  and  C_31
REMARK                            x       y       z     vdW  Elec       q    Type
REMARK                         _______ _______ _______ _____ _____    ______ ____
ROOT
ATOM      1  N   UNL     1       1.512   8.273  20.264  0.00  0.00    +0.000 N 
ATOM      2  C   UNL     1       1.592   6.923  20.783  0.00  0.00    +0.000 C 
ATOM      3  C   UNL     1       2.360   6.184  19.762  0.00  0.00    +0.000 A 
ATOM      4  C   UNL     1       2.803   7.059  18.780  0.00  0.00    +0.000 A 
ATOM      5  C   UNL     1       3.629   6.626  17.757  0.00  0.00    +0.000 A 
ATOM      6  C   UNL     1       4.020   5.271  17.710  0.00  0.00    +0.000 A 
ATOM      7  C   UNL     1       3.478   4.397  18.683  0.00  0.00    +0.000 A 
ATOM      8  C   UNL     1       2.652   4.832  19.726  0.00  0.00    +0.000 A 
ATOM      9  C   UNL     1       2.246   8.407  19.072  0.00  0.00    +0.000 C 
ATOM     10  O   UNL     1       2.422   9.369  18.360  0.00  0.00    +0.000 OA
ENDROOT
BRANCH   6  11
ATOM     11  N   UNL     1       4.948   4.807  16.794  0.00  0.00    +0.000 N 
ATOM     12  C   UNL     1       6.411   4.909  17.034  0.00  0.00    +0.000 C 
ATOM     13  C   UNL     1       7.231   5.104  15.721  0.00  0.00    +0.000 C 
ATOM     14  N   UNL     1       6.768   4.251  14.624  0.00  0.00    +0.000 NA
ATOM     15  C   UNL     1       7.340   4.532  13.317  0.00  0.00    +0.000 C 
ATOM     16  C   UNL     1       6.420   3.706  12.420  0.00  0.00    +0.000 C 
ATOM     17  C   UNL     1       5.063   3.684  13.135  0.00  0.00    +0.000 C 
ATOM     18  C   UNL     1       5.316   4.427  14.434  0.00  0.00    +0.000 C 
ATOM     19  C   UNL     1       4.568   3.926  15.673  0.00  0.00    +0.000 C 
ENDBRANCH   6  11
BRANCH   1  24
ATOM     20  C   UNL     1       0.104  11.634  21.138  0.00  0.00    +0.000 A 
ATOM     21  C   UNL     1      -0.730  11.274  22.205  0.00  0.00    +0.000 A 
ATOM     22  C   UNL     1      -0.873   9.937  22.607  0.00  0.00    +0.000 A 
ATOM     23  C   UNL     1      -0.164   8.911  21.970  0.00  0.00    +0.000 A 
ATOM     24  C   UNL     1       0.690   9.218  20.920  0.00  0.00    +0.000 A 
ATOM     25  C   UNL     1       0.774  10.567  20.520  0.00  0.00    +0.000 A 
BRANCH  20  26
ATOM     26  C   UNL     1       0.321  13.144  20.603  0.00  0.00    +0.000 C 
ATOM     27  C   UNL     1       1.542  13.355  19.670  0.00  0.00    +0.000 C 
ATOM     28  O   UNL     1       2.153  14.302  20.564  0.00  0.00    +0.000 OA
ATOM     29  C   UNL     1       1.093  14.137  21.528  0.00  0.00    +0.000 C 
BRANCH  26  30
ATOM     30  C   UNL     1      -0.990  13.739  20.028  0.00  0.00    +0.000 C 
BRANCH  30  36
ATOM     31  C   UNL     1      -3.876  12.570  20.577  0.00  0.00    +0.000 C 
ATOM     32  N   UNL     1      -3.040  12.319  19.433  0.00  0.00    +0.000 N 
ATOM     33  C   UNL     1      -3.366  11.502  18.393  0.00  0.00    +0.000 A 
ATOM     34  N   UNL     1      -2.370  11.454  17.544  0.00  0.00    +0.000 NA
ATOM     35  N   UNL     1      -1.366  12.246  18.038  0.00  0.00    +0.000 NA
ATOM     36  C   UNL     1      -1.779  12.798  19.165  0.00  0.00    +0.000 A 
ENDBRANCH  30  36
ENDBRANCH  26  30
ENDBRANCH  20  26
ENDBRANCH   1  24
BRANCH   8  37
ATOM     37  C   UNL     1       2.125   3.853  20.742  0.00  0.00    +0.000 C 
ATOM     38  F   UNL     1       2.547   2.576  20.549  0.00  0.00    +0.000 F 
ATOM     39  F   UNL     1       2.489   4.183  22.011  0.00  0.00    +0.000 F 
ATOM     40  F   UNL     1       0.766   3.794  20.744  0.00  0.00    +0.000 F 
ENDBRANCH   8  37
TORSDOF 6
ENDMDL
