MODEL 1
REMARK VINA RESULT:      -8.8      0.000      0.000
REMARK  Name = 
REMARK  8 active torsions:
REMARK  status: ('A' for Active; 'I' for Inactive)
REMARK    1  A    between atoms: C_1  and  C_2
REMARK    2  A    between atoms: C_4  and  C_5
REMARK    3  A    between atoms: N_7  and  C_8
REMARK    4  A    between atoms: C_12  and  C_13
REMARK    5  A    between atoms: C_13  and  C_14
REMARK    6  A    between atoms: C_14  and  C_16
REMARK    7  A    between atoms: N_20  and  C_21
REMARK    8  A    between atoms: C_27  and  C_28
REMARK                            x       y       z     vdW  Elec       q    Type
REMARK                         _______ _______ _______ _____ _____    ______ ____
ROOT
ATOM      1  C   UNL     1       2.533   5.712  18.659  0.00  0.00    +0.000 A 
ATOM      2  C   UNL     1       1.914   4.472  18.820  0.00  0.00    +0.000 A 
ATOM      3  C   UNL     1       2.382   3.351  18.144  0.00  0.00    +0.000 A 
ATOM      4  C   UNL     1       3.497   3.457  17.318  0.00  0.00    +0.000 A 
ATOM      5  C   UNL     1       4.176   4.679  17.134  0.00  0.00    +0.000 A 
ATOM      6  C   UNL     1       3.632   5.809  17.791  0.00  0.00    +0.000 A 
ENDROOT
BRANCH   1   9
ATOM      7  C   UNL     1       1.800   8.088  18.752  0.00  0.00    +0.000 C 
ATOM      8  O   UNL     1       1.797   8.329  17.548  0.00  0.00    +0.000 OA
ATOM      9  N   UNL     1       2.120   6.874  19.343  0.00  0.00    +0.000 N 
ATOM     10  H   UNL     1       1.940   6.813  20.341  0.00  0.00    +0.000 HD
BRANCH   7  14
ATOM     11  C   UNL     1       0.170   9.543  23.201  0.00  0.00    +0.000 C 
ATOM     12  C   UNL     1       0.614   9.814  21.797  0.00  0.00    +0.000 A 
ATOM     13  C   UNL     1       0.997   8.796  20.967  0.00  0.00    +0.000 A 
ATOM     14  C   UNL     1       1.384   9.170  19.698  0.00  0.00    +0.000 A 
ATOM     15  N   UNL     1       1.417  10.447  19.249  0.00  0.00    +0.000 NA
ATOM     16  C   UNL     1       1.028  11.387  20.135  0.00  0.00    +0.000 A 
ATOM     17  N   UNL     1       0.624  11.098  21.393  0.00  0.00    +0.000 NA
BRANCH  16  18
ATOM     18  C   UNL     1       1.034  12.849  19.758  0.00  0.00    +0.000 C 
ATOM     19  C   UNL     1       2.368  13.564  19.701  0.00  0.00    +0.000 C 
ATOM     20  C   UNL     1       1.571  13.364  18.447  0.00  0.00    +0.000 C 
ENDBRANCH  16  18
ENDBRANCH   7  14
ENDBRANCH   1   9
BRANCH   5  21
ATOM     21  C   UNL     1       5.529   4.744  16.277  0.00  0.00    +0.000 C 
ATOM     22  C   UNL     1       5.655   3.858  15.006  0.00  0.00    +0.000 C 
ATOM     23  O   UNL     1       6.179   4.986  14.249  0.00  0.00    +0.000 OA
ATOM     24  C   UNL     1       5.598   5.887  15.224  0.00  0.00    +0.000 C 
BRANCH  21  25
ATOM     25  C   UNL     1       6.792   4.713  17.148  0.00  0.00    +0.000 C 
ATOM     26  F   UNL     1       7.733   3.961  16.500  0.00  0.00    +0.000 F 
BRANCH  25  27
ATOM     27  C   UNL     1       7.305   6.075  17.481  0.00  0.00    +0.000 A 
ATOM     28  N   UNL     1       7.281   7.120  16.674  0.00  0.00    +0.000 NA
ATOM     29  N   UNL     1       7.815   8.195  17.336  0.00  0.00    +0.000 NA
ATOM     30  C   UNL     1       8.154   7.792  18.536  0.00  0.00    +0.000 A 
ATOM     31  N   UNL     1       7.865   6.467  18.670  0.00  0.00    +0.000 N 
ATOM     32  C   UNL     1       8.102   5.689  19.857  0.00  0.00    +0.000 C 
ENDBRANCH  25  27
ENDBRANCH  21  25
ENDBRANCH   5  21
TORSDOF 6
ENDMDL
MODEL 2
REMARK VINA RESULT:      -8.7      2.064      2.758
REMARK  Name = 
REMARK  8 active torsions:
REMARK  status: ('A' for Active; 'I' for Inactive)
REMARK    1  A    between atoms: C_1  and  C_2
REMARK    2  A    between atoms: C_4  and  C_5
REMARK    3  A    between atoms: N_7  and  C_8
REMARK    4  A    between atoms: C_12  and  C_13
REMARK    5  A    between atoms: C_13  and  C_14
REMARK    6  A    between atoms: C_14  and  C_16
REMARK    7  A    between atoms: N_20  and  C_21
REMARK    8  A    between atoms: C_27  and  C_28
REMARK                            x       y       z     vdW  Elec       q    Type
REMARK                         _______ _______ _______ _____ _____    ______ ____
ROOT
ATOM      1  C   UNL     1       2.663   7.060  18.623  0.00  0.00    +0.000 A 
ATOM      2  C   UNL     1       2.613   6.314  19.802  0.00  0.00    +0.000 A 
ATOM      3  C   UNL     1       3.353   5.145  19.935  0.00  0.00    +0.000 A 
ATOM      4  C   UNL     1       4.176   4.725  18.894  0.00  0.00    +0.000 A 
ATOM      5  C   UNL     1       4.283   5.449  17.689  0.00  0.00    +0.000 A 
ATOM      6  C   UNL     1       3.468   6.601  17.569  0.00  0.00    +0.000 A 
ENDROOT
BRANCH   1   9
ATOM      7  C   UNL     1       1.347   9.001  19.454  0.00  0.00    +0.000 C 
ATOM      8  O   UNL     1       1.349   8.729  20.651  0.00  0.00    +0.000 OA
ATOM      9  N   UNL     1       1.958   8.268  18.446  0.00  0.00    +0.000 N 
ATOM     10  H   UNL     1       1.970   8.710  17.531  0.00  0.00    +0.000 HD
BRANCH   7  14
ATOM     11  C   UNL     1       1.326  13.918  18.832  0.00  0.00    +0.000 C 
ATOM     12  C   UNL     1       0.690  12.566  18.735  0.00  0.00    +0.000 A 
ATOM     13  C   UNL     1       1.354  11.442  19.144  0.00  0.00    +0.000 A 
ATOM     14  C   UNL     1       0.664  10.256  19.008  0.00  0.00    +0.000 A 
ATOM     15  N   UNL     1      -0.585  10.147  18.496  0.00  0.00    +0.000 NA
ATOM     16  C   UNL     1      -1.162  11.304  18.113  0.00  0.00    +0.000 A 
ATOM     17  N   UNL     1      -0.555  12.508  18.226  0.00  0.00    +0.000 NA
BRANCH  16  18
ATOM     18  C   UNL     1      -2.548  11.312  17.514  0.00  0.00    +0.000 C 
ATOM     19  C   UNL     1      -2.705  10.862  16.076  0.00  0.00    +0.000 C 
ATOM     20  C   UNL     1      -3.315  10.057  17.184  0.00  0.00    +0.000 C 
ENDBRANCH  16  18
ENDBRANCH   7  14
ENDBRANCH   1   9
BRANCH   5  21
ATOM     21  C   UNL     1       5.331   5.009  16.559  0.00  0.00    +0.000 C 
ATOM     22  C   UNL     1       4.954   3.850  15.596  0.00  0.00    +0.000 C 
ATOM     23  O   UNL     1       5.412   4.625  14.452  0.00  0.00    +0.000 OA
ATOM     24  C   UNL     1       5.278   5.834  15.241  0.00  0.00    +0.000 C 
BRANCH  21  25
ATOM     25  C   UNL     1       6.768   4.897  17.086  0.00  0.00    +0.000 C 
ATOM     26  F   UNL     1       7.526   4.295  16.120  0.00  0.00    +0.000 F 
BRANCH  25  27
ATOM     27  C   UNL     1       7.343   6.211  17.502  0.00  0.00    +0.000 A 
ATOM     28  N   UNL     1       7.375   7.301  16.756  0.00  0.00    +0.000 NA
ATOM     29  N   UNL     1       7.955   8.310  17.482  0.00  0.00    +0.000 NA
ATOM     30  C   UNL     1       8.264   7.821  18.659  0.00  0.00    +0.000 A 
ATOM     31  N   UNL     1       7.911   6.506  18.714  0.00  0.00    +0.000 N 
ATOM     32  C   UNL     1       8.102   5.650  19.855  0.00  0.00    +0.000 C 
ENDBRANCH  25  27
ENDBRANCH  21  25
ENDBRANCH   5  21
TORSDOF 6
ENDMDL
MODEL 3
REMARK VINA RESULT:      -8.4      3.704      9.221
REMARK  Name = 
REMARK  8 active torsions:
REMARK  status: ('A' for Active; 'I' for Inactive)
REMARK    1  A    between atoms: C_1  and  C_2
REMARK    2  A    between atoms: C_4  and  C_5
REMARK    3  A    between atoms: N_7  and  C_8
REMARK    4  A    between atoms: C_12  and  C_13
REMARK    5  A    between atoms: C_13  and  C_14
REMARK    6  A    between atoms: C_14  and  C_16
REMARK    7  A    between atoms: N_20  and  C_21
REMARK    8  A    between atoms: C_27  and  C_28
REMARK                            x       y       z     vdW  Elec       q    Type
REMARK                         _______ _______ _______ _____ _____    ______ ____
ROOT
ATOM      1  C   UNL     1       0.563   8.988  21.428  0.00  0.00    +0.000 A 
ATOM      2  C   UNL     1       0.030   9.313  22.676  0.00  0.00    +0.000 A 
ATOM      3  C   UNL     1      -0.618  10.526  22.879  0.00  0.00    +0.000 A 
ATOM      4  C   UNL     1      -0.761  11.418  21.820  0.00  0.00    +0.000 A 
ATOM      5  C   UNL     1      -0.262  11.134  20.532  0.00  0.00    +0.000 A 
ATOM      6  C   UNL     1       0.443   9.915  20.382  0.00  0.00    +0.000 A 
ENDROOT
BRANCH   1   9
ATOM      7  C   UNL     1       1.874   7.438  19.989  0.00  0.00    +0.000 C 
ATOM      8  O   UNL     1       2.043   8.179  19.024  0.00  0.00    +0.000 OA
ATOM      9  N   UNL     1       1.200   7.759  21.160  0.00  0.00    +0.000 N 
ATOM     10  H   UNL     1       1.272   7.074  21.906  0.00  0.00    +0.000 HD
BRANCH   7  14
ATOM     11  C   UNL     1       2.033   2.751  21.591  0.00  0.00    +0.000 C 
ATOM     12  C   UNL     1       2.518   3.875  20.730  0.00  0.00    +0.000 A 
ATOM     13  C   UNL     1       1.936   5.113  20.789  0.00  0.00    +0.000 A 
ATOM     14  C   UNL     1       2.471   6.067  19.950  0.00  0.00    +0.000 A 
ATOM     15  N   UNL     1       3.495   5.849  19.091  0.00  0.00    +0.000 NA
ATOM     16  C   UNL     1       4.004   4.600  19.096  0.00  0.00    +0.000 A 
ATOM     17  N   UNL     1       3.542   3.614  19.897  0.00  0.00    +0.000 NA
BRANCH  16  18
ATOM     18  C   UNL     1       5.140   4.229  18.172  0.00  0.00    +0.000 C 
ATOM     19  C   UNL     1       4.843   4.102  16.693  0.00  0.00    +0.000 C 
ATOM     20  C   UNL     1       5.751   5.189  17.184  0.00  0.00    +0.000 C 
ENDBRANCH  16  18
ENDBRANCH   7  14
ENDBRANCH   1   9
BRANCH   5  21
ATOM     21  C   UNL     1      -0.551  12.123  19.304  0.00  0.00    +0.000 C 
ATOM     22  C   UNL     1      -0.950  13.595  19.604  0.00  0.00    +0.000 C 
ATOM     23  O   UNL     1      -0.008  14.075  18.603  0.00  0.00    +0.000 OA
ATOM     24  C   UNL     1       0.702  12.815  18.695  0.00  0.00    +0.000 C 
BRANCH  21  25
ATOM     25  C   UNL     1      -1.420  11.485  18.213  0.00  0.00    +0.000 C 
ATOM     26  F   UNL     1      -1.106  10.155  18.148  0.00  0.00    +0.000 F 
BRANCH  25  27
ATOM     27  C   UNL     1      -2.882  11.698  18.430  0.00  0.00    +0.000 A 
ATOM     28  N   UNL     1      -3.435  12.111  19.557  0.00  0.00    +0.000 NA
ATOM     29  N   UNL     1      -4.789  12.211  19.367  0.00  0.00    +0.000 NA
ATOM     30  C   UNL     1      -5.041  11.862  18.129  0.00  0.00    +0.000 A 
ATOM     31  N   UNL     1      -3.879  11.520  17.505  0.00  0.00    +0.000 N 
ATOM     32  C   UNL     1      -3.775  11.086  16.138  0.00  0.00    +0.000 C 
ENDBRANCH  25  27
ENDBRANCH  21  25
ENDBRANCH   5  21
TORSDOF 6
ENDMDL
MODEL 4
REMARK VINA RESULT:      -8.4      3.495      8.572
REMARK  Name = 
REMARK  8 active torsions:
REMARK  status: ('A' for Active; 'I' for Inactive)
REMARK    1  A    between atoms: C_1  and  C_2
REMARK    2  A    between atoms: C_4  and  C_5
REMARK    3  A    between atoms: N_7  and  C_8
REMARK    4  A    between atoms: C_12  and  C_13
REMARK    5  A    between atoms: C_13  and  C_14
REMARK    6  A    between atoms: C_14  and  C_16
REMARK    7  A    between atoms: N_20  and  C_21
REMARK    8  A    between atoms: C_27  and  C_28
REMARK                            x       y       z     vdW  Elec       q    Type
REMARK                         _______ _______ _______ _____ _____    ______ ____
ROOT
ATOM      1  C   UNL     1       1.443   8.369  20.618  0.00  0.00    +0.000 A 
ATOM      2  C   UNL     1       1.077   8.482  21.960  0.00  0.00    +0.000 A 
ATOM      3  C   UNL     1       0.209   9.485  22.378  0.00  0.00    +0.000 A 
ATOM      4  C   UNL     1      -0.325  10.370  21.446  0.00  0.00    +0.000 A 
ATOM      5  C   UNL     1      -0.009  10.289  20.074  0.00  0.00    +0.000 A 
ATOM      6  C   UNL     1       0.925   9.294  19.698  0.00  0.00    +0.000 A 
ENDROOT
BRANCH   1   9
ATOM      7  C   UNL     1       2.060   5.989  20.237  0.00  0.00    +0.000 C 
ATOM      8  O   UNL     1       1.070   5.458  20.733  0.00  0.00    +0.000 OA
ATOM      9  N   UNL     1       2.293   7.353  20.135  0.00  0.00    +0.000 N 
ATOM     10  H   UNL     1       3.099   7.618  19.577  0.00  0.00    +0.000 HD
BRANCH   7  14
ATOM     11  C   UNL     1       3.462   1.698  18.190  0.00  0.00    +0.000 C 
ATOM     12  C   UNL     1       3.737   3.084  18.685  0.00  0.00    +0.000 A 
ATOM     13  C   UNL     1       2.740   3.857  19.215  0.00  0.00    +0.000 A 
ATOM     14  C   UNL     1       3.116   5.113  19.639  0.00  0.00    +0.000 A 
ATOM     15  N   UNL     1       4.372   5.612  19.549  0.00  0.00    +0.000 NA
ATOM     16  C   UNL     1       5.290   4.784  19.009  0.00  0.00    +0.000 A 
ATOM     17  N   UNL     1       5.001   3.534  18.582  0.00  0.00    +0.000 NA
BRANCH  16  18
ATOM     18  C   UNL     1       6.723   5.229  18.842  0.00  0.00    +0.000 C 
ATOM     19  C   UNL     1       7.364   5.069  17.479  0.00  0.00    +0.000 C 
ATOM     20  C   UNL     1       7.126   6.440  18.038  0.00  0.00    +0.000 C 
ENDBRANCH  16  18
ENDBRANCH   7  14
ENDBRANCH   1   9
BRANCH   5  21
ATOM     21  C   UNL     1      -0.735  11.242  19.008  0.00  0.00    +0.000 C 
ATOM     22  C   UNL     1      -1.461  10.595  17.796  0.00  0.00    +0.000 C 
ATOM     23  O   UNL     1      -2.618  11.453  18.008  0.00  0.00    +0.000 OA
ATOM     24  C   UNL     1      -2.185  11.669  19.374  0.00  0.00    +0.000 C 
BRANCH  21  25
ATOM     25  C   UNL     1       0.118  12.453  18.610  0.00  0.00    +0.000 C 
ATOM     26  F   UNL     1      -0.692  13.344  17.961  0.00  0.00    +0.000 F 
BRANCH  25  27
ATOM     27  C   UNL     1       0.817  13.084  19.769  0.00  0.00    +0.000 A 
ATOM     28  N   UNL     1       2.063  12.842  20.135  0.00  0.00    +0.000 NA
ATOM     29  N   UNL     1       2.358  13.623  21.223  0.00  0.00    +0.000 NA
ATOM     30  C   UNL     1       1.290  14.331  21.502  0.00  0.00    +0.000 A 
ATOM     31  N   UNL     1       0.294  14.019  20.626  0.00  0.00    +0.000 N 
ATOM     32  C   UNL     1      -1.021  14.603  20.633  0.00  0.00    +0.000 C 
ENDBRANCH  25  27
ENDBRANCH  21  25
ENDBRANCH   5  21
TORSDOF 6
ENDMDL
MODEL 5
REMARK VINA RESULT:      -8.4      1.046      1.180
REMARK  Name = 
REMARK  8 active torsions:
REMARK  status: ('A' for Active; 'I' for Inactive)
REMARK    1  A    between atoms: C_1  and  C_2
REMARK    2  A    between atoms: C_4  and  C_5
REMARK    3  A    between atoms: N_7  and  C_8
REMARK    4  A    between atoms: C_12  and  C_13
REMARK    5  A    between atoms: C_13  and  C_14
REMARK    6  A    between atoms: C_14  and  C_16
REMARK    7  A    between atoms: N_20  and  C_21
REMARK    8  A    between atoms: C_27  and  C_28
REMARK                            x       y       z     vdW  Elec       q    Type
REMARK                         _______ _______ _______ _____ _____    ______ ____
ROOT
ATOM      1  C   UNL     1       2.888   5.374  19.598  0.00  0.00    +0.000 A 
ATOM      2  C   UNL     1       2.926   4.177  20.314  0.00  0.00    +0.000 A 
ATOM      3  C   UNL     1       3.699   3.109  19.872  0.00  0.00    +0.000 A 
ATOM      4  C   UNL     1       4.465   3.241  18.717  0.00  0.00    +0.000 A 
ATOM      5  C   UNL     1       4.483   4.434  17.966  0.00  0.00    +0.000 A 
ATOM      6  C   UNL     1       3.636   5.477  18.415  0.00  0.00    +0.000 A 
ENDROOT
BRANCH   1   9
ATOM      7  C   UNL     1       2.104   7.724  19.368  0.00  0.00    +0.000 C 
ATOM      8  O   UNL     1       2.677   8.010  18.320  0.00  0.00    +0.000 OA
ATOM      9  N   UNL     1       2.147   6.498  20.017  0.00  0.00    +0.000 N 
ATOM     10  H   UNL     1       1.507   6.396  20.799  0.00  0.00    +0.000 HD
BRANCH   7  14
ATOM     11  C   UNL     1      -0.127   9.602  23.376  0.00  0.00    +0.000 C 
ATOM     12  C   UNL     1       0.202   9.609  21.915  0.00  0.00    +0.000 A 
ATOM     13  C   UNL     1       1.009   8.649  21.367  0.00  0.00    +0.000 A 
ATOM     14  C   UNL     1       1.237   8.759  20.012  0.00  0.00    +0.000 A 
ATOM     15  N   UNL     1       0.735   9.741  19.225  0.00  0.00    +0.000 NA
ATOM     16  C   UNL     1      -0.045  10.647  19.849  0.00  0.00    +0.000 A 
ATOM     17  N   UNL     1      -0.325  10.599  21.172  0.00  0.00    +0.000 NA
BRANCH  16  18
ATOM     18  C   UNL     1      -0.652  11.798  19.082  0.00  0.00    +0.000 C 
ATOM     19  C   UNL     1      -1.158  12.989  19.868  0.00  0.00    +0.000 C 
ATOM     20  C   UNL     1       0.013  13.143  18.944  0.00  0.00    +0.000 C 
ENDBRANCH  16  18
ENDBRANCH   7  14
ENDBRANCH   1   9
BRANCH   5  21
ATOM     21  C   UNL     1       5.469   4.599  16.714  0.00  0.00    +0.000 C 
ATOM     22  C   UNL     1       5.209   3.754  15.436  0.00  0.00    +0.000 C 
ATOM     23  O   UNL     1       5.398   4.928  14.597  0.00  0.00    +0.000 OA
ATOM     24  C   UNL     1       5.131   5.770  15.747  0.00  0.00    +0.000 C 
BRANCH  21  25
ATOM     25  C   UNL     1       6.950   4.622  17.116  0.00  0.00    +0.000 C 
ATOM     26  F   UNL     1       7.674   4.073  16.094  0.00  0.00    +0.000 F 
BRANCH  25  27
ATOM     27  C   UNL     1       7.439   5.988  17.469  0.00  0.00    +0.000 A 
ATOM     28  N   UNL     1       7.533   7.006  16.632  0.00  0.00    +0.000 NA
ATOM     29  N   UNL     1       7.997   8.096  17.322  0.00  0.00    +0.000 NA
ATOM     30  C   UNL     1       8.177   7.729  18.567  0.00  0.00    +0.000 A 
ATOM     31  N   UNL     1       7.852   6.413  18.706  0.00  0.00    +0.000 N 
ATOM     32  C   UNL     1       7.927   5.671  19.937  0.00  0.00    +0.000 C 
ENDBRANCH  25  27
ENDBRANCH  21  25
ENDBRANCH   5  21
TORSDOF 6
ENDMDL
MODEL 6
REMARK VINA RESULT:      -8.4      3.640      9.381
REMARK  Name = 
REMARK  8 active torsions:
REMARK  status: ('A' for Active; 'I' for Inactive)
REMARK    1  A    between atoms: C_1  and  C_2
REMARK    2  A    between atoms: C_4  and  C_5
REMARK    3  A    between atoms: N_7  and  C_8
REMARK    4  A    between atoms: C_12  and  C_13
REMARK    5  A    between atoms: C_13  and  C_14
REMARK    6  A    between atoms: C_14  and  C_16
REMARK    7  A    between atoms: N_20  and  C_21
REMARK    8  A    between atoms: C_27  and  C_28
REMARK                            x       y       z     vdW  Elec       q    Type
REMARK                         _______ _______ _______ _____ _____    ______ ____
ROOT
ATOM      1  C   UNL     1       0.076  10.129  18.677  0.00  0.00    +0.000 A 
ATOM      2  C   UNL     1      -1.060  10.185  17.868  0.00  0.00    +0.000 A 
ATOM      3  C   UNL     1      -1.766  11.372  17.716  0.00  0.00    +0.000 A 
ATOM      4  C   UNL     1      -1.323  12.527  18.353  0.00  0.00    +0.000 A 
ATOM      5  C   UNL     1      -0.170  12.536  19.165  0.00  0.00    +0.000 A 
ATOM      6  C   UNL     1       0.487  11.294  19.344  0.00  0.00    +0.000 A 
ENDROOT
BRANCH   1   9
ATOM      7  C   UNL     1       1.985   8.635  18.117  0.00  0.00    +0.000 C 
ATOM      8  O   UNL     1       2.510   9.323  17.246  0.00  0.00    +0.000 OA
ATOM      9  N   UNL     1       0.847   8.960  18.842  0.00  0.00    +0.000 N 
ATOM     10  H   UNL     1       0.629   8.338  19.615  0.00  0.00    +0.000 HD
BRANCH   7  14
ATOM     11  C   UNL     1       5.422   5.148  17.348  0.00  0.00    +0.000 C 
ATOM     12  C   UNL     1       4.254   5.718  18.091  0.00  0.00    +0.000 A 
ATOM     13  C   UNL     1       3.701   6.916  17.728  0.00  0.00    +0.000 A 
ATOM     14  C   UNL     1       2.629   7.336  18.486  0.00  0.00    +0.000 A 
ATOM     15  N   UNL     1       2.121   6.657  19.542  0.00  0.00    +0.000 NA
ATOM     16  C   UNL     1       2.730   5.489  19.832  0.00  0.00    +0.000 A 
ATOM     17  N   UNL     1       3.778   5.005  19.129  0.00  0.00    +0.000 NA
BRANCH  16  18
ATOM     18  C   UNL     1       2.264   4.647  20.996  0.00  0.00    +0.000 C 
ATOM     19  C   UNL     1       1.154   3.647  20.753  0.00  0.00    +0.000 C 
ATOM     20  C   UNL     1       2.530   3.167  21.106  0.00  0.00    +0.000 C 
ENDBRANCH  16  18
ENDBRANCH   7  14
ENDBRANCH   1   9
BRANCH   5  21
ATOM     21  C   UNL     1       0.387  13.906  19.784  0.00  0.00    +0.000 C 
ATOM     22  C   UNL     1       1.154  14.890  18.859  0.00  0.00    +0.000 C 
ATOM     23  O   UNL     1       0.385  16.011  19.382  0.00  0.00    +0.000 OA
ATOM     24  C   UNL     1      -0.632  15.080  19.829  0.00  0.00    +0.000 C 
BRANCH  21  25
ATOM     25  C   UNL     1       1.074  13.713  21.142  0.00  0.00    +0.000 C 
ATOM     26  F   UNL     1       2.292  14.333  21.090  0.00  0.00    +0.000 F 
BRANCH  25  27
ATOM     27  C   UNL     1       0.252  14.204  22.288  0.00  0.00    +0.000 A 
ATOM     28  N   UNL     1       0.412  15.363  22.902  0.00  0.00    +0.000 NA
ATOM     29  N   UNL     1      -0.540  15.472  23.883  0.00  0.00    +0.000 NA
ATOM     30  C   UNL     1      -1.267  14.381  23.851  0.00  0.00    +0.000 A 
ATOM     31  N   UNL     1      -0.801  13.551  22.875  0.00  0.00    +0.000 N 
ATOM     32  C   UNL     1      -1.357  12.263  22.556  0.00  0.00    +0.000 C 
ENDBRANCH  25  27
ENDBRANCH  21  25
ENDBRANCH   5  21
TORSDOF 6
ENDMDL
MODEL 7
REMARK VINA RESULT:      -8.4      3.517      8.803
REMARK  Name = 
REMARK  8 active torsions:
REMARK  status: ('A' for Active; 'I' for Inactive)
REMARK    1  A    between atoms: C_1  and  C_2
REMARK    2  A    between atoms: C_4  and  C_5
REMARK    3  A    between atoms: N_7  and  C_8
REMARK    4  A    between atoms: C_12  and  C_13
REMARK    5  A    between atoms: C_13  and  C_14
REMARK    6  A    between atoms: C_14  and  C_16
REMARK    7  A    between atoms: N_20  and  C_21
REMARK    8  A    between atoms: C_27  and  C_28
REMARK                            x       y       z     vdW  Elec       q    Type
REMARK                         _______ _______ _______ _____ _____    ______ ____
ROOT
ATOM      1  C   UNL     1       0.706   9.178  21.627  0.00  0.00    +0.000 A 
ATOM      2  C   UNL     1      -0.255   9.267  22.635  0.00  0.00    +0.000 A 
ATOM      3  C   UNL     1      -0.866  10.480  22.930  0.00  0.00    +0.000 A 
ATOM      4  C   UNL     1      -0.538  11.616  22.195  0.00  0.00    +0.000 A 
ATOM      5  C   UNL     1       0.409  11.581  21.151  0.00  0.00    +0.000 A 
ATOM      6  C   UNL     1       1.053  10.341  20.922  0.00  0.00    +0.000 A 
ENDROOT
BRANCH   1   9
ATOM      7  C   UNL     1       1.836   7.664  20.008  0.00  0.00    +0.000 C 
ATOM      8  O   UNL     1       1.839   8.407  19.030  0.00  0.00    +0.000 OA
ATOM      9  N   UNL     1       1.333   7.968  21.266  0.00  0.00    +0.000 N 
ATOM     10  H   UNL     1       1.533   7.287  21.992  0.00  0.00    +0.000 HD
BRANCH   7  14
ATOM     11  C   UNL     1       2.223   2.933  21.433  0.00  0.00    +0.000 C 
ATOM     12  C   UNL     1       2.617   4.097  20.578  0.00  0.00    +0.000 A 
ATOM     13  C   UNL     1       2.011   5.316  20.721  0.00  0.00    +0.000 A 
ATOM     14  C   UNL     1       2.461   6.311  19.879  0.00  0.00    +0.000 A 
ATOM     15  N   UNL     1       3.426   6.148  18.943  0.00  0.00    +0.000 NA
ATOM     16  C   UNL     1       3.964   4.913  18.868  0.00  0.00    +0.000 A 
ATOM     17  N   UNL     1       3.584   3.890  19.666  0.00  0.00    +0.000 NA
BRANCH  16  18
ATOM     18  C   UNL     1       5.038   4.602  17.853  0.00  0.00    +0.000 C 
ATOM     19  C   UNL     1       4.606   4.159  16.471  0.00  0.00    +0.000 C 
ATOM     20  C   UNL     1       5.316   5.467  16.650  0.00  0.00    +0.000 C 
ENDBRANCH  16  18
ENDBRANCH   7  14
ENDBRANCH   1   9
BRANCH   5  21
ATOM     21  C   UNL     1       0.674  12.875  20.242  0.00  0.00    +0.000 C 
ATOM     22  C   UNL     1       1.378  14.106  20.876  0.00  0.00    +0.000 C 
ATOM     23  O   UNL     1       2.258  14.221  19.722  0.00  0.00    +0.000 OA
ATOM     24  C   UNL     1       1.976  12.838  19.393  0.00  0.00    +0.000 C 
BRANCH  21  25
ATOM     25  C   UNL     1      -0.538  13.263  19.385  0.00  0.00    +0.000 C 
ATOM     26  F   UNL     1      -0.119  14.163  18.444  0.00  0.00    +0.000 F 
BRANCH  25  27
ATOM     27  C   UNL     1      -1.215  12.086  18.762  0.00  0.00    +0.000 A 
ATOM     28  N   UNL     1      -0.637  11.207  17.963  0.00  0.00    +0.000 NA
ATOM     29  N   UNL     1      -1.565  10.261  17.612  0.00  0.00    +0.000 NA
ATOM     30  C   UNL     1      -2.692  10.574  18.204  0.00  0.00    +0.000 A 
ATOM     31  N   UNL     1      -2.525  11.717  18.927  0.00  0.00    +0.000 N 
ATOM     32  C   UNL     1      -3.552  12.355  19.707  0.00  0.00    +0.000 C 
ENDBRANCH  25  27
ENDBRANCH  21  25
ENDBRANCH   5  21
TORSDOF 6
ENDMDL
MODEL 8
REMARK VINA RESULT:      -8.4      1.223      1.697
REMARK  Name = 
REMARK  8 active torsions:
REMARK  status: ('A' for Active; 'I' for Inactive)
REMARK    1  A    between atoms: C_1  and  C_2
REMARK    2  A    between atoms: C_4  and  C_5
REMARK    3  A    between atoms: N_7  and  C_8
REMARK    4  A    between atoms: C_12  and  C_13
REMARK    5  A    between atoms: C_13  and  C_14
REMARK    6  A    between atoms: C_14  and  C_16
REMARK    7  A    between atoms: N_20  and  C_21
REMARK    8  A    between atoms: C_27  and  C_28
REMARK                            x       y       z     vdW  Elec       q    Type
REMARK                         _______ _______ _______ _____ _____    ______ ____
ROOT
ATOM      1  C   UNL     1       2.623   5.350  18.618  0.00  0.00    +0.000 A 
ATOM      2  C   UNL     1       2.356   4.059  19.073  0.00  0.00    +0.000 A 
ATOM      3  C   UNL     1       2.998   2.960  18.512  0.00  0.00    +0.000 A 
ATOM      4  C   UNL     1       3.939   3.150  17.504  0.00  0.00    +0.000 A 
ATOM      5  C   UNL     1       4.265   4.434  17.020  0.00  0.00    +0.000 A 
ATOM      6  C   UNL     1       3.546   5.520  17.574  0.00  0.00    +0.000 A 
ENDROOT
BRANCH   1   9
ATOM      7  C   UNL     1       2.262   7.807  18.769  0.00  0.00    +0.000 C 
ATOM      8  O   UNL     1       3.001   8.160  17.854  0.00  0.00    +0.000 OA
ATOM      9  N   UNL     1       2.025   6.501  19.172  0.00  0.00    +0.000 N 
ATOM     10  H   UNL     1       1.283   6.383  19.856  0.00  0.00    +0.000 HD
BRANCH   7  14
ATOM     11  C   UNL     1      -0.040   9.378  22.867  0.00  0.00    +0.000 C 
ATOM     12  C   UNL     1       0.422   9.557  21.454  0.00  0.00    +0.000 A 
ATOM     13  C   UNL     1       1.129   8.577  20.812  0.00  0.00    +0.000 A 
ATOM     14  C   UNL     1       1.497   8.855  19.514  0.00  0.00    +0.000 A 
ATOM     15  N   UNL     1       1.218  10.013  18.867  0.00  0.00    +0.000 NA
ATOM     16  C   UNL     1       0.523  10.925  19.577  0.00  0.00    +0.000 A 
ATOM     17  N   UNL     1       0.116  10.720  20.850  0.00  0.00    +0.000 NA
BRANCH  16  18
ATOM     18  C   UNL     1       0.163  12.260  18.971  0.00  0.00    +0.000 C 
ATOM     19  C   UNL     1      -1.257  12.464  18.487  0.00  0.00    +0.000 C 
ATOM     20  C   UNL     1      -0.739  13.260  19.647  0.00  0.00    +0.000 C 
ENDBRANCH  16  18
ENDBRANCH   7  14
ENDBRANCH   1   9
BRANCH   5  21
ATOM     21  C   UNL     1       5.440   4.631  15.948  0.00  0.00    +0.000 C 
ATOM     22  C   UNL     1       6.294   3.400  15.535  0.00  0.00    +0.000 C 
ATOM     23  O   UNL     1       6.170   3.761  14.130  0.00  0.00    +0.000 OA
ATOM     24  C   UNL     1       5.003   4.557  14.457  0.00  0.00    +0.000 C 
BRANCH  21  25
ATOM     25  C   UNL     1       6.293   5.878  16.217  0.00  0.00    +0.000 C 
ATOM     26  F   UNL     1       5.474   6.972  16.146  0.00  0.00    +0.000 F 
BRANCH  25  27
ATOM     27  C   UNL     1       7.023   5.818  17.518  0.00  0.00    +0.000 A 
ATOM     28  N   UNL     1       7.160   4.740  18.269  0.00  0.00    +0.000 NA
ATOM     29  N   UNL     1       7.911   5.066  19.369  0.00  0.00    +0.000 NA
ATOM     30  C   UNL     1       8.223   6.336  19.271  0.00  0.00    +0.000 A 
ATOM     31  N   UNL     1       7.679   6.853  18.133  0.00  0.00    +0.000 N 
ATOM     32  C   UNL     1       7.817   8.219  17.703  0.00  0.00    +0.000 C 
ENDBRANCH  25  27
ENDBRANCH  21  25
ENDBRANCH   5  21
TORSDOF 6
ENDMDL
MODEL 9
REMARK VINA RESULT:      -8.3      3.492      8.421
REMARK  Name = 
REMARK  8 active torsions:
REMARK  status: ('A' for Active; 'I' for Inactive)
REMARK    1  A    between atoms: C_1  and  C_2
REMARK    2  A    between atoms: C_4  and  C_5
REMARK    3  A    between atoms: N_7  and  C_8
REMARK    4  A    between atoms: C_12  and  C_13
REMARK    5  A    between atoms: C_13  and  C_14
REMARK    6  A    between atoms: C_14  and  C_16
REMARK    7  A    between atoms: N_20  and  C_21
REMARK    8  A    between atoms: C_27  and  C_28
REMARK                            x       y       z     vdW  Elec       q    Type
REMARK                         _______ _______ _______ _____ _____    ______ ____
ROOT
ATOM      1  C   UNL     1       1.395   8.446  20.689  0.00  0.00    +0.000 A 
ATOM      2  C   UNL     1       1.076   8.538  22.044  0.00  0.00    +0.000 A 
ATOM      3  C   UNL     1       0.206   9.520  22.505  0.00  0.00    +0.000 A 
ATOM      4  C   UNL     1      -0.375  10.406  21.603  0.00  0.00    +0.000 A 
ATOM      5  C   UNL     1      -0.107  10.347  20.220  0.00  0.00    +0.000 A 
ATOM      6  C   UNL     1       0.830   9.372  19.799  0.00  0.00    +0.000 A 
ENDROOT
BRANCH   1   9
ATOM      7  C   UNL     1       2.021   6.082  20.227  0.00  0.00    +0.000 C 
ATOM      8  O   UNL     1       1.040   5.531  20.720  0.00  0.00    +0.000 OA
ATOM      9  N   UNL     1       2.245   7.451  20.165  0.00  0.00    +0.000 N 
ATOM     10  H   UNL     1       3.042   7.737  19.604  0.00  0.00    +0.000 HD
BRANCH   7  14
ATOM     11  C   UNL     1       3.394   1.913  17.925  0.00  0.00    +0.000 C 
ATOM     12  C   UNL     1       3.681   3.260  18.514  0.00  0.00    +0.000 A 
ATOM     13  C   UNL     1       2.686   4.011  19.079  0.00  0.00    +0.000 A 
ATOM     14  C   UNL     1       3.073   5.232  19.590  0.00  0.00    +0.000 A 
ATOM     15  N   UNL     1       4.338   5.715  19.551  0.00  0.00    +0.000 NA
ATOM     16  C   UNL     1       5.253   4.911  18.973  0.00  0.00    +0.000 A 
ATOM     17  N   UNL     1       4.953   3.696  18.460  0.00  0.00    +0.000 NA
BRANCH  16  18
ATOM     18  C   UNL     1       6.695   5.344  18.856  0.00  0.00    +0.000 C 
ATOM     19  C   UNL     1       7.430   5.033  17.570  0.00  0.00    +0.000 C 
ATOM     20  C   UNL     1       7.154   6.457  17.949  0.00  0.00    +0.000 C 
ENDBRANCH  16  18
ENDBRANCH   7  14
ENDBRANCH   1   9
BRANCH   5  21
ATOM     21  C   UNL     1      -0.886  11.298  19.192  0.00  0.00    +0.000 C 
ATOM     22  C   UNL     1      -1.843  10.654  18.151  0.00  0.00    +0.000 C 
ATOM     23  O   UNL     1      -2.867  11.644  18.451  0.00  0.00    +0.000 OA
ATOM     24  C   UNL     1      -2.217  11.904  19.721  0.00  0.00    +0.000 C 
BRANCH  21  25
ATOM     25  C   UNL     1       0.012  12.381  18.579  0.00  0.00    +0.000 C 
ATOM     26  F   UNL     1      -0.792  13.287  17.944  0.00  0.00    +0.000 F 
BRANCH  25  27
ATOM     27  C   UNL     1       0.903  13.039  19.581  0.00  0.00    +0.000 A 
ATOM     28  N   UNL     1       0.528  13.462  20.775  0.00  0.00    +0.000 NA
ATOM     29  N   UNL     1       1.622  13.985  21.416  0.00  0.00    +0.000 NA
ATOM     30  C   UNL     1       2.646  13.871  20.605  0.00  0.00    +0.000 A 
ATOM     31  N   UNL     1       2.242  13.294  19.438  0.00  0.00    +0.000 N 
ATOM     32  C   UNL     1       3.101  13.014  18.319  0.00  0.00    +0.000 C 
ENDBRANCH  25  27
ENDBRANCH  21  25
ENDBRANCH   5  21
TORSDOF 6
ENDMDL
