MODEL 1
REMARK VINA RESULT:      -9.9      0.000      0.000
REMARK  Name = 
REMARK  7 active torsions:
REMARK  status: ('A' for Active; 'I' for Inactive)
REMARK    1  A    between atoms: C_1  and  N_2
REMARK    2  A    between atoms: C_6  and  C_7
REMARK    3  A    between atoms: C_7  and  C_8
REMARK    4  A    between atoms: C_8  and  C_9
REMARK    5  A    between atoms: C_13  and  N_14
REMARK    6  A    between atoms: C_19  and  C_20
REMARK    7  A    between atoms: C_24  and  C_25
REMARK                            x       y       z     vdW  Elec       q    Type
REMARK                         _______ _______ _______ _____ _____    ______ ____
ROOT
ATOM      1  C   UNL     1       4.523   5.107  17.366  0.00  0.00    +0.000 A 
ATOM      2  C   UNL     1       3.624   4.021  17.372  0.00  0.00    +0.000 A 
ATOM      3  C   UNL     1       2.320   4.148  17.829  0.00  0.00    +0.000 A 
ATOM      4  C   UNL     1       1.869   5.379  18.283  0.00  0.00    +0.000 A 
ATOM      5  C   UNL     1       2.714   6.493  18.310  0.00  0.00    +0.000 A 
ATOM      6  C   UNL     1       4.033   6.340  17.850  0.00  0.00    +0.000 A 
ENDROOT
BRANCH   5   7
ATOM      7  N   UNL     1       2.266   7.724  18.849  0.00  0.00    +0.000 N 
ATOM      8  C   UNL     1       1.636   7.833  20.163  0.00  0.00    +0.000 C 
ATOM      9  C   UNL     1       0.911   9.128  20.069  0.00  0.00    +0.000 A 
ATOM     10  C   UNL     1       1.237   9.769  18.888  0.00  0.00    +0.000 A 
ATOM     11  C   UNL     1       0.675  10.954  18.485  0.00  0.00    +0.000 A 
ATOM     12  C   UNL     1      -0.274  11.494  19.334  0.00  0.00    +0.000 A 
ATOM     13  N   UNL     1      -0.579  10.896  20.529  0.00  0.00    +0.000 NA
ATOM     14  C   UNL     1      -0.002   9.719  20.907  0.00  0.00    +0.000 A 
ATOM     15  C   UNL     1       2.140   8.912  18.128  0.00  0.00    +0.000 C 
ATOM     16  O   UNL     1       2.611   9.254  17.058  0.00  0.00    +0.000 OA
BRANCH  12  17
ATOM     17  C   UNL     1      -1.012  12.751  18.945  0.00  0.00    +0.000 C 
ATOM     18  C   UNL     1      -0.945  13.981  19.826  0.00  0.00    +0.000 C 
ATOM     19  C   UNL     1      -0.235  13.971  18.508  0.00  0.00    +0.000 C 
ENDBRANCH  12  17
BRANCH  14  20
ATOM     20  C   UNL     1      -0.401   9.109  22.229  0.00  0.00    +0.000 C 
ATOM     21  C   UNL     1       0.453   9.354  23.455  0.00  0.00    +0.000 C 
ATOM     22  C   UNL     1      -0.908   9.975  23.360  0.00  0.00    +0.000 C 
ENDBRANCH  14  20
ENDBRANCH   5   7
BRANCH   1  23
ATOM     23  C   UNL     1       6.022   4.931  16.818  0.00  0.00    +0.000 C 
ATOM     24  C   UNL     1       7.059   4.441  17.875  0.00  0.00    +0.000 C 
ATOM     25  O   UNL     1       7.858   5.628  17.735  0.00  0.00    +0.000 OA
ATOM     26  C   UNL     1       6.947   6.176  16.761  0.00  0.00    +0.000 C 
BRANCH  23  27
ATOM     27  C   UNL     1       6.025   4.044  15.557  0.00  0.00    +0.000 C 
BRANCH  27  33
ATOM     28  C   UNL     1       5.745   3.296  12.462  0.00  0.00    +0.000 C 
ATOM     29  N   UNL     1       6.654   4.229  13.070  0.00  0.00    +0.000 N 
ATOM     30  C   UNL     1       7.625   4.913  12.398  0.00  0.00    +0.000 A 
ATOM     31  N   UNL     1       8.263   5.700  13.229  0.00  0.00    +0.000 NA
ATOM     32  N   UNL     1       7.718   5.516  14.475  0.00  0.00    +0.000 NA
ATOM     33  C   UNL     1       6.765   4.608  14.387  0.00  0.00    +0.000 A 
ENDBRANCH  27  33
ENDBRANCH  23  27
ENDBRANCH   1  23
TORSDOF 6
ENDMDL
MODEL 2
REMARK VINA RESULT:      -9.7      1.642      2.689
REMARK  Name = 
REMARK  7 active torsions:
REMARK  status: ('A' for Active; 'I' for Inactive)
REMARK    1  A    between atoms: C_1  and  N_2
REMARK    2  A    between atoms: C_6  and  C_7
REMARK    3  A    between atoms: C_7  and  C_8
REMARK    4  A    between atoms: C_8  and  C_9
REMARK    5  A    between atoms: C_13  and  N_14
REMARK    6  A    between atoms: C_19  and  C_20
REMARK    7  A    between atoms: C_24  and  C_25
REMARK                            x       y       z     vdW  Elec       q    Type
REMARK                         _______ _______ _______ _____ _____    ______ ____
ROOT
ATOM      1  C   UNL     1       4.372   4.650  17.288  0.00  0.00    +0.000 A 
ATOM      2  C   UNL     1       3.711   3.525  17.821  0.00  0.00    +0.000 A 
ATOM      3  C   UNL     1       2.634   3.647  18.689  0.00  0.00    +0.000 A 
ATOM      4  C   UNL     1       2.174   4.908  19.037  0.00  0.00    +0.000 A 
ATOM      5  C   UNL     1       2.791   6.064  18.550  0.00  0.00    +0.000 A 
ATOM      6  C   UNL     1       3.885   5.917  17.679  0.00  0.00    +0.000 A 
ENDROOT
BRANCH   5   7
ATOM      7  N   UNL     1       2.362   7.345  18.976  0.00  0.00    +0.000 N 
ATOM      8  C   UNL     1       1.724   7.578  20.269  0.00  0.00    +0.000 C 
ATOM      9  C   UNL     1       1.024   8.873  20.056  0.00  0.00    +0.000 A 
ATOM     10  C   UNL     1       1.371   9.403  18.827  0.00  0.00    +0.000 A 
ATOM     11  C   UNL     1       0.834  10.559  18.318  0.00  0.00    +0.000 A 
ATOM     12  C   UNL     1      -0.111  11.187  19.108  0.00  0.00    +0.000 A 
ATOM     13  N   UNL     1      -0.436  10.701  20.348  0.00  0.00    +0.000 NA
ATOM     14  C   UNL     1       0.116   9.551  20.832  0.00  0.00    +0.000 A 
ATOM     15  C   UNL     1       2.263   8.467  18.153  0.00  0.00    +0.000 C 
ATOM     16  O   UNL     1       2.749   8.706  17.062  0.00  0.00    +0.000 OA
BRANCH  12  17
ATOM     17  C   UNL     1      -0.823  12.418  18.605  0.00  0.00    +0.000 C 
ATOM     18  C   UNL     1      -1.140  13.558  19.551  0.00  0.00    +0.000 C 
ATOM     19  C   UNL     1      -0.076  13.728  18.511  0.00  0.00    +0.000 C 
ENDBRANCH  12  17
BRANCH  14  20
ATOM     20  C   UNL     1      -0.303   9.066  22.199  0.00  0.00    +0.000 C 
ATOM     21  C   UNL     1       0.511   9.453  23.414  0.00  0.00    +0.000 C 
ATOM     22  C   UNL     1      -0.860  10.027  23.224  0.00  0.00    +0.000 C 
ENDBRANCH  14  20
ENDBRANCH   5   7
BRANCH   1  23
ATOM     23  C   UNL     1       5.607   4.476  16.277  0.00  0.00    +0.000 C 
ATOM     24  C   UNL     1       5.617   5.464  15.071  0.00  0.00    +0.000 C 
ATOM     25  O   UNL     1       5.545   4.396  14.112  0.00  0.00    +0.000 OA
ATOM     26  C   UNL     1       5.510   3.404  15.158  0.00  0.00    +0.000 C 
BRANCH  23  27
ATOM     27  C   UNL     1       6.937   4.505  17.055  0.00  0.00    +0.000 C 
BRANCH  27  33
ATOM     28  C   UNL     1       7.974   5.598  19.875  0.00  0.00    +0.000 C 
ATOM     29  N   UNL     1       7.832   6.322  18.641  0.00  0.00    +0.000 N 
ATOM     30  C   UNL     1       8.061   7.659  18.498  0.00  0.00    +0.000 A 
ATOM     31  N   UNL     1       7.870   8.007  17.249  0.00  0.00    +0.000 NA
ATOM     32  N   UNL     1       7.488   6.884  16.560  0.00  0.00    +0.000 NA
ATOM     33  C   UNL     1       7.437   5.870  17.403  0.00  0.00    +0.000 A 
ENDBRANCH  27  33
ENDBRANCH  23  27
ENDBRANCH   1  23
TORSDOF 6
ENDMDL
MODEL 3
REMARK VINA RESULT:      -9.5      3.328     10.104
REMARK  Name = 
REMARK  7 active torsions:
REMARK  status: ('A' for Active; 'I' for Inactive)
REMARK    1  A    between atoms: C_1  and  N_2
REMARK    2  A    between atoms: C_6  and  C_7
REMARK    3  A    between atoms: C_7  and  C_8
REMARK    4  A    between atoms: C_8  and  C_9
REMARK    5  A    between atoms: C_13  and  N_14
REMARK    6  A    between atoms: C_19  and  C_20
REMARK    7  A    between atoms: C_24  and  C_25
REMARK                            x       y       z     vdW  Elec       q    Type
REMARK                         _______ _______ _______ _____ _____    ______ ____
ROOT
ATOM      1  C   UNL     1      -1.485  10.871  17.741  0.00  0.00    +0.000 A 
ATOM      2  C   UNL     1      -1.131  12.163  18.180  0.00  0.00    +0.000 A 
ATOM      3  C   UNL     1       0.062  12.414  18.843  0.00  0.00    +0.000 A 
ATOM      4  C   UNL     1       0.950  11.373  19.074  0.00  0.00    +0.000 A 
ATOM      5  C   UNL     1       0.655  10.067  18.671  0.00  0.00    +0.000 A 
ATOM      6  C   UNL     1      -0.563   9.834  18.009  0.00  0.00    +0.000 A 
ENDROOT
BRANCH   5   7
ATOM      7  N   UNL     1       1.533   9.000  18.983  0.00  0.00    +0.000 N 
ATOM      8  C   UNL     1       2.554   8.517  18.056  0.00  0.00    +0.000 C 
ATOM      9  C   UNL     1       2.839   7.152  18.572  0.00  0.00    +0.000 A 
ATOM     10  C   UNL     1       2.176   6.948  19.768  0.00  0.00    +0.000 A 
ATOM     11  C   UNL     1       2.189   5.759  20.452  0.00  0.00    +0.000 A 
ATOM     12  C   UNL     1       2.910   4.733  19.871  0.00  0.00    +0.000 A 
ATOM     13  N   UNL     1       3.610   4.928  18.709  0.00  0.00    +0.000 NA
ATOM     14  C   UNL     1       3.583   6.121  18.050  0.00  0.00    +0.000 A 
ATOM     15  C   UNL     1       1.384   8.135  20.068  0.00  0.00    +0.000 C 
ATOM     16  O   UNL     1       0.726   8.235  21.087  0.00  0.00    +0.000 OA
BRANCH  12  17
ATOM     17  C   UNL     1       2.920   3.361  20.499  0.00  0.00    +0.000 C 
ATOM     18  C   UNL     1       2.124   3.092  21.759  0.00  0.00    +0.000 C 
ATOM     19  C   UNL     1       1.673   2.509  20.456  0.00  0.00    +0.000 C 
ENDBRANCH  12  17
BRANCH  14  20
ATOM     20  C   UNL     1       4.363   6.258  16.765  0.00  0.00    +0.000 C 
ATOM     21  C   UNL     1       5.845   6.560  16.817  0.00  0.00    +0.000 C 
ATOM     22  C   UNL     1       5.377   5.211  16.360  0.00  0.00    +0.000 C 
ENDBRANCH  14  20
ENDBRANCH   5   7
BRANCH   1  23
ATOM     23  C   UNL     1      -2.867  10.615  16.966  0.00  0.00    +0.000 C 
ATOM     24  C   UNL     1      -2.803   9.539  15.839  0.00  0.00    +0.000 C 
ATOM     25  O   UNL     1      -3.181  10.486  14.825  0.00  0.00    +0.000 OA
ATOM     26  C   UNL     1      -3.249  11.555  15.790  0.00  0.00    +0.000 C 
BRANCH  23  27
ATOM     27  C   UNL     1      -3.995  10.324  17.975  0.00  0.00    +0.000 C 
BRANCH  27  33
ATOM     28  C   UNL     1      -4.007  12.679  20.137  0.00  0.00    +0.000 C 
ATOM     29  N   UNL     1      -4.989  12.400  19.124  0.00  0.00    +0.000 N 
ATOM     30  C   UNL     1      -6.160  13.083  18.973  0.00  0.00    +0.000 A 
ATOM     31  N   UNL     1      -6.819  12.603  17.947  0.00  0.00    +0.000 NA
ATOM     32  N   UNL     1      -6.081  11.571  17.426  0.00  0.00    +0.000 NA
ATOM     33  C   UNL     1      -4.988  11.427  18.151  0.00  0.00    +0.000 A 
ENDBRANCH  27  33
ENDBRANCH  23  27
ENDBRANCH   1  23
TORSDOF 6
ENDMDL
MODEL 4
REMARK VINA RESULT:      -9.3      2.477      9.131
REMARK  Name = 
REMARK  7 active torsions:
REMARK  status: ('A' for Active; 'I' for Inactive)
REMARK    1  A    between atoms: C_1  and  N_2
REMARK    2  A    between atoms: C_6  and  C_7
REMARK    3  A    between atoms: C_7  and  C_8
REMARK    4  A    between atoms: C_8  and  C_9
REMARK    5  A    between atoms: C_13  and  N_14
REMARK    6  A    between atoms: C_19  and  C_20
REMARK    7  A    between atoms: C_24  and  C_25
REMARK                            x       y       z     vdW  Elec       q    Type
REMARK                         _______ _______ _______ _____ _____    ______ ____
ROOT
ATOM      1  C   UNL     1      -0.206  10.915  20.280  0.00  0.00    +0.000 A 
ATOM      2  C   UNL     1      -0.161  10.800  21.684  0.00  0.00    +0.000 A 
ATOM      3  C   UNL     1       0.511   9.762  22.316  0.00  0.00    +0.000 A 
ATOM      4  C   UNL     1       1.176   8.812  21.556  0.00  0.00    +0.000 A 
ATOM      5  C   UNL     1       1.162   8.864  20.159  0.00  0.00    +0.000 A 
ATOM      6  C   UNL     1       0.468   9.918  19.539  0.00  0.00    +0.000 A 
ENDROOT
BRANCH   5   7
ATOM      7  N   UNL     1       1.777   7.844  19.393  0.00  0.00    +0.000 N 
ATOM      8  C   UNL     1       1.995   6.492  19.902  0.00  0.00    +0.000 C 
ATOM      9  C   UNL     1       3.068   5.978  19.009  0.00  0.00    +0.000 A 
ATOM     10  C   UNL     1       3.310   6.882  17.991  0.00  0.00    +0.000 A 
ATOM     11  C   UNL     1       4.293   6.719  17.047  0.00  0.00    +0.000 A 
ATOM     12  C   UNL     1       5.065   5.580  17.167  0.00  0.00    +0.000 A 
ATOM     13  N   UNL     1       4.813   4.651  18.142  0.00  0.00    +0.000 NA
ATOM     14  C   UNL     1       3.827   4.835  19.067  0.00  0.00    +0.000 A 
ATOM     15  C   UNL     1       2.458   8.049  18.192  0.00  0.00    +0.000 C 
ATOM     16  O   UNL     1       2.447   8.985  17.414  0.00  0.00    +0.000 OA
BRANCH  12  17
ATOM     17  C   UNL     1       6.225   5.347  16.230  0.00  0.00    +0.000 C 
ATOM     18  C   UNL     1       6.378   4.018  15.519  0.00  0.00    +0.000 C 
ATOM     19  C   UNL     1       5.976   5.235  14.744  0.00  0.00    +0.000 C 
ENDBRANCH  12  17
BRANCH  14  20
ATOM     20  C   UNL     1       3.618   3.778  20.124  0.00  0.00    +0.000 C 
ATOM     21  C   UNL     1       2.757   2.572  19.818  0.00  0.00    +0.000 C 
ATOM     22  C   UNL     1       4.238   2.407  19.981  0.00  0.00    +0.000 C 
ENDBRANCH  14  20
ENDBRANCH   5   7
BRANCH   1  23
ATOM     23  C   UNL     1      -0.981  12.133  19.578  0.00  0.00    +0.000 C 
ATOM     24  C   UNL     1      -0.280  12.724  18.317  0.00  0.00    +0.000 C 
ATOM     25  O   UNL     1      -0.153  14.024  18.917  0.00  0.00    +0.000 OA
ATOM     26  C   UNL     1      -0.775  13.568  20.135  0.00  0.00    +0.000 C 
BRANCH  23  27
ATOM     27  C   UNL     1      -2.442  11.736  19.291  0.00  0.00    +0.000 C 
BRANCH  27  33
ATOM     28  C   UNL     1      -5.026  12.094  17.442  0.00  0.00    +0.000 C 
ATOM     29  N   UNL     1      -3.839  11.330  17.169  0.00  0.00    +0.000 N 
ATOM     30  C   UNL     1      -3.658  10.551  16.064  0.00  0.00    +0.000 A 
ATOM     31  N   UNL     1      -2.465  10.010  16.098  0.00  0.00    +0.000 NA
ATOM     32  N   UNL     1      -1.856  10.422  17.257  0.00  0.00    +0.000 NA
ATOM     33  C   UNL     1      -2.694  11.197  17.919  0.00  0.00    +0.000 A 
ENDBRANCH  27  33
ENDBRANCH  23  27
ENDBRANCH   1  23
TORSDOF 6
ENDMDL
MODEL 5
REMARK VINA RESULT:      -9.2      3.557     10.139
REMARK  Name = 
REMARK  7 active torsions:
REMARK  status: ('A' for Active; 'I' for Inactive)
REMARK    1  A    between atoms: C_1  and  N_2
REMARK    2  A    between atoms: C_6  and  C_7
REMARK    3  A    between atoms: C_7  and  C_8
REMARK    4  A    between atoms: C_8  and  C_9
REMARK    5  A    between atoms: C_13  and  N_14
REMARK    6  A    between atoms: C_19  and  C_20
REMARK    7  A    between atoms: C_24  and  C_25
REMARK                            x       y       z     vdW  Elec       q    Type
REMARK                         _______ _______ _______ _____ _____    ______ ____
ROOT
ATOM      1  C   UNL     1      -1.616  10.758  17.690  0.00  0.00    +0.000 A 
ATOM      2  C   UNL     1      -1.394  12.033  18.248  0.00  0.00    +0.000 A 
ATOM      3  C   UNL     1      -0.257  12.324  18.989  0.00  0.00    +0.000 A 
ATOM      4  C   UNL     1       0.706  11.345  19.181  0.00  0.00    +0.000 A 
ATOM      5  C   UNL     1       0.542  10.057  18.661  0.00  0.00    +0.000 A 
ATOM      6  C   UNL     1      -0.621   9.782  17.921  0.00  0.00    +0.000 A 
ENDROOT
BRANCH   5   7
ATOM      7  N   UNL     1       1.494   9.044  18.931  0.00  0.00    +0.000 N 
ATOM      8  C   UNL     1       2.542   8.667  17.986  0.00  0.00    +0.000 C 
ATOM      9  C   UNL     1       2.924   7.307  18.450  0.00  0.00    +0.000 A 
ATOM     10  C   UNL     1       2.282   7.014  19.638  0.00  0.00    +0.000 A 
ATOM     11  C   UNL     1       2.381   5.804  20.279  0.00  0.00    +0.000 A 
ATOM     12  C   UNL     1       3.169   4.853  19.658  0.00  0.00    +0.000 A 
ATOM     13  N   UNL     1       3.849   5.139  18.503  0.00  0.00    +0.000 NA
ATOM     14  C   UNL     1       3.735   6.352  17.888  0.00  0.00    +0.000 A 
ATOM     15  C   UNL     1       1.410   8.131  19.984  0.00  0.00    +0.000 C 
ATOM     16  O   UNL     1       0.751   8.147  21.008  0.00  0.00    +0.000 OA
BRANCH  12  17
ATOM     17  C   UNL     1       3.279   3.464  20.235  0.00  0.00    +0.000 C 
ATOM     18  C   UNL     1       2.806   2.265  19.438  0.00  0.00    +0.000 C 
ATOM     19  C   UNL     1       4.272   2.487  19.650  0.00  0.00    +0.000 C 
ENDBRANCH  12  17
BRANCH  14  20
ATOM     20  C   UNL     1       4.499   6.590  16.607  0.00  0.00    +0.000 C 
ATOM     21  C   UNL     1       6.006   6.711  16.646  0.00  0.00    +0.000 C 
ATOM     22  C   UNL     1       5.373   5.508  16.015  0.00  0.00    +0.000 C 
ENDBRANCH  14  20
ENDBRANCH   5   7
BRANCH   1  23
ATOM     23  C   UNL     1      -2.935  10.455  16.826  0.00  0.00    +0.000 C 
ATOM     24  C   UNL     1      -2.763   9.377  15.713  0.00  0.00    +0.000 C 
ATOM     25  O   UNL     1      -3.102  10.307  14.670  0.00  0.00    +0.000 OA
ATOM     26  C   UNL     1      -3.267  11.378  15.622  0.00  0.00    +0.000 C 
BRANCH  23  27
ATOM     27  C   UNL     1      -4.118  10.133  17.761  0.00  0.00    +0.000 C 
BRANCH  27  33
ATOM     28  C   UNL     1      -6.933  10.027  19.272  0.00  0.00    +0.000 C 
ATOM     29  N   UNL     1      -6.438  11.047  18.389  0.00  0.00    +0.000 N 
ATOM     30  C   UNL     1      -7.155  12.137  17.988  0.00  0.00    +0.000 A 
ATOM     31  N   UNL     1      -6.416  12.887  17.209  0.00  0.00    +0.000 NA
ATOM     32  N   UNL     1      -5.197  12.271  17.075  0.00  0.00    +0.000 NA
ATOM     33  C   UNL     1      -5.217  11.146  17.764  0.00  0.00    +0.000 A 
ENDBRANCH  27  33
ENDBRANCH  23  27
ENDBRANCH   1  23
TORSDOF 6
ENDMDL
MODEL 6
REMARK VINA RESULT:      -9.2      2.446      9.197
REMARK  Name = 
REMARK  7 active torsions:
REMARK  status: ('A' for Active; 'I' for Inactive)
REMARK    1  A    between atoms: C_1  and  N_2
REMARK    2  A    between atoms: C_6  and  C_7
REMARK    3  A    between atoms: C_7  and  C_8
REMARK    4  A    between atoms: C_8  and  C_9
REMARK    5  A    between atoms: C_13  and  N_14
REMARK    6  A    between atoms: C_19  and  C_20
REMARK    7  A    between atoms: C_24  and  C_25
REMARK                            x       y       z     vdW  Elec       q    Type
REMARK                         _______ _______ _______ _____ _____    ______ ____
ROOT
ATOM      1  C   UNL     1      -0.042  10.819  20.616  0.00  0.00    +0.000 A 
ATOM      2  C   UNL     1      -0.054  10.572  22.004  0.00  0.00    +0.000 A 
ATOM      3  C   UNL     1       0.544   9.447  22.557  0.00  0.00    +0.000 A 
ATOM      4  C   UNL     1       1.190   8.539  21.732  0.00  0.00    +0.000 A 
ATOM      5  C   UNL     1       1.230   8.721  20.346  0.00  0.00    +0.000 A 
ATOM      6  C   UNL     1       0.611   9.863  19.807  0.00  0.00    +0.000 A 
ENDROOT
BRANCH   5   7
ATOM      7  N   UNL     1       1.824   7.747  19.507  0.00  0.00    +0.000 N 
ATOM      8  C   UNL     1       2.065   6.371  19.936  0.00  0.00    +0.000 C 
ATOM      9  C   UNL     1       3.109   5.912  18.982  0.00  0.00    +0.000 A 
ATOM     10  C   UNL     1       3.314   6.870  18.006  0.00  0.00    +0.000 A 
ATOM     11  C   UNL     1       4.265   6.763  17.023  0.00  0.00    +0.000 A 
ATOM     12  C   UNL     1       5.046   5.623  17.057  0.00  0.00    +0.000 A 
ATOM     13  N   UNL     1       4.830   4.642  17.989  0.00  0.00    +0.000 NA
ATOM     14  C   UNL     1       3.874   4.772  18.955  0.00  0.00    +0.000 A 
ATOM     15  C   UNL     1       2.464   8.019  18.297  0.00  0.00    +0.000 C 
ATOM     16  O   UNL     1       2.423   8.995  17.571  0.00  0.00    +0.000 OA
BRANCH  12  17
ATOM     17  C   UNL     1       6.175   5.447  16.071  0.00  0.00    +0.000 C 
ATOM     18  C   UNL     1       6.518   4.070  15.540  0.00  0.00    +0.000 C 
ATOM     19  C   UNL     1       5.867   5.074  14.640  0.00  0.00    +0.000 C 
ENDBRANCH  12  17
BRANCH  14  20
ATOM     20  C   UNL     1       3.705   3.659  19.961  0.00  0.00    +0.000 C 
ATOM     21  C   UNL     1       2.718   2.545  19.687  0.00  0.00    +0.000 C 
ATOM     22  C   UNL     1       4.189   2.260  19.656  0.00  0.00    +0.000 C 
ENDBRANCH  14  20
ENDBRANCH   5   7
BRANCH   1  23
ATOM     23  C   UNL     1      -0.731  12.135  20.009  0.00  0.00    +0.000 C 
ATOM     24  C   UNL     1      -2.288  12.162  20.089  0.00  0.00    +0.000 C 
ATOM     25  O   UNL     1      -2.424  12.242  18.660  0.00  0.00    +0.000 OA
ATOM     26  C   UNL     1      -0.994  12.202  18.480  0.00  0.00    +0.000 C 
BRANCH  23  27
ATOM     27  C   UNL     1      -0.101  13.397  20.630  0.00  0.00    +0.000 C 
BRANCH  27  33
ATOM     28  C   UNL     1       0.048  15.959  18.723  0.00  0.00    +0.000 C 
ATOM     29  N   UNL     1       1.095  15.027  19.040  0.00  0.00    +0.000 N 
ATOM     30  C   UNL     1       2.345  15.054  18.494  0.00  0.00    +0.000 A 
ATOM     31  N   UNL     1       3.070  14.090  19.007  0.00  0.00    +0.000 NA
ATOM     32  N   UNL     1       2.277  13.401  19.890  0.00  0.00    +0.000 NA
ATOM     33  C   UNL     1       1.076  13.947  19.892  0.00  0.00    +0.000 A 
ENDBRANCH  27  33
ENDBRANCH  23  27
ENDBRANCH   1  23
TORSDOF 6
ENDMDL
MODEL 7
REMARK VINA RESULT:      -9.2      3.388     10.129
REMARK  Name = 
REMARK  7 active torsions:
REMARK  status: ('A' for Active; 'I' for Inactive)
REMARK    1  A    between atoms: C_1  and  N_2
REMARK    2  A    between atoms: C_6  and  C_7
REMARK    3  A    between atoms: C_7  and  C_8
REMARK    4  A    between atoms: C_8  and  C_9
REMARK    5  A    between atoms: C_13  and  N_14
REMARK    6  A    between atoms: C_19  and  C_20
REMARK    7  A    between atoms: C_24  and  C_25
REMARK                            x       y       z     vdW  Elec       q    Type
REMARK                         _______ _______ _______ _____ _____    ______ ____
ROOT
ATOM      1  C   UNL     1      -1.459  11.249  18.086  0.00  0.00    +0.000 A 
ATOM      2  C   UNL     1      -0.993  12.523  18.470  0.00  0.00    +0.000 A 
ATOM      3  C   UNL     1       0.250  12.705  19.061  0.00  0.00    +0.000 A 
ATOM      4  C   UNL     1       1.075  11.610  19.272  0.00  0.00    +0.000 A 
ATOM      5  C   UNL     1       0.669  10.319  18.921  0.00  0.00    +0.000 A 
ATOM      6  C   UNL     1      -0.597  10.157  18.332  0.00  0.00    +0.000 A 
ENDROOT
BRANCH   5   7
ATOM      7  N   UNL     1       1.487   9.201  19.214  0.00  0.00    +0.000 N 
ATOM      8  C   UNL     1       2.472   8.670  18.273  0.00  0.00    +0.000 C 
ATOM      9  C   UNL     1       2.683   7.286  18.772  0.00  0.00    +0.000 A 
ATOM     10  C   UNL     1       2.019   7.107  19.972  0.00  0.00    +0.000 A 
ATOM     11  C   UNL     1       1.971   5.912  20.644  0.00  0.00    +0.000 A 
ATOM     12  C   UNL     1       2.627   4.853  20.045  0.00  0.00    +0.000 A 
ATOM     13  N   UNL     1       3.327   5.020  18.879  0.00  0.00    +0.000 NA
ATOM     14  C   UNL     1       3.362   6.221  18.232  0.00  0.00    +0.000 A 
ATOM     15  C   UNL     1       1.299   8.335  20.291  0.00  0.00    +0.000 C 
ATOM     16  O   UNL     1       0.656   8.461  21.318  0.00  0.00    +0.000 OA
BRANCH  12  17
ATOM     17  C   UNL     1       2.565   3.477  20.660  0.00  0.00    +0.000 C 
ATOM     18  C   UNL     1       1.252   2.931  21.181  0.00  0.00    +0.000 C 
ATOM     19  C   UNL     1       1.849   2.363  19.930  0.00  0.00    +0.000 C 
ENDBRANCH  12  17
BRANCH  14  20
ATOM     20  C   UNL     1       4.138   6.326  16.942  0.00  0.00    +0.000 C 
ATOM     21  C   UNL     1       5.614   6.658  16.980  0.00  0.00    +0.000 C 
ATOM     22  C   UNL     1       5.171   5.286  16.572  0.00  0.00    +0.000 C 
ENDBRANCH  14  20
ENDBRANCH   5   7
BRANCH   1  23
ATOM     23  C   UNL     1      -2.896  11.073  17.393  0.00  0.00    +0.000 C 
ATOM     24  C   UNL     1      -3.578   9.690  17.627  0.00  0.00    +0.000 C 
ATOM     25  O   UNL     1      -3.605   9.393  16.221  0.00  0.00    +0.000 OA
ATOM     26  C   UNL     1      -2.959  10.643  15.903  0.00  0.00    +0.000 C 
BRANCH  23  27
ATOM     27  C   UNL     1      -3.820  12.243  17.785  0.00  0.00    +0.000 C 
BRANCH  27  33
ATOM     28  C   UNL     1      -6.837  11.269  18.197  0.00  0.00    +0.000 C 
ATOM     29  N   UNL     1      -5.892  11.677  19.201  0.00  0.00    +0.000 N 
ATOM     30  C   UNL     1      -6.175  11.783  20.531  0.00  0.00    +0.000 A 
ATOM     31  N   UNL     1      -5.098  12.152  21.181  0.00  0.00    +0.000 NA
ATOM     32  N   UNL     1      -4.093  12.312  20.261  0.00  0.00    +0.000 NA
ATOM     33  C   UNL     1      -4.577  12.053  19.061  0.00  0.00    +0.000 A 
ENDBRANCH  27  33
ENDBRANCH  23  27
ENDBRANCH   1  23
TORSDOF 6
ENDMDL
MODEL 8
REMARK VINA RESULT:      -9.1      2.454      9.740
REMARK  Name = 
REMARK  7 active torsions:
REMARK  status: ('A' for Active; 'I' for Inactive)
REMARK    1  A    between atoms: C_1  and  N_2
REMARK    2  A    between atoms: C_6  and  C_7
REMARK    3  A    between atoms: C_7  and  C_8
REMARK    4  A    between atoms: C_8  and  C_9
REMARK    5  A    between atoms: C_13  and  N_14
REMARK    6  A    between atoms: C_19  and  C_20
REMARK    7  A    between atoms: C_24  and  C_25
REMARK                            x       y       z     vdW  Elec       q    Type
REMARK                         _______ _______ _______ _____ _____    ______ ____
ROOT
ATOM      1  C   UNL     1      -0.001  10.832  20.608  0.00  0.00    +0.000 A 
ATOM      2  C   UNL     1      -0.021  10.596  21.997  0.00  0.00    +0.000 A 
ATOM      3  C   UNL     1       0.560   9.468  22.561  0.00  0.00    +0.000 A 
ATOM      4  C   UNL     1       1.196   8.544  21.744  0.00  0.00    +0.000 A 
ATOM      5  C   UNL     1       1.243   8.716  20.357  0.00  0.00    +0.000 A 
ATOM      6  C   UNL     1       0.641   9.861  19.808  0.00  0.00    +0.000 A 
ENDROOT
BRANCH   5   7
ATOM      7  N   UNL     1       1.825   7.726  19.528  0.00  0.00    +0.000 N 
ATOM      8  C   UNL     1       2.054   6.353  19.971  0.00  0.00    +0.000 C 
ATOM      9  C   UNL     1       3.092   5.874  19.020  0.00  0.00    +0.000 A 
ATOM     10  C   UNL     1       3.303   6.819  18.033  0.00  0.00    +0.000 A 
ATOM     11  C   UNL     1       4.251   6.693  17.049  0.00  0.00    +0.000 A 
ATOM     12  C   UNL     1       5.021   5.546  17.093  0.00  0.00    +0.000 A 
ATOM     13  N   UNL     1       4.798   4.578  18.037  0.00  0.00    +0.000 NA
ATOM     14  C   UNL     1       3.847   4.726  19.003  0.00  0.00    +0.000 A 
ATOM     15  C   UNL     1       2.465   7.979  18.314  0.00  0.00    +0.000 C 
ATOM     16  O   UNL     1       2.431   8.948  17.577  0.00  0.00    +0.000 OA
BRANCH  12  17
ATOM     17  C   UNL     1       6.147   5.349  16.108  0.00  0.00    +0.000 C 
ATOM     18  C   UNL     1       6.310   4.025  15.390  0.00  0.00    +0.000 C 
ATOM     19  C   UNL     1       5.837   5.228  14.633  0.00  0.00    +0.000 C 
ENDBRANCH  12  17
BRANCH  14  20
ATOM     20  C   UNL     1       3.669   3.626  20.021  0.00  0.00    +0.000 C 
ATOM     21  C   UNL     1       2.687   2.508  19.752  0.00  0.00    +0.000 C 
ATOM     22  C   UNL     1       4.159   2.224  19.739  0.00  0.00    +0.000 C 
ENDBRANCH  14  20
ENDBRANCH   5   7
BRANCH   1  23
ATOM     23  C   UNL     1      -0.671  12.153  19.988  0.00  0.00    +0.000 C 
ATOM     24  C   UNL     1      -1.770  11.894  18.912  0.00  0.00    +0.000 C 
ATOM     25  O   UNL     1      -1.034  12.599  17.898  0.00  0.00    +0.000 OA
ATOM     26  C   UNL     1       0.046  12.873  18.814  0.00  0.00    +0.000 C 
BRANCH  23  27
ATOM     27  C   UNL     1      -1.177  13.070  21.118  0.00  0.00    +0.000 C 
BRANCH  27  33
ATOM     28  C   UNL     1      -1.281  16.138  20.224  0.00  0.00    +0.000 C 
ATOM     29  N   UNL     1      -0.300  15.487  21.049  0.00  0.00    +0.000 N 
ATOM     30  C   UNL     1       0.822  16.090  21.537  0.00  0.00    +0.000 A 
ATOM     31  N   UNL     1       1.494  15.238  22.273  0.00  0.00    +0.000 NA
ATOM     32  N   UNL     1       0.815  14.046  22.251  0.00  0.00    +0.000 NA
ATOM     33  C   UNL     1      -0.254  14.185  21.491  0.00  0.00    +0.000 A 
ENDBRANCH  27  33
ENDBRANCH  23  27
ENDBRANCH   1  23
TORSDOF 6
ENDMDL
MODEL 9
REMARK VINA RESULT:      -9.1      2.475      9.385
REMARK  Name = 
REMARK  7 active torsions:
REMARK  status: ('A' for Active; 'I' for Inactive)
REMARK    1  A    between atoms: C_1  and  N_2
REMARK    2  A    between atoms: C_6  and  C_7
REMARK    3  A    between atoms: C_7  and  C_8
REMARK    4  A    between atoms: C_8  and  C_9
REMARK    5  A    between atoms: C_13  and  N_14
REMARK    6  A    between atoms: C_19  and  C_20
REMARK    7  A    between atoms: C_24  and  C_25
REMARK                            x       y       z     vdW  Elec       q    Type
REMARK                         _______ _______ _______ _____ _____    ______ ____
ROOT
ATOM      1  C   UNL     1      -0.185  10.892  20.448  0.00  0.00    +0.000 A 
ATOM      2  C   UNL     1      -0.113  10.739  21.847  0.00  0.00    +0.000 A 
ATOM      3  C   UNL     1       0.568   9.683  22.438  0.00  0.00    +0.000 A 
ATOM      4  C   UNL     1       1.216   8.752  21.639  0.00  0.00    +0.000 A 
ATOM      5  C   UNL     1       1.175   8.843  20.245  0.00  0.00    +0.000 A 
ATOM      6  C   UNL     1       0.473   9.915  19.667  0.00  0.00    +0.000 A 
ENDROOT
BRANCH   5   7
ATOM      7  N   UNL     1       1.773   7.843  19.439  0.00  0.00    +0.000 N 
ATOM      8  C   UNL     1       2.017   6.482  19.914  0.00  0.00    +0.000 C 
ATOM      9  C   UNL     1       3.064   5.995  18.978  0.00  0.00    +0.000 A 
ATOM     10  C   UNL     1       3.268   6.920  17.971  0.00  0.00    +0.000 A 
ATOM     11  C   UNL     1       4.221   6.783  16.994  0.00  0.00    +0.000 A 
ATOM     12  C   UNL     1       5.005   5.648  17.067  0.00  0.00    +0.000 A 
ATOM     13  N   UNL     1       4.790   4.698  18.031  0.00  0.00    +0.000 NA
ATOM     14  C   UNL     1       3.832   4.856  18.989  0.00  0.00    +0.000 A 
ATOM     15  C   UNL     1       2.415   8.076  18.223  0.00  0.00    +0.000 C 
ATOM     16  O   UNL     1       2.372   9.028  17.464  0.00  0.00    +0.000 OA
BRANCH  12  17
ATOM     17  C   UNL     1       6.137   5.442  16.090  0.00  0.00    +0.000 C 
ATOM     18  C   UNL     1       7.312   4.561  16.457  0.00  0.00    +0.000 C 
ATOM     19  C   UNL     1       6.323   4.093  15.434  0.00  0.00    +0.000 C 
ENDBRANCH  12  17
BRANCH  14  20
ATOM     20  C   UNL     1       3.664   3.777  20.031  0.00  0.00    +0.000 C 
ATOM     21  C   UNL     1       2.664   2.664  19.803  0.00  0.00    +0.000 C 
ATOM     22  C   UNL     1       4.132   2.364  19.766  0.00  0.00    +0.000 C 
ENDBRANCH  14  20
ENDBRANCH   5   7
BRANCH   1  23
ATOM     23  C   UNL     1      -0.970  12.131  19.795  0.00  0.00    +0.000 C 
ATOM     24  C   UNL     1      -2.515  11.949  19.684  0.00  0.00    +0.000 C 
ATOM     25  O   UNL     1      -2.491  12.070  18.252  0.00  0.00    +0.000 OA
ATOM     26  C   UNL     1      -1.058  12.227  18.248  0.00  0.00    +0.000 C 
BRANCH  23  27
ATOM     27  C   UNL     1      -0.595  13.437  20.521  0.00  0.00    +0.000 C 
BRANCH  27  33
ATOM     28  C   UNL     1       2.482  13.502  19.655  0.00  0.00    +0.000 C 
ATOM     29  N   UNL     1       1.458  14.470  19.366  0.00  0.00    +0.000 N 
ATOM     30  C   UNL     1       1.671  15.648  18.711  0.00  0.00    +0.000 A 
ATOM     31  N   UNL     1       0.536  16.290  18.584  0.00  0.00    +0.000 NA
ATOM     32  N   UNL     1      -0.439  15.533  19.183  0.00  0.00    +0.000 NA
ATOM     33  C   UNL     1       0.120  14.446  19.681  0.00  0.00    +0.000 A 
ENDBRANCH  27  33
ENDBRANCH  23  27
ENDBRANCH   1  23
TORSDOF 6
ENDMDL
