MODEL 1
REMARK VINA RESULT:      -9.1      0.000      0.000
REMARK  Name = 
REMARK  5 active torsions:
REMARK  status: ('A' for Active; 'I' for Inactive)
REMARK    1  A    between atoms: C_1  and  N_2
REMARK    2  A    between atoms: C_6  and  C_7
REMARK    3  A    between atoms: C_10  and  C_11
REMARK    4  A    between atoms: C_15  and  N_16
REMARK    5  A    between atoms: C_23  and  C_24
REMARK                            x       y       z     vdW  Elec       q    Type
REMARK                         _______ _______ _______ _____ _____    ______ ____
ROOT
ATOM      1  C   UNL     1       2.903   6.491  18.677  0.00  0.00    +0.000 A 
ATOM      2  C   UNL     1       2.661   5.665  19.786  0.00  0.00    +0.000 A 
ATOM      3  C   UNL     1       1.871   6.086  20.871  0.00  0.00    +0.000 A 
ATOM      4  C   UNL     1       1.338   7.377  20.904  0.00  0.00    +0.000 A 
ATOM      5  C   UNL     1       1.517   8.203  19.808  0.00  0.00    +0.000 A 
ATOM      6  C   UNL     1       2.238   7.715  18.709  0.00  0.00    +0.000 A 
ENDROOT
BRANCH   5   7
ATOM      7  N   UNL     1       0.973   9.496  19.705  0.00  0.00    +0.000 N 
ATOM      8  C   UNL     1       0.438   9.954  18.443  0.00  0.00    +0.000 C 
ATOM      9  C   UNL     1      -0.503  11.004  18.896  0.00  0.00    +0.000 A 
ATOM     10  C   UNL     1      -0.037  11.520  20.099  0.00  0.00    +0.000 A 
ATOM     11  C   UNL     1      -0.540  12.689  20.634  0.00  0.00    +0.000 A 
ATOM     12  C   UNL     1      -1.598  13.297  19.954  0.00  0.00    +0.000 A 
ATOM     13  C   UNL     1      -2.208  12.650  18.869  0.00  0.00    +0.000 A 
ATOM     14  C   UNL     1      -1.692  11.444  18.353  0.00  0.00    +0.000 A 
ATOM     15  C   UNL     1       0.825  10.472  20.681  0.00  0.00    +0.000 C 
ATOM     16  O   UNL     1       1.232  10.498  21.839  0.00  0.00    +0.000 OA
BRANCH  14  17
ATOM     17  C   UNL     1      -2.540  10.573  17.452  0.00  0.00    +0.000 C 
ATOM     18  F   UNL     1      -2.890   9.377  18.002  0.00  0.00    +0.000 F 
ATOM     19  F   UNL     1      -3.737  11.178  17.163  0.00  0.00    +0.000 F 
ATOM     20  F   UNL     1      -1.967  10.288  16.259  0.00  0.00    +0.000 F 
ENDBRANCH  14  17
ENDBRANCH   5   7
BRANCH   1  24
ATOM     21  C   UNL     1       4.850   4.854  17.473  0.00  0.00    +0.000 C 
ATOM     22  C   UNL     1       5.969   5.825  17.926  0.00  0.00    +0.000 C 
ATOM     23  C   UNL     1       5.162   6.968  17.287  0.00  0.00    +0.000 C 
ATOM     24  C   UNL     1       3.877   6.099  17.471  0.00  0.00    +0.000 C 
BRANCH  21  30
ATOM     25  C   UNL     1       2.579   2.568  17.413  0.00  0.00    +0.000 C 
ATOM     26  N   UNL     1       3.660   2.683  18.338  0.00  0.00    +0.000 N 
ATOM     27  C   UNL     1       3.907   1.864  19.394  0.00  0.00    +0.000 A 
ATOM     28  N   UNL     1       4.961   2.277  20.063  0.00  0.00    +0.000 NA
ATOM     29  N   UNL     1       5.401   3.402  19.438  0.00  0.00    +0.000 NA
ATOM     30  C   UNL     1       4.618   3.664  18.408  0.00  0.00    +0.000 A 
ENDBRANCH  21  30
ENDBRANCH   1  24
TORSDOF 4
ENDMDL
MODEL 2
REMARK VINA RESULT:      -9.0      2.260      3.445
REMARK  Name = 
REMARK  5 active torsions:
REMARK  status: ('A' for Active; 'I' for Inactive)
REMARK    1  A    between atoms: C_1  and  N_2
REMARK    2  A    between atoms: C_6  and  C_7
REMARK    3  A    between atoms: C_10  and  C_11
REMARK    4  A    between atoms: C_15  and  N_16
REMARK    5  A    between atoms: C_23  and  C_24
REMARK                            x       y       z     vdW  Elec       q    Type
REMARK                         _______ _______ _______ _____ _____    ______ ____
ROOT
ATOM      1  C   UNL     1       2.252   6.568  19.696  0.00  0.00    +0.000 A 
ATOM      2  C   UNL     1       2.544   6.909  18.366  0.00  0.00    +0.000 A 
ATOM      3  C   UNL     1       2.244   8.178  17.838  0.00  0.00    +0.000 A 
ATOM      4  C   UNL     1       1.585   9.134  18.616  0.00  0.00    +0.000 A 
ATOM      5  C   UNL     1       1.322   8.849  19.945  0.00  0.00    +0.000 A 
ATOM      6  C   UNL     1       1.716   7.606  20.457  0.00  0.00    +0.000 A 
ENDROOT
BRANCH   5   7
ATOM      7  N   UNL     1       0.722   9.758  20.836  0.00  0.00    +0.000 N 
ATOM      8  C   UNL     1       1.069  11.160  20.775  0.00  0.00    +0.000 C 
ATOM      9  C   UNL     1      -0.131  11.777  21.385  0.00  0.00    +0.000 A 
ATOM     10  C   UNL     1      -0.694  10.863  22.265  0.00  0.00    +0.000 A 
ATOM     11  C   UNL     1      -1.657  11.232  23.182  0.00  0.00    +0.000 A 
ATOM     12  C   UNL     1      -2.103  12.556  23.140  0.00  0.00    +0.000 A 
ATOM     13  C   UNL     1      -1.694  13.408  22.104  0.00  0.00    +0.000 A 
ATOM     14  C   UNL     1      -0.726  13.001  21.162  0.00  0.00    +0.000 A 
ATOM     15  C   UNL     1      -0.233   9.533  21.817  0.00  0.00    +0.000 C 
ATOM     16  O   UNL     1      -0.706   8.479  22.231  0.00  0.00    +0.000 OA
BRANCH  14  17
ATOM     17  C   UNL     1      -0.562  13.755  19.860  0.00  0.00    +0.000 C 
ATOM     18  F   UNL     1      -0.922  13.044  18.755  0.00  0.00    +0.000 F 
ATOM     19  F   UNL     1      -1.367  14.866  19.827  0.00  0.00    +0.000 F 
ATOM     20  F   UNL     1       0.696  14.199  19.632  0.00  0.00    +0.000 F 
ENDBRANCH  14  17
ENDBRANCH   5   7
BRANCH   1  24
ATOM     21  C   UNL     1       3.135   3.901  19.534  0.00  0.00    +0.000 C 
ATOM     22  C   UNL     1       1.696   3.428  19.207  0.00  0.00    +0.000 C 
ATOM     23  C   UNL     1       1.219   4.197  20.452  0.00  0.00    +0.000 C 
ATOM     24  C   UNL     1       2.478   5.109  20.312  0.00  0.00    +0.000 C 
BRANCH  21  30
ATOM     25  C   UNL     1       6.045   5.266  19.303  0.00  0.00    +0.000 C 
ATOM     26  N   UNL     1       5.281   4.686  18.247  0.00  0.00    +0.000 N 
ATOM     27  C   UNL     1       5.627   4.639  16.934  0.00  0.00    +0.000 A 
ATOM     28  N   UNL     1       4.678   4.069  16.225  0.00  0.00    +0.000 NA
ATOM     29  N   UNL     1       3.681   3.752  17.094  0.00  0.00    +0.000 NA
ATOM     30  C   UNL     1       4.026   4.132  18.311  0.00  0.00    +0.000 A 
ENDBRANCH  21  30
ENDBRANCH   1  24
TORSDOF 4
ENDMDL
MODEL 3
REMARK VINA RESULT:      -9.0      3.443      8.400
REMARK  Name = 
REMARK  5 active torsions:
REMARK  status: ('A' for Active; 'I' for Inactive)
REMARK    1  A    between atoms: C_1  and  N_2
REMARK    2  A    between atoms: C_6  and  C_7
REMARK    3  A    between atoms: C_10  and  C_11
REMARK    4  A    between atoms: C_15  and  N_16
REMARK    5  A    between atoms: C_23  and  C_24
REMARK                            x       y       z     vdW  Elec       q    Type
REMARK                         _______ _______ _______ _____ _____    ______ ____
ROOT
ATOM      1  C   UNL     1       0.307  10.329  19.931  0.00  0.00    +0.000 A 
ATOM      2  C   UNL     1      -0.029  10.298  21.294  0.00  0.00    +0.000 A 
ATOM      3  C   UNL     1       0.360   9.239  22.134  0.00  0.00    +0.000 A 
ATOM      4  C   UNL     1       1.056   8.142  21.619  0.00  0.00    +0.000 A 
ATOM      5  C   UNL     1       1.445   8.159  20.290  0.00  0.00    +0.000 A 
ATOM      6  C   UNL     1       1.113   9.273  19.508  0.00  0.00    +0.000 A 
ENDROOT
BRANCH   5   7
ATOM      7  N   UNL     1       2.202   7.141  19.684  0.00  0.00    +0.000 N 
ATOM      8  C   UNL     1       2.288   5.840  20.306  0.00  0.00    +0.000 C 
ATOM      9  C   UNL     1       2.615   4.987  19.140  0.00  0.00    +0.000 A 
ATOM     10  C   UNL     1       3.293   5.762  18.208  0.00  0.00    +0.000 A 
ATOM     11  C   UNL     1       3.965   5.198  17.142  0.00  0.00    +0.000 A 
ATOM     12  C   UNL     1       3.873   3.811  16.993  0.00  0.00    +0.000 A 
ATOM     13  C   UNL     1       3.004   3.068  17.805  0.00  0.00    +0.000 A 
ATOM     14  C   UNL     1       2.308   3.669  18.874  0.00  0.00    +0.000 A 
ATOM     15  C   UNL     1       2.912   7.160  18.491  0.00  0.00    +0.000 C 
ATOM     16  O   UNL     1       3.153   8.094  17.732  0.00  0.00    +0.000 OA
BRANCH  14  17
ATOM     17  C   UNL     1       1.118   2.973  19.499  0.00  0.00    +0.000 C 
ATOM     18  F   UNL     1       0.393   2.219  18.626  0.00  0.00    +0.000 F 
ATOM     19  F   UNL     1       1.515   2.087  20.467  0.00  0.00    +0.000 F 
ATOM     20  F   UNL     1       0.239   3.811  20.097  0.00  0.00    +0.000 F 
ENDBRANCH  14  17
ENDBRANCH   5   7
BRANCH   1  24
ATOM     21  C   UNL     1       0.016  13.007  19.118  0.00  0.00    +0.000 C 
ATOM     22  C   UNL     1      -1.412  13.051  19.716  0.00  0.00    +0.000 C 
ATOM     23  C   UNL     1      -1.727  11.775  18.916  0.00  0.00    +0.000 C 
ATOM     24  C   UNL     1      -0.199  11.456  18.915  0.00  0.00    +0.000 C 
BRANCH  21  30
ATOM     25  C   UNL     1       3.090  13.748  18.492  0.00  0.00    +0.000 C 
ATOM     26  N   UNL     1       2.409  13.886  19.738  0.00  0.00    +0.000 N 
ATOM     27  C   UNL     1       2.948  14.320  20.907  0.00  0.00    +0.000 A 
ATOM     28  N   UNL     1       2.053  14.288  21.870  0.00  0.00    +0.000 NA
ATOM     29  N   UNL     1       0.908  13.805  21.319  0.00  0.00    +0.000 NA
ATOM     30  C   UNL     1       1.114  13.545  20.041  0.00  0.00    +0.000 A 
ENDBRANCH  21  30
ENDBRANCH   1  24
TORSDOF 4
ENDMDL
MODEL 4
REMARK VINA RESULT:      -9.0      1.637      2.897
REMARK  Name = 
REMARK  5 active torsions:
REMARK  status: ('A' for Active; 'I' for Inactive)
REMARK    1  A    between atoms: C_1  and  N_2
REMARK    2  A    between atoms: C_6  and  C_7
REMARK    3  A    between atoms: C_10  and  C_11
REMARK    4  A    between atoms: C_15  and  N_16
REMARK    5  A    between atoms: C_23  and  C_24
REMARK                            x       y       z     vdW  Elec       q    Type
REMARK                         _______ _______ _______ _____ _____    ______ ____
ROOT
ATOM      1  C   UNL     1       2.450   6.611  19.529  0.00  0.00    +0.000 A 
ATOM      2  C   UNL     1       2.889   6.881  18.224  0.00  0.00    +0.000 A 
ATOM      3  C   UNL     1       2.648   8.116  17.596  0.00  0.00    +0.000 A 
ATOM      4  C   UNL     1       1.905   9.108  18.241  0.00  0.00    +0.000 A 
ATOM      5  C   UNL     1       1.495   8.895  19.546  0.00  0.00    +0.000 A 
ATOM      6  C   UNL     1       1.831   7.685  20.167  0.00  0.00    +0.000 A 
ENDROOT
BRANCH   5   7
ATOM      7  N   UNL     1       0.798   9.847  20.313  0.00  0.00    +0.000 N 
ATOM      8  C   UNL     1       0.248  11.021  19.675  0.00  0.00    +0.000 C 
ATOM      9  C   UNL     1      -0.828  11.384  20.625  0.00  0.00    +0.000 A 
ATOM     10  C   UNL     1      -0.465  10.938  21.889  0.00  0.00    +0.000 A 
ATOM     11  C   UNL     1      -1.124  11.356  23.027  0.00  0.00    +0.000 A 
ATOM     12  C   UNL     1      -2.229  12.194  22.852  0.00  0.00    +0.000 A 
ATOM     13  C   UNL     1      -2.722  12.455  21.566  0.00  0.00    +0.000 A 
ATOM     14  C   UNL     1      -2.046  11.997  20.416  0.00  0.00    +0.000 A 
ATOM     15  C   UNL     1       0.503   9.844  21.669  0.00  0.00    +0.000 C 
ATOM     16  O   UNL     1       0.869   9.077  22.554  0.00  0.00    +0.000 OA
BRANCH  14  17
ATOM     17  C   UNL     1      -2.754  11.955  19.079  0.00  0.00    +0.000 C 
ATOM     18  F   UNL     1      -4.000  12.506  19.091  0.00  0.00    +0.000 F 
ATOM     19  F   UNL     1      -2.071  12.676  18.134  0.00  0.00    +0.000 F 
ATOM     20  F   UNL     1      -2.896  10.709  18.568  0.00  0.00    +0.000 F 
ENDBRANCH  14  17
ENDBRANCH   5   7
BRANCH   1  24
ATOM     21  C   UNL     1       3.252   3.914  19.573  0.00  0.00    +0.000 C 
ATOM     22  C   UNL     1       1.811   3.463  19.225  0.00  0.00    +0.000 C 
ATOM     23  C   UNL     1       1.316   4.326  20.398  0.00  0.00    +0.000 C 
ATOM     24  C   UNL     1       2.608   5.190  20.246  0.00  0.00    +0.000 C 
BRANCH  21  30
ATOM     25  C   UNL     1       6.176   5.249  19.341  0.00  0.00    +0.000 C 
ATOM     26  N   UNL     1       5.452   4.582  18.309  0.00  0.00    +0.000 N 
ATOM     27  C   UNL     1       5.849   4.421  17.020  0.00  0.00    +0.000 A 
ATOM     28  N   UNL     1       4.926   3.793  16.326  0.00  0.00    +0.000 NA
ATOM     29  N   UNL     1       3.894   3.554  17.179  0.00  0.00    +0.000 NA
ATOM     30  C   UNL     1       4.193   4.037  18.371  0.00  0.00    +0.000 A 
ENDBRANCH  21  30
ENDBRANCH   1  24
TORSDOF 4
ENDMDL
MODEL 5
REMARK VINA RESULT:      -8.9      3.965      8.682
REMARK  Name = 
REMARK  5 active torsions:
REMARK  status: ('A' for Active; 'I' for Inactive)
REMARK    1  A    between atoms: C_1  and  N_2
REMARK    2  A    between atoms: C_6  and  C_7
REMARK    3  A    between atoms: C_10  and  C_11
REMARK    4  A    between atoms: C_15  and  N_16
REMARK    5  A    between atoms: C_23  and  C_24
REMARK                            x       y       z     vdW  Elec       q    Type
REMARK                         _______ _______ _______ _____ _____    ______ ____
ROOT
ATOM      1  C   UNL     1       0.706   9.776  19.354  0.00  0.00    +0.000 A 
ATOM      2  C   UNL     1       0.646   9.525  20.733  0.00  0.00    +0.000 A 
ATOM      3  C   UNL     1       1.286   8.419  21.319  0.00  0.00    +0.000 A 
ATOM      4  C   UNL     1       1.967   7.490  20.527  0.00  0.00    +0.000 A 
ATOM      5  C   UNL     1       2.087   7.729  19.169  0.00  0.00    +0.000 A 
ATOM      6  C   UNL     1       1.508   8.889  18.637  0.00  0.00    +0.000 A 
ENDROOT
BRANCH   5   7
ATOM      7  N   UNL     1       2.802   6.898  18.288  0.00  0.00    +0.000 N 
ATOM      8  C   UNL     1       3.857   7.454  17.471  0.00  0.00    +0.000 C 
ATOM      9  C   UNL     1       4.675   6.249  17.203  0.00  0.00    +0.000 A 
ATOM     10  C   UNL     1       3.844   5.137  17.247  0.00  0.00    +0.000 A 
ATOM     11  C   UNL     1       4.250   3.904  16.776  0.00  0.00    +0.000 A 
ATOM     12  C   UNL     1       5.566   3.799  16.318  0.00  0.00    +0.000 A 
ATOM     13  C   UNL     1       6.461   4.865  16.486  0.00  0.00    +0.000 A 
ATOM     14  C   UNL     1       6.031   6.109  16.993  0.00  0.00    +0.000 A 
ATOM     15  C   UNL     1       2.683   5.532  18.069  0.00  0.00    +0.000 C 
ATOM     16  O   UNL     1       1.854   4.735  18.498  0.00  0.00    +0.000 OA
BRANCH  14  17
ATOM     17  C   UNL     1       7.037   7.112  17.514  0.00  0.00    +0.000 C 
ATOM     18  F   UNL     1       7.600   6.768  18.707  0.00  0.00    +0.000 F 
ATOM     19  F   UNL     1       8.102   7.235  16.658  0.00  0.00    +0.000 F 
ATOM     20  F   UNL     1       6.541   8.361  17.675  0.00  0.00    +0.000 F 
ENDBRANCH  14  17
ENDBRANCH   5   7
BRANCH   1  24
ATOM     21  C   UNL     1      -0.049  12.473  19.076  0.00  0.00    +0.000 C 
ATOM     22  C   UNL     1      -1.363  12.201  19.849  0.00  0.00    +0.000 C 
ATOM     23  C   UNL     1      -1.628  11.036  18.880  0.00  0.00    +0.000 C 
ATOM     24  C   UNL     1      -0.089  10.959  18.628  0.00  0.00    +0.000 C 
BRANCH  21  30
ATOM     25  C   UNL     1       2.941  13.347  18.249  0.00  0.00    +0.000 C 
ATOM     26  N   UNL     1       2.353  13.417  19.547  0.00  0.00    +0.000 N 
ATOM     27  C   UNL     1       2.964  13.832  20.688  0.00  0.00    +0.000 A 
ATOM     28  N   UNL     1       2.147  13.734  21.713  0.00  0.00    +0.000 NA
ATOM     29  N   UNL     1       0.980  13.227  21.232  0.00  0.00    +0.000 NA
ATOM     30  C   UNL     1       1.097  13.019  19.933  0.00  0.00    +0.000 A 
ENDBRANCH  21  30
ENDBRANCH   1  24
TORSDOF 4
ENDMDL
MODEL 6
REMARK VINA RESULT:      -8.8      3.371      8.584
REMARK  Name = 
REMARK  5 active torsions:
REMARK  status: ('A' for Active; 'I' for Inactive)
REMARK    1  A    between atoms: C_1  and  N_2
REMARK    2  A    between atoms: C_6  and  C_7
REMARK    3  A    between atoms: C_10  and  C_11
REMARK    4  A    between atoms: C_15  and  N_16
REMARK    5  A    between atoms: C_23  and  C_24
REMARK                            x       y       z     vdW  Elec       q    Type
REMARK                         _______ _______ _______ _____ _____    ______ ____
ROOT
ATOM      1  C   UNL     1       0.011  10.089  19.396  0.00  0.00    +0.000 A 
ATOM      2  C   UNL     1      -0.073  10.369  20.769  0.00  0.00    +0.000 A 
ATOM      3  C   UNL     1       0.601   9.595  21.731  0.00  0.00    +0.000 A 
ATOM      4  C   UNL     1       1.341   8.473  21.349  0.00  0.00    +0.000 A 
ATOM      5  C   UNL     1       1.484   8.193  20.000  0.00  0.00    +0.000 A 
ATOM      6  C   UNL     1       0.868   9.040  19.069  0.00  0.00    +0.000 A 
ENDROOT
BRANCH   5   7
ATOM      7  N   UNL     1       2.257   7.129  19.500  0.00  0.00    +0.000 N 
ATOM      8  C   UNL     1       2.300   5.873  20.214  0.00  0.00    +0.000 C 
ATOM      9  C   UNL     1       2.670   4.940  19.125  0.00  0.00    +0.000 A 
ATOM     10  C   UNL     1       3.398   5.643  18.174  0.00  0.00    +0.000 A 
ATOM     11  C   UNL     1       4.111   5.002  17.181  0.00  0.00    +0.000 A 
ATOM     12  C   UNL     1       4.010   3.609  17.123  0.00  0.00    +0.000 A 
ATOM     13  C   UNL     1       3.099   2.930  17.944  0.00  0.00    +0.000 A 
ATOM     14  C   UNL     1       2.362   3.609  18.937  0.00  0.00    +0.000 A 
ATOM     15  C   UNL     1       3.020   7.061  18.343  0.00  0.00    +0.000 C 
ATOM     16  O   UNL     1       3.305   7.937  17.533  0.00  0.00    +0.000 OA
BRANCH  14  17
ATOM     17  C   UNL     1       1.138   2.967  19.553  0.00  0.00    +0.000 C 
ATOM     18  F   UNL     1       0.384   2.248  18.674  0.00  0.00    +0.000 F 
ATOM     19  F   UNL     1       1.488   2.062  20.522  0.00  0.00    +0.000 F 
ATOM     20  F   UNL     1       0.294   3.843  20.148  0.00  0.00    +0.000 F 
ENDBRANCH  14  17
ENDBRANCH   5   7
BRANCH   1  24
ATOM     21  C   UNL     1      -1.266  12.384  18.385  0.00  0.00    +0.000 C 
ATOM     22  C   UNL     1      -2.635  11.863  18.887  0.00  0.00    +0.000 C 
ATOM     23  C   UNL     1      -2.339  10.542  18.158  0.00  0.00    +0.000 C 
ATOM     24  C   UNL     1      -0.818  10.873  18.275  0.00  0.00    +0.000 C 
BRANCH  21  30
ATOM     25  C   UNL     1       1.773  13.458  18.398  0.00  0.00    +0.000 C 
ATOM     26  N   UNL     1       0.728  13.824  19.298  0.00  0.00    +0.000 N 
ATOM     27  C   UNL     1       0.835  14.669  20.356  0.00  0.00    +0.000 A 
ATOM     28  N   UNL     1      -0.309  14.754  20.998  0.00  0.00    +0.000 NA
ATOM     29  N   UNL     1      -1.179  13.932  20.353  0.00  0.00    +0.000 NA
ATOM     30  C   UNL     1      -0.562  13.356  19.337  0.00  0.00    +0.000 A 
ENDBRANCH  21  30
ENDBRANCH   1  24
TORSDOF 4
ENDMDL
MODEL 7
REMARK VINA RESULT:      -8.7      3.351      8.655
REMARK  Name = 
REMARK  5 active torsions:
REMARK  status: ('A' for Active; 'I' for Inactive)
REMARK    1  A    between atoms: C_1  and  N_2
REMARK    2  A    between atoms: C_6  and  C_7
REMARK    3  A    between atoms: C_10  and  C_11
REMARK    4  A    between atoms: C_15  and  N_16
REMARK    5  A    between atoms: C_23  and  C_24
REMARK                            x       y       z     vdW  Elec       q    Type
REMARK                         _______ _______ _______ _____ _____    ______ ____
ROOT
ATOM      1  C   UNL     1       0.177  10.257  19.594  0.00  0.00    +0.000 A 
ATOM      2  C   UNL     1       0.027  10.426  20.979  0.00  0.00    +0.000 A 
ATOM      3  C   UNL     1       0.601   9.536  21.905  0.00  0.00    +0.000 A 
ATOM      4  C   UNL     1       1.301   8.409  21.468  0.00  0.00    +0.000 A 
ATOM      5  C   UNL     1       1.508   8.234  20.110  0.00  0.00    +0.000 A 
ATOM      6  C   UNL     1       0.995   9.191  19.224  0.00  0.00    +0.000 A 
ENDROOT
BRANCH   5   7
ATOM      7  N   UNL     1       2.252   7.173  19.562  0.00  0.00    +0.000 N 
ATOM      8  C   UNL     1       2.304   5.902  20.248  0.00  0.00    +0.000 C 
ATOM      9  C   UNL     1       2.626   4.988  19.128  0.00  0.00    +0.000 A 
ATOM     10  C   UNL     1       3.330   5.703  18.168  0.00  0.00    +0.000 A 
ATOM     11  C   UNL     1       4.002   5.075  17.139  0.00  0.00    +0.000 A 
ATOM     12  C   UNL     1       3.884   3.685  17.055  0.00  0.00    +0.000 A 
ATOM     13  C   UNL     1       2.991   2.999  17.892  0.00  0.00    +0.000 A 
ATOM     14  C   UNL     1       2.296   3.665  18.922  0.00  0.00    +0.000 A 
ATOM     15  C   UNL     1       2.975   7.121  18.379  0.00  0.00    +0.000 C 
ATOM     16  O   UNL     1       3.244   8.011  17.579  0.00  0.00    +0.000 OA
BRANCH  14  17
ATOM     17  C   UNL     1       1.085   3.024  19.565  0.00  0.00    +0.000 C 
ATOM     18  F   UNL     1       0.330   2.278  18.711  0.00  0.00    +0.000 F 
ATOM     19  F   UNL     1       1.455   2.143  20.549  0.00  0.00    +0.000 F 
ATOM     20  F   UNL     1       0.239   3.903  20.151  0.00  0.00    +0.000 F 
ENDBRANCH  14  17
ENDBRANCH   5   7
BRANCH   1  24
ATOM     21  C   UNL     1      -1.593  12.309  18.835  0.00  0.00    +0.000 C 
ATOM     22  C   UNL     1      -2.697  11.265  18.530  0.00  0.00    +0.000 C 
ATOM     23  C   UNL     1      -1.675  10.521  17.654  0.00  0.00    +0.000 C 
ATOM     24  C   UNL     1      -0.541  11.179  18.502  0.00  0.00    +0.000 C 
BRANCH  21  30
ATOM     25  C   UNL     1       0.430  14.318  20.338  0.00  0.00    +0.000 C 
ATOM     26  N   UNL     1      -0.811  13.819  20.833  0.00  0.00    +0.000 N 
ATOM     27  C   UNL     1      -1.352  14.071  22.054  0.00  0.00    +0.000 A 
ATOM     28  N   UNL     1      -2.486  13.422  22.201  0.00  0.00    +0.000 NA
ATOM     29  N   UNL     1      -2.681  12.717  21.054  0.00  0.00    +0.000 NA
ATOM     30  C   UNL     1      -1.673  12.936  20.230  0.00  0.00    +0.000 A 
ENDBRANCH  21  30
ENDBRANCH   1  24
TORSDOF 4
ENDMDL
MODEL 8
REMARK VINA RESULT:      -8.7      1.590      2.607
REMARK  Name = 
REMARK  5 active torsions:
REMARK  status: ('A' for Active; 'I' for Inactive)
REMARK    1  A    between atoms: C_1  and  N_2
REMARK    2  A    between atoms: C_6  and  C_7
REMARK    3  A    between atoms: C_10  and  C_11
REMARK    4  A    between atoms: C_15  and  N_16
REMARK    5  A    between atoms: C_23  and  C_24
REMARK                            x       y       z     vdW  Elec       q    Type
REMARK                         _______ _______ _______ _____ _____    ______ ____
ROOT
ATOM      1  C   UNL     1       2.687   6.421  19.266  0.00  0.00    +0.000 A 
ATOM      2  C   UNL     1       3.148   6.713  17.973  0.00  0.00    +0.000 A 
ATOM      3  C   UNL     1       2.934   7.965  17.370  0.00  0.00    +0.000 A 
ATOM      4  C   UNL     1       2.197   8.954  18.026  0.00  0.00    +0.000 A 
ATOM      5  C   UNL     1       1.766   8.719  19.321  0.00  0.00    +0.000 A 
ATOM      6  C   UNL     1       2.075   7.490  19.919  0.00  0.00    +0.000 A 
ENDROOT
BRANCH   5   7
ATOM      7  N   UNL     1       1.073   9.664  20.099  0.00  0.00    +0.000 N 
ATOM      8  C   UNL     1       0.516  10.842  19.473  0.00  0.00    +0.000 C 
ATOM      9  C   UNL     1      -0.554  11.196  20.433  0.00  0.00    +0.000 A 
ATOM     10  C   UNL     1      -0.181  10.741  21.691  0.00  0.00    +0.000 A 
ATOM     11  C   UNL     1      -0.833  11.151  22.837  0.00  0.00    +0.000 A 
ATOM     12  C   UNL     1      -1.941  11.988  22.675  0.00  0.00    +0.000 A 
ATOM     13  C   UNL     1      -2.444  12.257  21.394  0.00  0.00    +0.000 A 
ATOM     14  C   UNL     1      -1.774  11.808  20.236  0.00  0.00    +0.000 A 
ATOM     15  C   UNL     1       0.786   9.651  21.457  0.00  0.00    +0.000 C 
ATOM     16  O   UNL     1       1.161   8.879  22.334  0.00  0.00    +0.000 OA
BRANCH  14  17
ATOM     17  C   UNL     1      -2.491  11.773  18.904  0.00  0.00    +0.000 C 
ATOM     18  F   UNL     1      -2.675  10.520  18.403  0.00  0.00    +0.000 F 
ATOM     19  F   UNL     1      -3.759  12.286  19.010  0.00  0.00    +0.000 F 
ATOM     20  F   UNL     1      -1.881  12.486  17.929  0.00  0.00    +0.000 F 
ENDBRANCH  14  17
ENDBRANCH   5   7
BRANCH   1  24
ATOM     21  C   UNL     1       3.955   3.936  19.638  0.00  0.00    +0.000 C 
ATOM     22  C   UNL     1       2.964   3.266  18.654  0.00  0.00    +0.000 C 
ATOM     23  C   UNL     1       1.817   3.880  19.476  0.00  0.00    +0.000 C 
ATOM     24  C   UNL     1       2.814   4.982  19.954  0.00  0.00    +0.000 C 
BRANCH  21  30
ATOM     25  C   UNL     1       4.960   3.805  16.579  0.00  0.00    +0.000 C 
ATOM     26  N   UNL     1       5.672   4.336  17.695  0.00  0.00    +0.000 N 
ATOM     27  C   UNL     1       6.928   4.851  17.678  0.00  0.00    +0.000 A 
ATOM     28  N   UNL     1       7.296   5.216  18.887  0.00  0.00    +0.000 NA
ATOM     29  N   UNL     1       6.260   4.915  19.715  0.00  0.00    +0.000 NA
ATOM     30  C   UNL     1       5.283   4.372  19.012  0.00  0.00    +0.000 A 
ENDBRANCH  21  30
ENDBRANCH   1  24
TORSDOF 4
ENDMDL
MODEL 9
REMARK VINA RESULT:      -8.7      3.339      8.449
REMARK  Name = 
REMARK  5 active torsions:
REMARK  status: ('A' for Active; 'I' for Inactive)
REMARK    1  A    between atoms: C_1  and  N_2
REMARK    2  A    between atoms: C_6  and  C_7
REMARK    3  A    between atoms: C_10  and  C_11
REMARK    4  A    between atoms: C_15  and  N_16
REMARK    5  A    between atoms: C_23  and  C_24
REMARK                            x       y       z     vdW  Elec       q    Type
REMARK                         _______ _______ _______ _____ _____    ______ ____
ROOT
ATOM      1  C   UNL     1       0.043  10.250  19.728  0.00  0.00    +0.000 A 
ATOM      2  C   UNL     1      -0.012  10.457  21.115  0.00  0.00    +0.000 A 
ATOM      3  C   UNL     1       0.660   9.617  22.021  0.00  0.00    +0.000 A 
ATOM      4  C   UNL     1       1.367   8.501  21.566  0.00  0.00    +0.000 A 
ATOM      5  C   UNL     1       1.481   8.291  20.202  0.00  0.00    +0.000 A 
ATOM      6  C   UNL     1       0.870   9.201  19.329  0.00  0.00    +0.000 A 
ENDROOT
BRANCH   5   7
ATOM      7  N   UNL     1       2.220   7.239  19.631  0.00  0.00    +0.000 N 
ATOM      8  C   UNL     1       2.287   5.960  20.301  0.00  0.00    +0.000 C 
ATOM      9  C   UNL     1       2.597   5.061  19.166  0.00  0.00    +0.000 A 
ATOM     10  C   UNL     1       3.284   5.790  18.205  0.00  0.00    +0.000 A 
ATOM     11  C   UNL     1       3.944   5.177  17.159  0.00  0.00    +0.000 A 
ATOM     12  C   UNL     1       3.830   3.787  17.061  0.00  0.00    +0.000 A 
ATOM     13  C   UNL     1       2.952   3.088  17.902  0.00  0.00    +0.000 A 
ATOM     14  C   UNL     1       2.269   3.739  18.949  0.00  0.00    +0.000 A 
ATOM     15  C   UNL     1       2.927   7.204  18.437  0.00  0.00    +0.000 C 
ATOM     16  O   UNL     1       3.181   8.104  17.644  0.00  0.00    +0.000 OA
BRANCH  14  17
ATOM     17  C   UNL     1       1.070   3.086  19.602  0.00  0.00    +0.000 C 
ATOM     18  F   UNL     1       0.321   2.324  18.755  0.00  0.00    +0.000 F 
ATOM     19  F   UNL     1       1.456   2.216  20.590  0.00  0.00    +0.000 F 
ATOM     20  F   UNL     1       0.214   3.957  20.185  0.00  0.00    +0.000 F 
ENDBRANCH  14  17
ENDBRANCH   5   7
BRANCH   1  24
ATOM     21  C   UNL     1      -0.558  12.651  18.389  0.00  0.00    +0.000 C 
ATOM     22  C   UNL     1      -1.727  12.923  19.368  0.00  0.00    +0.000 C 
ATOM     23  C   UNL     1      -2.244  11.508  19.058  0.00  0.00    +0.000 C 
ATOM     24  C   UNL     1      -0.786  11.113  18.666  0.00  0.00    +0.000 C 
BRANCH  21  30
ATOM     25  C   UNL     1       0.100  15.768  18.877  0.00  0.00    +0.000 C 
ATOM     26  N   UNL     1       1.003  14.671  18.994  0.00  0.00    +0.000 N 
ATOM     27  C   UNL     1       2.326  14.744  19.297  0.00  0.00    +0.000 A 
ATOM     28  N   UNL     1       2.871  13.548  19.284  0.00  0.00    +0.000 NA
ATOM     29  N   UNL     1       1.883  12.675  18.949  0.00  0.00    +0.000 NA
ATOM     30  C   UNL     1       0.759  13.340  18.757  0.00  0.00    +0.000 A 
ENDBRANCH  21  30
ENDBRANCH   1  24
TORSDOF 4
ENDMDL
