MODEL 1
REMARK VINA RESULT:      -9.9      0.000      0.000
REMARK  Name = 
REMARK  6 active torsions:
REMARK  status: ('A' for Active; 'I' for Inactive)
REMARK    1  A    between atoms: C_1  and  N_2
REMARK    2  A    between atoms: C_6  and  C_7
REMARK    3  A    between atoms: N_10  and  C_11
REMARK    4  A    between atoms: C_12  and  C_13
REMARK    5  A    between atoms: C_17  and  N_18
REMARK    6  A    between atoms: C_25  and  C_26
REMARK                            x       y       z     vdW  Elec       q    Type
REMARK                         _______ _______ _______ _____ _____    ______ ____
ROOT
ATOM      1  C   UNL     1       2.981   6.149  18.978  0.00  0.00    +0.000 A 
ATOM      2  C   UNL     1       3.408   6.589  17.719  0.00  0.00    +0.000 A 
ATOM      3  C   UNL     1       3.131   7.886  17.284  0.00  0.00    +0.000 A 
ATOM      4  C   UNL     1       2.345   8.718  18.068  0.00  0.00    +0.000 A 
ATOM      5  C   UNL     1       1.882   8.294  19.323  0.00  0.00    +0.000 A 
ATOM      6  C   UNL     1       2.249   7.034  19.789  0.00  0.00    +0.000 A 
ENDROOT
BRANCH   5   7
ATOM      7  N   UNL     1       1.005   9.121  20.047  0.00  0.00    +0.000 N 
ATOM      8  C   UNL     1       0.162  10.060  19.349  0.00  0.00    +0.000 C 
ATOM      9  C   UNL     1      -0.338  10.921  20.452  0.00  0.00    +0.000 A 
ATOM     10  C   UNL     1      -0.181  10.225  21.661  0.00  0.00    +0.000 A 
ATOM     11  C   UNL     1      -0.674  10.728  22.857  0.00  0.00    +0.000 A 
ATOM     12  C   UNL     1      -1.332  11.950  22.816  0.00  0.00    +0.000 A 
ATOM     13  C   UNL     1      -1.407  12.695  21.618  0.00  0.00    +0.000 A 
ATOM     14  C   UNL     1      -0.874  12.195  20.417  0.00  0.00    +0.000 A 
ATOM     15  C   UNL     1       0.688   9.056  21.398  0.00  0.00    +0.000 C 
ATOM     16  O   UNL     1       1.087   8.306  22.278  0.00  0.00    +0.000 OA
BRANCH  14  17
ATOM     17  C   UNL     1      -0.807  13.080  19.196  0.00  0.00    +0.000 C 
ATOM     18  F   UNL     1      -1.526  12.623  18.129  0.00  0.00    +0.000 F 
ATOM     19  F   UNL     1      -1.259  14.342  19.433  0.00  0.00    +0.000 F 
ATOM     20  F   UNL     1       0.469  13.218  18.734  0.00  0.00    +0.000 F 
ENDBRANCH  14  17
ENDBRANCH   5   7
BRANCH   1  26
ATOM     21  C   UNL     1       4.448   4.046  19.392  0.00  0.00    +0.000 A 
ATOM     22  C   UNL     1       4.096   2.749  19.804  0.00  0.00    +0.000 A 
ATOM     23  N   UNL     1       2.823   2.660  20.177  0.00  0.00    +0.000 NA
ATOM     24  N   UNL     1       2.349   3.912  19.999  0.00  0.00    +0.000 N 
ATOM     25  C   UNL     1       0.963   4.161  20.329  0.00  0.00    +0.000 C 
ATOM     26  C   UNL     1       3.276   4.793  19.472  0.00  0.00    +0.000 A 
BRANCH  21  32
ATOM     27  C   UNL     1       5.689   4.071  16.484  0.00  0.00    +0.000 C 
ATOM     28  N   UNL     1       6.352   4.413  17.714  0.00  0.00    +0.000 N 
ATOM     29  C   UNL     1       7.601   4.947  17.812  0.00  0.00    +0.000 A 
ATOM     30  N   UNL     1       7.796   5.391  19.028  0.00  0.00    +0.000 NA
ATOM     31  N   UNL     1       6.644   5.155  19.743  0.00  0.00    +0.000 NA
ATOM     32  C   UNL     1       5.789   4.521  18.960  0.00  0.00    +0.000 A 
ENDBRANCH  21  32
ENDBRANCH   1  26
TORSDOF 4
ENDMDL
MODEL 2
REMARK VINA RESULT:      -9.6      0.902      1.175
REMARK  Name = 
REMARK  6 active torsions:
REMARK  status: ('A' for Active; 'I' for Inactive)
REMARK    1  A    between atoms: C_1  and  N_2
REMARK    2  A    between atoms: C_6  and  C_7
REMARK    3  A    between atoms: N_10  and  C_11
REMARK    4  A    between atoms: C_12  and  C_13
REMARK    5  A    between atoms: C_17  and  N_18
REMARK    6  A    between atoms: C_25  and  C_26
REMARK                            x       y       z     vdW  Elec       q    Type
REMARK                         _______ _______ _______ _____ _____    ______ ____
ROOT
ATOM      1  C   UNL     1       2.939   6.172  18.997  0.00  0.00    +0.000 A 
ATOM      2  C   UNL     1       3.290   6.565  17.699  0.00  0.00    +0.000 A 
ATOM      3  C   UNL     1       3.006   7.852  17.241  0.00  0.00    +0.000 A 
ATOM      4  C   UNL     1       2.286   8.723  18.046  0.00  0.00    +0.000 A 
ATOM      5  C   UNL     1       1.898   8.347  19.341  0.00  0.00    +0.000 A 
ATOM      6  C   UNL     1       2.275   7.096  19.824  0.00  0.00    +0.000 A 
ENDROOT
BRANCH   5   7
ATOM      7  N   UNL     1       1.084   9.213  20.093  0.00  0.00    +0.000 N 
ATOM      8  C   UNL     1       0.878  10.570  19.651  0.00  0.00    +0.000 C 
ATOM      9  C   UNL     1       0.258  11.203  20.845  0.00  0.00    +0.000 A 
ATOM     10  C   UNL     1      -0.267  10.188  21.660  0.00  0.00    +0.000 A 
ATOM     11  C   UNL     1      -1.019  10.481  22.789  0.00  0.00    +0.000 A 
ATOM     12  C   UNL     1      -1.233  11.820  23.086  0.00  0.00    +0.000 A 
ATOM     13  C   UNL     1      -0.627  12.841  22.321  0.00  0.00    +0.000 A 
ATOM     14  C   UNL     1       0.162  12.536  21.199  0.00  0.00    +0.000 A 
ATOM     15  C   UNL     1       0.266   8.896  21.171  0.00  0.00    +0.000 C 
ATOM     16  O   UNL     1       0.065   7.831  21.737  0.00  0.00    +0.000 OA
BRANCH  14  17
ATOM     17  C   UNL     1       0.942  13.627  20.507  0.00  0.00    +0.000 C 
ATOM     18  F   UNL     1       2.287  13.401  20.440  0.00  0.00    +0.000 F 
ATOM     19  F   UNL     1       0.538  13.834  19.224  0.00  0.00    +0.000 F 
ATOM     20  F   UNL     1       0.814  14.829  21.141  0.00  0.00    +0.000 F 
ENDBRANCH  14  17
ENDBRANCH   5   7
BRANCH   1  26
ATOM     21  C   UNL     1       4.416   4.083  19.438  0.00  0.00    +0.000 A 
ATOM     22  C   UNL     1       4.073   2.793  19.880  0.00  0.00    +0.000 A 
ATOM     23  N   UNL     1       2.805   2.709  20.269  0.00  0.00    +0.000 NA
ATOM     24  N   UNL     1       2.325   3.955  20.070  0.00  0.00    +0.000 N 
ATOM     25  C   UNL     1       0.941   4.206  20.410  0.00  0.00    +0.000 C 
ATOM     26  C   UNL     1       3.243   4.828  19.515  0.00  0.00    +0.000 A 
BRANCH  21  32
ATOM     27  C   UNL     1       5.618   4.071  16.513  0.00  0.00    +0.000 C 
ATOM     28  N   UNL     1       6.298   4.429  17.730  0.00  0.00    +0.000 N 
ATOM     29  C   UNL     1       7.547   4.965  17.805  0.00  0.00    +0.000 A 
ATOM     30  N   UNL     1       7.758   5.426  19.012  0.00  0.00    +0.000 NA
ATOM     31  N   UNL     1       6.616   5.197  19.745  0.00  0.00    +0.000 NA
ATOM     32  C   UNL     1       5.751   4.553  18.982  0.00  0.00    +0.000 A 
ENDBRANCH  21  32
ENDBRANCH   1  26
TORSDOF 4
ENDMDL
MODEL 3
REMARK VINA RESULT:      -9.5      0.732      1.002
REMARK  Name = 
REMARK  6 active torsions:
REMARK  status: ('A' for Active; 'I' for Inactive)
REMARK    1  A    between atoms: C_1  and  N_2
REMARK    2  A    between atoms: C_6  and  C_7
REMARK    3  A    between atoms: N_10  and  C_11
REMARK    4  A    between atoms: C_12  and  C_13
REMARK    5  A    between atoms: C_17  and  N_18
REMARK    6  A    between atoms: C_25  and  C_26
REMARK                            x       y       z     vdW  Elec       q    Type
REMARK                         _______ _______ _______ _____ _____    ______ ____
ROOT
ATOM      1  C   UNL     1       2.941   6.242  19.100  0.00  0.00    +0.000 A 
ATOM      2  C   UNL     1       3.400   6.742  17.875  0.00  0.00    +0.000 A 
ATOM      3  C   UNL     1       3.115   8.052  17.487  0.00  0.00    +0.000 A 
ATOM      4  C   UNL     1       2.291   8.837  18.278  0.00  0.00    +0.000 A 
ATOM      5  C   UNL     1       1.795   8.353  19.499  0.00  0.00    +0.000 A 
ATOM      6  C   UNL     1       2.169   7.080  19.924  0.00  0.00    +0.000 A 
ENDROOT
BRANCH   5   7
ATOM      7  N   UNL     1       0.882   9.135  20.228  0.00  0.00    +0.000 N 
ATOM      8  C   UNL     1      -0.361   9.542  19.620  0.00  0.00    +0.000 C 
ATOM      9  C   UNL     1      -0.855  10.577  20.566  0.00  0.00    +0.000 A 
ATOM     10  C   UNL     1      -0.205  10.395  21.797  0.00  0.00    +0.000 A 
ATOM     11  C   UNL     1      -0.552  11.137  22.917  0.00  0.00    +0.000 A 
ATOM     12  C   UNL     1      -1.570  12.071  22.776  0.00  0.00    +0.000 A 
ATOM     13  C   UNL     1      -2.159  12.321  21.517  0.00  0.00    +0.000 A 
ATOM     14  C   UNL     1      -1.778  11.589  20.380  0.00  0.00    +0.000 A 
ATOM     15  C   UNL     1       0.920   9.458  21.579  0.00  0.00    +0.000 C 
ATOM     16  O   UNL     1       1.735   9.176  22.446  0.00  0.00    +0.000 OA
BRANCH  14  17
ATOM     17  C   UNL     1      -2.288  11.993  19.018  0.00  0.00    +0.000 C 
ATOM     18  F   UNL     1      -3.401  12.782  19.045  0.00  0.00    +0.000 F 
ATOM     19  F   UNL     1      -1.366  12.681  18.291  0.00  0.00    +0.000 F 
ATOM     20  F   UNL     1      -2.635  10.913  18.260  0.00  0.00    +0.000 F 
ENDBRANCH  14  17
ENDBRANCH   5   7
BRANCH   1  26
ATOM     21  C   UNL     1       4.412   4.126  19.422  0.00  0.00    +0.000 A 
ATOM     22  C   UNL     1       4.066   2.817  19.799  0.00  0.00    +0.000 A 
ATOM     23  N   UNL     1       2.800   2.718  20.193  0.00  0.00    +0.000 NA
ATOM     24  N   UNL     1       2.325   3.975  20.062  0.00  0.00    +0.000 N 
ATOM     25  C   UNL     1       0.945   4.215  20.426  0.00  0.00    +0.000 C 
ATOM     26  C   UNL     1       3.243   4.871  19.546  0.00  0.00    +0.000 A 
BRANCH  21  32
ATOM     27  C   UNL     1       5.632   4.162  16.505  0.00  0.00    +0.000 C 
ATOM     28  N   UNL     1       6.301   4.510  17.730  0.00  0.00    +0.000 N 
ATOM     29  C   UNL     1       7.545   5.055  17.819  0.00  0.00    +0.000 A 
ATOM     30  N   UNL     1       7.745   5.501  19.034  0.00  0.00    +0.000 NA
ATOM     31  N   UNL     1       6.600   5.254  19.757  0.00  0.00    +0.000 NA
ATOM     32  C   UNL     1       5.746   4.613  18.980  0.00  0.00    +0.000 A 
ENDBRANCH  21  32
ENDBRANCH   1  26
TORSDOF 4
ENDMDL
MODEL 4
REMARK VINA RESULT:      -9.5      4.351      8.687
REMARK  Name = 
REMARK  6 active torsions:
REMARK  status: ('A' for Active; 'I' for Inactive)
REMARK    1  A    between atoms: C_1  and  N_2
REMARK    2  A    between atoms: C_6  and  C_7
REMARK    3  A    between atoms: N_10  and  C_11
REMARK    4  A    between atoms: C_12  and  C_13
REMARK    5  A    between atoms: C_17  and  N_18
REMARK    6  A    between atoms: C_25  and  C_26
REMARK                            x       y       z     vdW  Elec       q    Type
REMARK                         _______ _______ _______ _____ _____    ______ ____
ROOT
ATOM      1  C   UNL     1       0.545  10.424  20.213  0.00  0.00    +0.000 A 
ATOM      2  C   UNL     1       0.268  10.379  21.586  0.00  0.00    +0.000 A 
ATOM      3  C   UNL     1       0.669   9.289  22.360  0.00  0.00    +0.000 A 
ATOM      4  C   UNL     1       1.265   8.197  21.748  0.00  0.00    +0.000 A 
ATOM      5  C   UNL     1       1.531   8.203  20.371  0.00  0.00    +0.000 A 
ATOM      6  C   UNL     1       1.218   9.337  19.626  0.00  0.00    +0.000 A 
ENDROOT
BRANCH   5   7
ATOM      7  N   UNL     1       2.043   7.042  19.764  0.00  0.00    +0.000 N 
ATOM      8  C   UNL     1       1.625   5.743  20.233  0.00  0.00    +0.000 C 
ATOM      9  C   UNL     1       2.605   4.838  19.578  0.00  0.00    +0.000 A 
ATOM     10  C   UNL     1       3.175   5.517  18.489  0.00  0.00    +0.000 A 
ATOM     11  C   UNL     1       4.038   4.881  17.609  0.00  0.00    +0.000 A 
ATOM     12  C   UNL     1       4.320   3.542  17.843  0.00  0.00    +0.000 A 
ATOM     13  C   UNL     1       3.823   2.884  18.989  0.00  0.00    +0.000 A 
ATOM     14  C   UNL     1       2.977   3.545  19.896  0.00  0.00    +0.000 A 
ATOM     15  C   UNL     1       2.808   6.947  18.609  0.00  0.00    +0.000 C 
ATOM     16  O   UNL     1       3.236   7.813  17.859  0.00  0.00    +0.000 OA
BRANCH  14  17
ATOM     17  C   UNL     1       2.605   2.882  21.200  0.00  0.00    +0.000 C 
ATOM     18  F   UNL     1       3.527   1.985  21.659  0.00  0.00    +0.000 F 
ATOM     19  F   UNL     1       2.422   3.773  22.213  0.00  0.00    +0.000 F 
ATOM     20  F   UNL     1       1.440   2.178  21.104  0.00  0.00    +0.000 F 
ENDBRANCH  14  17
ENDBRANCH   5   7
BRANCH   1  26
ATOM     21  C   UNL     1       0.554  12.900  19.432  0.00  0.00    +0.000 A 
ATOM     22  C   UNL     1      -0.309  13.592  18.565  0.00  0.00    +0.000 A 
ATOM     23  N   UNL     1      -1.165  12.784  17.946  0.00  0.00    +0.000 NA
ATOM     24  N   UNL     1      -0.853  11.560  18.425  0.00  0.00    +0.000 N 
ATOM     25  C   UNL     1      -1.612  10.431  17.933  0.00  0.00    +0.000 C 
ATOM     26  C   UNL     1       0.153  11.569  19.375  0.00  0.00    +0.000 A 
BRANCH  21  32
ATOM     27  C   UNL     1       3.360  13.983  18.455  0.00  0.00    +0.000 C 
ATOM     28  N   UNL     1       2.916  13.824  19.814  0.00  0.00    +0.000 N 
ATOM     29  C   UNL     1       3.590  14.253  20.917  0.00  0.00    +0.000 A 
ATOM     30  N   UNL     1       2.802  14.206  21.961  0.00  0.00    +0.000 NA
ATOM     31  N   UNL     1       1.578  13.745  21.532  0.00  0.00    +0.000 NA
ATOM     32  C   UNL     1       1.662  13.471  20.243  0.00  0.00    +0.000 A 
ENDBRANCH  21  32
ENDBRANCH   1  26
TORSDOF 4
ENDMDL
MODEL 5
REMARK VINA RESULT:      -9.3      3.654      8.262
REMARK  Name = 
REMARK  6 active torsions:
REMARK  status: ('A' for Active; 'I' for Inactive)
REMARK    1  A    between atoms: C_1  and  N_2
REMARK    2  A    between atoms: C_6  and  C_7
REMARK    3  A    between atoms: N_10  and  C_11
REMARK    4  A    between atoms: C_12  and  C_13
REMARK    5  A    between atoms: C_17  and  N_18
REMARK    6  A    between atoms: C_25  and  C_26
REMARK                            x       y       z     vdW  Elec       q    Type
REMARK                         _______ _______ _______ _____ _____    ______ ____
ROOT
ATOM      1  C   UNL     1       0.450  10.038  20.032  0.00  0.00    +0.000 A 
ATOM      2  C   UNL     1       0.088   9.943  21.382  0.00  0.00    +0.000 A 
ATOM      3  C   UNL     1       0.533   8.879  22.167  0.00  0.00    +0.000 A 
ATOM      4  C   UNL     1       1.264   7.855  21.583  0.00  0.00    +0.000 A 
ATOM      5  C   UNL     1       1.619   7.911  20.227  0.00  0.00    +0.000 A 
ATOM      6  C   UNL     1       1.255   9.027  19.477  0.00  0.00    +0.000 A 
ENDROOT
BRANCH   5   7
ATOM      7  N   UNL     1       2.272   6.812  19.641  0.00  0.00    +0.000 N 
ATOM      8  C   UNL     1       3.503   7.010  18.916  0.00  0.00    +0.000 C 
ATOM      9  C   UNL     1       3.673   5.711  18.214  0.00  0.00    +0.000 A 
ATOM     10  C   UNL     1       2.892   4.748  18.874  0.00  0.00    +0.000 A 
ATOM     11  C   UNL     1       2.943   3.407  18.521  0.00  0.00    +0.000 A 
ATOM     12  C   UNL     1       3.798   3.049  17.487  0.00  0.00    +0.000 A 
ATOM     13  C   UNL     1       4.512   4.028  16.762  0.00  0.00    +0.000 A 
ATOM     14  C   UNL     1       4.428   5.389  17.103  0.00  0.00    +0.000 A 
ATOM     15  C   UNL     1       1.985   5.462  19.802  0.00  0.00    +0.000 C 
ATOM     16  O   UNL     1       1.114   4.901  20.450  0.00  0.00    +0.000 OA
BRANCH  14  17
ATOM     17  C   UNL     1       5.054   6.430  16.206  0.00  0.00    +0.000 C 
ATOM     18  F   UNL     1       4.191   7.400  15.783  0.00  0.00    +0.000 F 
ATOM     19  F   UNL     1       6.086   7.089  16.802  0.00  0.00    +0.000 F 
ATOM     20  F   UNL     1       5.565   5.884  15.066  0.00  0.00    +0.000 F 
ENDBRANCH  14  17
ENDBRANCH   5   7
BRANCH   1  26
ATOM     21  C   UNL     1       0.334  12.512  19.252  0.00  0.00    +0.000 A 
ATOM     22  C   UNL     1      -0.546  13.154  18.363  0.00  0.00    +0.000 A 
ATOM     23  N   UNL     1      -1.336  12.298  17.722  0.00  0.00    +0.000 NA
ATOM     24  N   UNL     1      -0.966  11.094  18.208  0.00  0.00    +0.000 N 
ATOM     25  C   UNL     1      -1.644   9.923  17.697  0.00  0.00    +0.000 C 
ATOM     26  C   UNL     1       0.013  11.160  19.184  0.00  0.00    +0.000 A 
BRANCH  21  32
ATOM     27  C   UNL     1       3.127  13.695  18.358  0.00  0.00    +0.000 C 
ATOM     28  N   UNL     1       2.638  13.544  19.703  0.00  0.00    +0.000 N 
ATOM     29  C   UNL     1       3.250  14.023  20.821  0.00  0.00    +0.000 A 
ATOM     30  N   UNL     1       2.426  13.962  21.835  0.00  0.00    +0.000 NA
ATOM     31  N   UNL     1       1.239  13.442  21.371  0.00  0.00    +0.000 NA
ATOM     32  C   UNL     1       1.385  13.146  20.092  0.00  0.00    +0.000 A 
ENDBRANCH  21  32
ENDBRANCH   1  26
TORSDOF 4
ENDMDL
MODEL 6
REMARK VINA RESULT:      -9.3      4.327      8.758
REMARK  Name = 
REMARK  6 active torsions:
REMARK  status: ('A' for Active; 'I' for Inactive)
REMARK    1  A    between atoms: C_1  and  N_2
REMARK    2  A    between atoms: C_6  and  C_7
REMARK    3  A    between atoms: N_10  and  C_11
REMARK    4  A    between atoms: C_12  and  C_13
REMARK    5  A    between atoms: C_17  and  N_18
REMARK    6  A    between atoms: C_25  and  C_26
REMARK                            x       y       z     vdW  Elec       q    Type
REMARK                         _______ _______ _______ _____ _____    ______ ____
ROOT
ATOM      1  C   UNL     1       0.644   9.888  19.587  0.00  0.00    +0.000 A 
ATOM      2  C   UNL     1       0.450   9.591  20.942  0.00  0.00    +0.000 A 
ATOM      3  C   UNL     1       1.052   8.473  21.522  0.00  0.00    +0.000 A 
ATOM      4  C   UNL     1       1.776   7.595  20.727  0.00  0.00    +0.000 A 
ATOM      5  C   UNL     1       1.965   7.854  19.362  0.00  0.00    +0.000 A 
ATOM      6  C   UNL     1       1.443   9.025  18.816  0.00  0.00    +0.000 A 
ENDROOT
BRANCH   5   7
ATOM      7  N   UNL     1       2.616   6.896  18.564  0.00  0.00    +0.000 N 
ATOM      8  C   UNL     1       2.060   5.571  18.436  0.00  0.00    +0.000 C 
ATOM      9  C   UNL     1       3.176   4.816  17.809  0.00  0.00    +0.000 A 
ATOM     10  C   UNL     1       4.051   5.737  17.211  0.00  0.00    +0.000 A 
ATOM     11  C   UNL     1       5.125   5.322  16.438  0.00  0.00    +0.000 A 
ATOM     12  C   UNL     1       5.307   3.954  16.277  0.00  0.00    +0.000 A 
ATOM     13  C   UNL     1       4.485   3.027  16.953  0.00  0.00    +0.000 A 
ATOM     14  C   UNL     1       3.419   3.456  17.763  0.00  0.00    +0.000 A 
ATOM     15  C   UNL     1       3.686   7.087  17.699  0.00  0.00    +0.000 C 
ATOM     16  O   UNL     1       4.327   8.092  17.431  0.00  0.00    +0.000 OA
BRANCH  14  17
ATOM     17  C   UNL     1       2.670   2.460  18.615  0.00  0.00    +0.000 C 
ATOM     18  F   UNL     1       1.339   2.362  18.328  0.00  0.00    +0.000 F 
ATOM     19  F   UNL     1       3.165   1.196  18.508  0.00  0.00    +0.000 F 
ATOM     20  F   UNL     1       2.727   2.776  19.941  0.00  0.00    +0.000 F 
ENDBRANCH  14  17
ENDBRANCH   5   7
BRANCH   1  26
ATOM     21  C   UNL     1       0.284  12.424  19.162  0.00  0.00    +0.000 A 
ATOM     22  C   UNL     1      -0.737  13.103  18.475  0.00  0.00    +0.000 A 
ATOM     23  N   UNL     1      -1.549  12.277  17.822  0.00  0.00    +0.000 NA
ATOM     24  N   UNL     1      -1.049  11.053  18.097  0.00  0.00    +0.000 N 
ATOM     25  C   UNL     1      -1.715   9.907  17.516  0.00  0.00    +0.000 C 
ATOM     26  C   UNL     1       0.038  11.070  18.953  0.00  0.00    +0.000 A 
BRANCH  21  32
ATOM     27  C   UNL     1       2.893  13.870  18.115  0.00  0.00    +0.000 C 
ATOM     28  N   UNL     1       2.570  13.541  19.478  0.00  0.00    +0.000 N 
ATOM     29  C   UNL     1       3.282  13.931  20.571  0.00  0.00    +0.000 A 
ATOM     30  N   UNL     1       2.584  13.707  21.655  0.00  0.00    +0.000 NA
ATOM     31  N   UNL     1       1.379  13.168  21.264  0.00  0.00    +0.000 NA
ATOM     32  C   UNL     1       1.392  13.025  19.951  0.00  0.00    +0.000 A 
ENDBRANCH  21  32
ENDBRANCH   1  26
TORSDOF 4
ENDMDL
MODEL 7
REMARK VINA RESULT:      -9.3      4.180      9.015
REMARK  Name = 
REMARK  6 active torsions:
REMARK  status: ('A' for Active; 'I' for Inactive)
REMARK    1  A    between atoms: C_1  and  N_2
REMARK    2  A    between atoms: C_6  and  C_7
REMARK    3  A    between atoms: N_10  and  C_11
REMARK    4  A    between atoms: C_12  and  C_13
REMARK    5  A    between atoms: C_17  and  N_18
REMARK    6  A    between atoms: C_25  and  C_26
REMARK                            x       y       z     vdW  Elec       q    Type
REMARK                         _______ _______ _______ _____ _____    ______ ____
ROOT
ATOM      1  C   UNL     1       0.333  10.715  20.489  0.00  0.00    +0.000 A 
ATOM      2  C   UNL     1      -0.122  10.558  21.805  0.00  0.00    +0.000 A 
ATOM      3  C   UNL     1       0.144   9.388  22.518  0.00  0.00    +0.000 A 
ATOM      4  C   UNL     1       0.785   8.333  21.887  0.00  0.00    +0.000 A 
ATOM      5  C   UNL     1       1.230   8.452  20.562  0.00  0.00    +0.000 A 
ATOM      6  C   UNL     1       1.048   9.660  19.893  0.00  0.00    +0.000 A 
ENDROOT
BRANCH   5   7
ATOM      7  N   UNL     1       1.785   7.331  19.920  0.00  0.00    +0.000 N 
ATOM      8  C   UNL     1       1.406   6.003  20.337  0.00  0.00    +0.000 C 
ATOM      9  C   UNL     1       2.421   5.154  19.660  0.00  0.00    +0.000 A 
ATOM     10  C   UNL     1       2.978   5.891  18.603  0.00  0.00    +0.000 A 
ATOM     11  C   UNL     1       3.870   5.316  17.709  0.00  0.00    +0.000 A 
ATOM     12  C   UNL     1       4.194   3.979  17.898  0.00  0.00    +0.000 A 
ATOM     13  C   UNL     1       3.708   3.264  19.015  0.00  0.00    +0.000 A 
ATOM     14  C   UNL     1       2.833   3.864  19.936  0.00  0.00    +0.000 A 
ATOM     15  C   UNL     1       2.563   7.302  18.769  0.00  0.00    +0.000 C 
ATOM     16  O   UNL     1       2.969   8.209  18.056  0.00  0.00    +0.000 OA
BRANCH  14  17
ATOM     17  C   UNL     1       2.471   3.143  21.212  0.00  0.00    +0.000 C 
ATOM     18  F   UNL     1       2.413   3.945  22.315  0.00  0.00    +0.000 F 
ATOM     19  F   UNL     1       1.263   2.521  21.144  0.00  0.00    +0.000 F 
ATOM     20  F   UNL     1       3.377   2.172  21.525  0.00  0.00    +0.000 F 
ENDBRANCH  14  17
ENDBRANCH   5   7
BRANCH   1  26
ATOM     21  C   UNL     1      -0.796  12.183  18.669  0.00  0.00    +0.000 A 
ATOM     22  C   UNL     1      -0.444  13.444  18.159  0.00  0.00    +0.000 A 
ATOM     23  N   UNL     1       0.541  14.014  18.846  0.00  0.00    +0.000 NA
ATOM     24  N   UNL     1       0.830  13.108  19.804  0.00  0.00    +0.000 N 
ATOM     25  C   UNL     1       1.878  13.435  20.747  0.00  0.00    +0.000 C 
ATOM     26  C   UNL     1       0.086  11.945  19.719  0.00  0.00    +0.000 A 
BRANCH  21  32
ATOM     27  C   UNL     1      -3.886  12.291  19.332  0.00  0.00    +0.000 C 
ATOM     28  N   UNL     1      -3.195  11.279  18.579  0.00  0.00    +0.000 N 
ATOM     29  C   UNL     1      -3.790  10.261  17.899  0.00  0.00    +0.000 A 
ATOM     30  N   UNL     1      -2.917   9.691  17.107  0.00  0.00    +0.000 NA
ATOM     31  N   UNL     1      -1.723  10.357  17.261  0.00  0.00    +0.000 NA
ATOM     32  C   UNL     1      -1.881  11.287  18.187  0.00  0.00    +0.000 A 
ENDBRANCH  21  32
ENDBRANCH   1  26
TORSDOF 4
ENDMDL
MODEL 8
REMARK VINA RESULT:      -9.1      4.180      9.007
REMARK  Name = 
REMARK  6 active torsions:
REMARK  status: ('A' for Active; 'I' for Inactive)
REMARK    1  A    between atoms: C_1  and  N_2
REMARK    2  A    between atoms: C_6  and  C_7
REMARK    3  A    between atoms: N_10  and  C_11
REMARK    4  A    between atoms: C_12  and  C_13
REMARK    5  A    between atoms: C_17  and  N_18
REMARK    6  A    between atoms: C_25  and  C_26
REMARK                            x       y       z     vdW  Elec       q    Type
REMARK                         _______ _______ _______ _____ _____    ______ ____
ROOT
ATOM      1  C   UNL     1       0.351  10.914  20.561  0.00  0.00    +0.000 A 
ATOM      2  C   UNL     1      -0.193  10.722  21.838  0.00  0.00    +0.000 A 
ATOM      3  C   UNL     1      -0.018   9.513  22.513  0.00  0.00    +0.000 A 
ATOM      4  C   UNL     1       0.619   8.458  21.877  0.00  0.00    +0.000 A 
ATOM      5  C   UNL     1       1.151   8.614  20.588  0.00  0.00    +0.000 A 
ATOM      6  C   UNL     1       1.059   9.856  19.963  0.00  0.00    +0.000 A 
ENDROOT
BRANCH   5   7
ATOM      7  N   UNL     1       1.700   7.498  19.931  0.00  0.00    +0.000 N 
ATOM      8  C   UNL     1       1.337   6.168  20.351  0.00  0.00    +0.000 C 
ATOM      9  C   UNL     1       2.344   5.327  19.652  0.00  0.00    +0.000 A 
ATOM     10  C   UNL     1       2.877   6.070  18.587  0.00  0.00    +0.000 A 
ATOM     11  C   UNL     1       3.755   5.503  17.675  0.00  0.00    +0.000 A 
ATOM     12  C   UNL     1       4.090   4.167  17.853  0.00  0.00    +0.000 A 
ATOM     13  C   UNL     1       3.629   3.446  18.976  0.00  0.00    +0.000 A 
ATOM     14  C   UNL     1       2.768   4.038  19.916  0.00  0.00    +0.000 A 
ATOM     15  C   UNL     1       2.457   7.479  18.766  0.00  0.00    +0.000 C 
ATOM     16  O   UNL     1       2.844   8.389  18.049  0.00  0.00    +0.000 OA
BRANCH  14  17
ATOM     17  C   UNL     1       2.434   3.310  21.196  0.00  0.00    +0.000 C 
ATOM     18  F   UNL     1       3.293   2.295  21.506  0.00  0.00    +0.000 F 
ATOM     19  F   UNL     1       2.424   4.130  22.282  0.00  0.00    +0.000 F 
ATOM     20  F   UNL     1       1.200   2.731  21.149  0.00  0.00    +0.000 F 
ENDBRANCH  14  17
ENDBRANCH   5   7
BRANCH   1  26
ATOM     21  C   UNL     1      -0.813  12.617  18.983  0.00  0.00    +0.000 A 
ATOM     22  C   UNL     1      -0.329  13.793  18.384  0.00  0.00    +0.000 A 
ATOM     23  N   UNL     1       0.871  14.139  18.840  0.00  0.00    +0.000 NA
ATOM     24  N   UNL     1       1.165  13.173  19.737  0.00  0.00    +0.000 N 
ATOM     25  C   UNL     1       2.429  13.263  20.435  0.00  0.00    +0.000 C 
ATOM     26  C   UNL     1       0.201  12.185  19.833  0.00  0.00    +0.000 A 
BRANCH  21  32
ATOM     27  C   UNL     1      -1.471  10.025  17.295  0.00  0.00    +0.000 C 
ATOM     28  N   UNL     1      -2.412  10.914  17.923  0.00  0.00    +0.000 N 
ATOM     29  C   UNL     1      -3.754  10.703  18.013  0.00  0.00    +0.000 A 
ATOM     30  N   UNL     1      -4.276  11.544  18.870  0.00  0.00    +0.000 NA
ATOM     31  N   UNL     1      -3.250  12.319  19.363  0.00  0.00    +0.000 NA
ATOM     32  C   UNL     1      -2.132  11.968  18.755  0.00  0.00    +0.000 A 
ENDBRANCH  21  32
ENDBRANCH   1  26
TORSDOF 4
ENDMDL
MODEL 9
REMARK VINA RESULT:      -9.0      4.286      8.803
REMARK  Name = 
REMARK  6 active torsions:
REMARK  status: ('A' for Active; 'I' for Inactive)
REMARK    1  A    between atoms: C_1  and  N_2
REMARK    2  A    between atoms: C_6  and  C_7
REMARK    3  A    between atoms: N_10  and  C_11
REMARK    4  A    between atoms: C_12  and  C_13
REMARK    5  A    between atoms: C_17  and  N_18
REMARK    6  A    between atoms: C_25  and  C_26
REMARK                            x       y       z     vdW  Elec       q    Type
REMARK                         _______ _______ _______ _____ _____    ______ ____
ROOT
ATOM      1  C   UNL     1       0.531  10.345  20.076  0.00  0.00    +0.000 A 
ATOM      2  C   UNL     1       0.332  10.359  21.463  0.00  0.00    +0.000 A 
ATOM      3  C   UNL     1       0.807   9.319  22.263  0.00  0.00    +0.000 A 
ATOM      4  C   UNL     1       1.400   8.215  21.670  0.00  0.00    +0.000 A 
ATOM      5  C   UNL     1       1.589   8.161  20.281  0.00  0.00    +0.000 A 
ATOM      6  C   UNL     1       1.202   9.250  19.503  0.00  0.00    +0.000 A 
ENDROOT
BRANCH   5   7
ATOM      7  N   UNL     1       2.101   6.986  19.702  0.00  0.00    +0.000 N 
ATOM      8  C   UNL     1       1.667   5.699  20.186  0.00  0.00    +0.000 C 
ATOM      9  C   UNL     1       2.649   4.775  19.560  0.00  0.00    +0.000 A 
ATOM     10  C   UNL     1       3.239   5.432  18.468  0.00  0.00    +0.000 A 
ATOM     11  C   UNL     1       4.109   4.775  17.611  0.00  0.00    +0.000 A 
ATOM     12  C   UNL     1       4.378   3.438  17.871  0.00  0.00    +0.000 A 
ATOM     13  C   UNL     1       3.860   2.803  19.021  0.00  0.00    +0.000 A 
ATOM     14  C   UNL     1       3.006   3.485  19.905  0.00  0.00    +0.000 A 
ATOM     15  C   UNL     1       2.881   6.866  18.558  0.00  0.00    +0.000 C 
ATOM     16  O   UNL     1       3.326   7.716  17.801  0.00  0.00    +0.000 OA
BRANCH  14  17
ATOM     17  C   UNL     1       2.611   2.848  21.215  0.00  0.00    +0.000 C 
ATOM     18  F   UNL     1       2.400   3.734  22.231  0.00  0.00    +0.000 F 
ATOM     19  F   UNL     1       1.469   2.113  21.122  0.00  0.00    +0.000 F 
ATOM     20  F   UNL     1       3.570   1.996  21.679  0.00  0.00    +0.000 F 
ENDBRANCH  14  17
ENDBRANCH   5   7
BRANCH   1  26
ATOM     21  C   UNL     1       0.397  12.787  19.204  0.00  0.00    +0.000 A 
ATOM     22  C   UNL     1      -0.524  13.404  18.339  0.00  0.00    +0.000 A 
ATOM     23  N   UNL     1      -1.357  12.533  17.778  0.00  0.00    +0.000 NA
ATOM     24  N   UNL     1      -0.973  11.345  18.291  0.00  0.00    +0.000 N 
ATOM     25  C   UNL     1      -1.690  10.163  17.866  0.00  0.00    +0.000 C 
ATOM     26  C   UNL     1       0.059  11.437  19.209  0.00  0.00    +0.000 A 
BRANCH  21  32
ATOM     27  C   UNL     1       0.303  14.142  22.060  0.00  0.00    +0.000 C 
ATOM     28  N   UNL     1       1.411  14.126  21.142  0.00  0.00    +0.000 N 
ATOM     29  C   UNL     1       2.666  14.577  21.417  0.00  0.00    +0.000 A 
ATOM     30  N   UNL     1       3.493  14.173  20.487  0.00  0.00    +0.000 NA
ATOM     31  N   UNL     1       2.767  13.428  19.585  0.00  0.00    +0.000 NA
ATOM     32  C   UNL     1       1.500  13.440  19.958  0.00  0.00    +0.000 A 
ENDBRANCH  21  32
ENDBRANCH   1  26
TORSDOF 4
ENDMDL
