MODEL 1
REMARK VINA RESULT:      -8.0      0.000      0.000
REMARK  Name = 
REMARK  7 active torsions:
REMARK  status: ('A' for Active; 'I' for Inactive)
REMARK    1  A    between atoms: C_1  and  C_2
REMARK    2  A    between atoms: N_13  and  C_14
REMARK    3  A    between atoms: C_18  and  C_19
REMARK    4  A    between atoms: C_19  and  C_20
REMARK    5  A    between atoms: C_19  and  S_21
REMARK    6  A    between atoms: S_21  and  C_22
REMARK    7  A    between atoms: N_26  and  C_27
REMARK                            x       y       z     vdW  Elec       q    Type
REMARK                         _______ _______ _______ _____ _____    ______ ____
ROOT
ATOM      1  C   UNL     1      11.359  17.033  18.306  0.00  0.00    +0.000 C 
ATOM      2  C   UNL     1      11.363  15.749  17.521  0.00  0.00    +0.000 C 
ATOM      3  O   UNL     1      11.836  15.709  16.386  0.00  0.00    +0.000 OA
ATOM      4  N   UNL     1      10.806  14.647  18.127  0.00  0.00    +0.000 N 
ATOM      5  C   UNL     1      10.295  14.534  19.473  0.00  0.00    +0.000 C 
ATOM      6  C   UNL     1       9.203  13.486  19.331  0.00  0.00    +0.000 C 
ATOM      7  C   UNL     1       9.717  12.521  18.229  0.00  0.00    +0.000 C 
ATOM      8  C   UNL     1       8.574  12.071  17.290  0.00  0.00    +0.000 C 
ATOM      9  C   UNL     1       7.603  11.100  17.961  0.00  0.00    +0.000 C 
ATOM     10  N   UNL     1       8.337   9.956  18.498  0.00  0.00    +0.000 N 
ATOM     11  C   UNL     1       8.091   8.604  18.286  0.00  0.00    +0.000 C 
ATOM     12  O   UNL     1       8.762   7.759  18.882  0.00  0.00    +0.000 OA
ATOM     13  N   UNL     1       7.087   8.293  17.396  0.00  0.00    +0.000 N 
ATOM     14  C   UNL     1       9.380  10.312  19.462  0.00  0.00    +0.000 C 
ATOM     15  C   UNL     1      10.392  11.277  18.843  0.00  0.00    +0.000 C 
ATOM     16  C   UNL     1      10.742  13.371  17.441  0.00  0.00    +0.000 C 
ATOM     17  H   UNL     1       6.839   8.994  16.719  0.00  0.00    +0.000 HD
ENDROOT
BRANCH  13  18
ATOM     18  C   UNL     1       6.603   6.986  17.124  0.00  0.00    +0.000 A 
ATOM     19  C   UNL     1       7.399   5.977  16.577  0.00  0.00    +0.000 A 
ATOM     20  C   UNL     1       6.872   4.718  16.294  0.00  0.00    +0.000 A 
ATOM     21  C   UNL     1       5.540   4.442  16.575  0.00  0.00    +0.000 A 
ATOM     22  C   UNL     1       4.713   5.424  17.142  0.00  0.00    +0.000 A 
ATOM     23  C   UNL     1       5.263   6.692  17.423  0.00  0.00    +0.000 A 
BRANCH  22  24
ATOM     24  C   UNL     1       3.242   5.147  17.422  0.00  0.00    +0.000 C 
ATOM     25  C   UNL     1       2.814   5.744  18.765  0.00  0.00    +0.000 C 
BRANCH  24  26
ATOM     26  S   UNL     1       2.860   3.351  17.442  0.00  0.00    +0.000 S 
BRANCH  26  27
ATOM     27  C   UNL     1       2.342   3.169  19.078  0.00  0.00    +0.000 A 
ATOM     28  N   UNL     1       1.126   3.351  19.537  0.00  0.00    +0.000 NA
ATOM     29  N   UNL     1       1.146   3.056  20.884  0.00  0.00    +0.000 NA
ATOM     30  C   UNL     1       2.372   2.695  21.195  0.00  0.00    +0.000 A 
ATOM     31  N   UNL     1       3.163   2.762  20.088  0.00  0.00    +0.000 N 
ATOM     32  C   UNL     1       4.561   2.437  20.026  0.00  0.00    +0.000 C 
ENDBRANCH  26  27
ENDBRANCH  24  26
ENDBRANCH  22  24
ENDBRANCH  13  18
TORSDOF 4
ENDMDL
MODEL 2
REMARK VINA RESULT:      -7.9      0.753      1.198
REMARK  Name = 
REMARK  7 active torsions:
REMARK  status: ('A' for Active; 'I' for Inactive)
REMARK    1  A    between atoms: C_1  and  C_2
REMARK    2  A    between atoms: N_13  and  C_14
REMARK    3  A    between atoms: C_18  and  C_19
REMARK    4  A    between atoms: C_19  and  C_20
REMARK    5  A    between atoms: C_19  and  S_21
REMARK    6  A    between atoms: S_21  and  C_22
REMARK    7  A    between atoms: N_26  and  C_27
REMARK                            x       y       z     vdW  Elec       q    Type
REMARK                         _______ _______ _______ _____ _____    ______ ____
ROOT
ATOM      1  C   UNL     1      11.684  16.410  18.873  0.00  0.00    +0.000 C 
ATOM      2  C   UNL     1      11.723  15.142  18.063  0.00  0.00    +0.000 C 
ATOM      3  O   UNL     1      12.333  15.096  16.996  0.00  0.00    +0.000 OA
ATOM      4  N   UNL     1      11.037  14.061  18.567  0.00  0.00    +0.000 N 
ATOM      5  C   UNL     1      10.353  13.952  19.834  0.00  0.00    +0.000 C 
ATOM      6  C   UNL     1       9.236  12.968  19.530  0.00  0.00    +0.000 C 
ATOM      7  C   UNL     1       9.836  11.995  18.478  0.00  0.00    +0.000 C 
ATOM      8  C   UNL     1       8.800  11.624  17.392  0.00  0.00    +0.000 C 
ATOM      9  C   UNL     1       7.703  10.696  17.912  0.00  0.00    +0.000 C 
ATOM     10  N   UNL     1       8.303   9.505  18.509  0.00  0.00    +0.000 N 
ATOM     11  C   UNL     1       8.017   8.172  18.235  0.00  0.00    +0.000 C 
ATOM     12  O   UNL     1       8.562   7.281  18.890  0.00  0.00    +0.000 OA
ATOM     13  N   UNL     1       7.120   7.931  17.218  0.00  0.00    +0.000 N 
ATOM     14  C   UNL     1       9.232   9.786  19.605  0.00  0.00    +0.000 C 
ATOM     15  C   UNL     1      10.363  10.706  19.143  0.00  0.00    +0.000 C 
ATOM     16  C   UNL     1      10.995  12.803  17.848  0.00  0.00    +0.000 C 
ATOM     17  H   UNL     1       6.997   8.657  16.532  0.00  0.00    +0.000 HD
ENDROOT
BRANCH  13  18
ATOM     18  C   UNL     1       6.608   6.657  16.855  0.00  0.00    +0.000 A 
ATOM     19  C   UNL     1       7.304   5.759  16.042  0.00  0.00    +0.000 A 
ATOM     20  C   UNL     1       6.747   4.533  15.683  0.00  0.00    +0.000 A 
ATOM     21  C   UNL     1       5.489   4.176  16.151  0.00  0.00    +0.000 A 
ATOM     22  C   UNL     1       4.767   5.043  16.986  0.00  0.00    +0.000 A 
ATOM     23  C   UNL     1       5.346   6.280  17.341  0.00  0.00    +0.000 A 
BRANCH  22  24
ATOM     24  C   UNL     1       3.372   4.680  17.478  0.00  0.00    +0.000 C 
ATOM     25  C   UNL     1       3.111   5.257  18.872  0.00  0.00    +0.000 C 
BRANCH  24  26
ATOM     26  S   UNL     1       3.105   2.864  17.547  0.00  0.00    +0.000 S 
BRANCH  26  27
ATOM     27  C   UNL     1       2.991   2.639  19.254  0.00  0.00    +0.000 A 
ATOM     28  N   UNL     1       3.990   2.473  20.089  0.00  0.00    +0.000 NA
ATOM     29  N   UNL     1       3.456   2.377  21.357  0.00  0.00    +0.000 NA
ATOM     30  C   UNL     1       2.151   2.497  21.250  0.00  0.00    +0.000 A 
ATOM     31  N   UNL     1       1.812   2.654  19.940  0.00  0.00    +0.000 N 
ATOM     32  C   UNL     1       0.481   2.825  19.423  0.00  0.00    +0.000 C 
ENDBRANCH  26  27
ENDBRANCH  24  26
ENDBRANCH  22  24
ENDBRANCH  13  18
TORSDOF 4
ENDMDL
MODEL 3
REMARK VINA RESULT:      -7.9      6.766      9.592
REMARK  Name = 
REMARK  7 active torsions:
REMARK  status: ('A' for Active; 'I' for Inactive)
REMARK    1  A    between atoms: C_1  and  C_2
REMARK    2  A    between atoms: N_13  and  C_14
REMARK    3  A    between atoms: C_18  and  C_19
REMARK    4  A    between atoms: C_19  and  C_20
REMARK    5  A    between atoms: C_19  and  S_21
REMARK    6  A    between atoms: S_21  and  C_22
REMARK    7  A    between atoms: N_26  and  C_27
REMARK                            x       y       z     vdW  Elec       q    Type
REMARK                         _______ _______ _______ _____ _____    ______ ____
ROOT
ATOM      1  C   UNL     1      -4.133  15.203  24.008  0.00  0.00    +0.000 C 
ATOM      2  C   UNL     1      -4.161  13.884  23.283  0.00  0.00    +0.000 C 
ATOM      3  O   UNL     1      -5.205  13.239  23.190  0.00  0.00    +0.000 OA
ATOM      4  N   UNL     1      -2.972  13.440  22.753  0.00  0.00    +0.000 N 
ATOM      5  C   UNL     1      -1.701  14.127  22.716  0.00  0.00    +0.000 C 
ATOM      6  C   UNL     1      -0.700  12.984  22.755  0.00  0.00    +0.000 C 
ATOM      7  C   UNL     1      -1.386  11.827  21.979  0.00  0.00    +0.000 C 
ATOM      8  C   UNL     1      -1.122  10.459  22.650  0.00  0.00    +0.000 C 
ATOM      9  C   UNL     1       0.319   9.982  22.477  0.00  0.00    +0.000 C 
ATOM     10  N   UNL     1       0.667   9.959  21.058  0.00  0.00    +0.000 N 
ATOM     11  C   UNL     1       1.209   8.908  20.326  0.00  0.00    +0.000 C 
ATOM     12  O   UNL     1       1.519   9.080  19.145  0.00  0.00    +0.000 OA
ATOM     13  N   UNL     1       1.364   7.710  20.988  0.00  0.00    +0.000 N 
ATOM     14  C   UNL     1       0.520  11.249  20.383  0.00  0.00    +0.000 C 
ATOM     15  C   UNL     1      -0.910  11.776  20.512  0.00  0.00    +0.000 C 
ATOM     16  C   UNL     1      -2.892  12.171  22.057  0.00  0.00    +0.000 C 
ATOM     17  H   UNL     1       0.790   7.557  21.800  0.00  0.00    +0.000 HD
ENDROOT
BRANCH  13  18
ATOM     18  C   UNL     1       1.998   6.553  20.462  0.00  0.00    +0.000 A 
ATOM     19  C   UNL     1       1.781   5.269  20.969  0.00  0.00    +0.000 A 
ATOM     20  C   UNL     1       2.453   4.167  20.445  0.00  0.00    +0.000 A 
ATOM     21  C   UNL     1       3.339   4.329  19.386  0.00  0.00    +0.000 A 
ATOM     22  C   UNL     1       3.568   5.601  18.838  0.00  0.00    +0.000 A 
ATOM     23  C   UNL     1       2.879   6.706  19.381  0.00  0.00    +0.000 A 
BRANCH  22  24
ATOM     24  C   UNL     1       4.563   5.799  17.703  0.00  0.00    +0.000 C 
ATOM     25  C   UNL     1       4.159   6.979  16.814  0.00  0.00    +0.000 C 
BRANCH  24  26
ATOM     26  S   UNL     1       4.721   4.308  16.642  0.00  0.00    +0.000 S 
BRANCH  26  27
ATOM     27  C   UNL     1       6.025   4.795  15.625  0.00  0.00    +0.000 A 
ATOM     28  N   UNL     1       7.099   5.454  15.992  0.00  0.00    +0.000 NA
ATOM     29  N   UNL     1       7.899   5.594  14.878  0.00  0.00    +0.000 NA
ATOM     30  C   UNL     1       7.288   5.008  13.872  0.00  0.00    +0.000 A 
ATOM     31  N   UNL     1       6.097   4.499  14.295  0.00  0.00    +0.000 N 
ATOM     32  C   UNL     1       5.148   3.780  13.489  0.00  0.00    +0.000 C 
ENDBRANCH  26  27
ENDBRANCH  24  26
ENDBRANCH  22  24
ENDBRANCH  13  18
TORSDOF 4
ENDMDL
MODEL 4
REMARK VINA RESULT:      -7.7      5.655      7.246
REMARK  Name = 
REMARK  7 active torsions:
REMARK  status: ('A' for Active; 'I' for Inactive)
REMARK    1  A    between atoms: C_1  and  C_2
REMARK    2  A    between atoms: N_13  and  C_14
REMARK    3  A    between atoms: C_18  and  C_19
REMARK    4  A    between atoms: C_19  and  C_20
REMARK    5  A    between atoms: C_19  and  S_21
REMARK    6  A    between atoms: S_21  and  C_22
REMARK    7  A    between atoms: N_26  and  C_27
REMARK                            x       y       z     vdW  Elec       q    Type
REMARK                         _______ _______ _______ _____ _____    ______ ____
ROOT
ATOM      1  C   UNL     1       1.083  18.238  18.566  0.00  0.00    +0.000 C 
ATOM      2  C   UNL     1       1.845  17.114  19.216  0.00  0.00    +0.000 C 
ATOM      3  O   UNL     1       2.983  17.293  19.648  0.00  0.00    +0.000 OA
ATOM      4  N   UNL     1       1.214  15.894  19.287  0.00  0.00    +0.000 N 
ATOM      5  C   UNL     1      -0.138  15.566  18.898  0.00  0.00    +0.000 C 
ATOM      6  C   UNL     1      -0.025  14.109  18.480  0.00  0.00    +0.000 C 
ATOM      7  C   UNL     1       1.063  13.511  19.412  0.00  0.00    +0.000 C 
ATOM      8  C   UNL     1       1.985  12.528  18.653  0.00  0.00    +0.000 C 
ATOM      9  C   UNL     1       1.288  11.215  18.299  0.00  0.00    +0.000 C 
ATOM     10  N   UNL     1       0.735  10.606  19.506  0.00  0.00    +0.000 N 
ATOM     11  C   UNL     1       0.919   9.309  19.973  0.00  0.00    +0.000 C 
ATOM     12  O   UNL     1       0.313   8.927  20.977  0.00  0.00    +0.000 OA
ATOM     13  N   UNL     1       1.796   8.518  19.264  0.00  0.00    +0.000 N 
ATOM     14  C   UNL     1      -0.214  11.456  20.227  0.00  0.00    +0.000 C 
ATOM     15  C   UNL     1       0.431  12.786  20.619  0.00  0.00    +0.000 C 
ATOM     16  C   UNL     1       1.874  14.745  19.874  0.00  0.00    +0.000 C 
ATOM     17  H   UNL     1       2.484   8.986  18.699  0.00  0.00    +0.000 HD
ENDROOT
BRANCH  13  18
ATOM     18  C   UNL     1       2.039   7.139  19.503  0.00  0.00    +0.000 A 
ATOM     19  C   UNL     1       1.789   6.523  20.732  0.00  0.00    +0.000 A 
ATOM     20  C   UNL     1       2.075   5.174  20.931  0.00  0.00    +0.000 A 
ATOM     21  C   UNL     1       2.600   4.412  19.894  0.00  0.00    +0.000 A 
ATOM     22  C   UNL     1       2.848   4.992  18.640  0.00  0.00    +0.000 A 
ATOM     23  C   UNL     1       2.551   6.358  18.455  0.00  0.00    +0.000 A 
BRANCH  22  24
ATOM     24  C   UNL     1       3.457   4.178  17.506  0.00  0.00    +0.000 C 
ATOM     25  C   UNL     1       2.443   3.182  16.935  0.00  0.00    +0.000 C 
BRANCH  24  26
ATOM     26  S   UNL     1       4.946   3.243  18.036  0.00  0.00    +0.000 S 
BRANCH  26  27
ATOM     27  C   UNL     1       6.052   4.544  18.278  0.00  0.00    +0.000 A 
ATOM     28  N   UNL     1       6.518   4.970  19.429  0.00  0.00    +0.000 NA
ATOM     29  N   UNL     1       7.404   5.993  19.163  0.00  0.00    +0.000 NA
ATOM     30  C   UNL     1       7.452   6.148  17.858  0.00  0.00    +0.000 A 
ATOM     31  N   UNL     1       6.608   5.262  17.260  0.00  0.00    +0.000 N 
ATOM     32  C   UNL     1       6.390   5.120  15.846  0.00  0.00    +0.000 C 
ENDBRANCH  26  27
ENDBRANCH  24  26
ENDBRANCH  22  24
ENDBRANCH  13  18
TORSDOF 4
ENDMDL
MODEL 5
REMARK VINA RESULT:      -7.7      6.400      9.100
REMARK  Name = 
REMARK  7 active torsions:
REMARK  status: ('A' for Active; 'I' for Inactive)
REMARK    1  A    between atoms: C_1  and  C_2
REMARK    2  A    between atoms: N_13  and  C_14
REMARK    3  A    between atoms: C_18  and  C_19
REMARK    4  A    between atoms: C_19  and  C_20
REMARK    5  A    between atoms: C_19  and  S_21
REMARK    6  A    between atoms: S_21  and  C_22
REMARK    7  A    between atoms: N_26  and  C_27
REMARK                            x       y       z     vdW  Elec       q    Type
REMARK                         _______ _______ _______ _____ _____    ______ ____
ROOT
ATOM      1  C   UNL     1      -2.937  15.403  23.181  0.00  0.00    +0.000 C 
ATOM      2  C   UNL     1      -3.077  13.969  22.748  0.00  0.00    +0.000 C 
ATOM      3  O   UNL     1      -4.041  13.294  23.107  0.00  0.00    +0.000 OA
ATOM      4  N   UNL     1      -2.077  13.458  21.953  0.00  0.00    +0.000 N 
ATOM      5  C   UNL     1      -0.941  14.154  21.394  0.00  0.00    +0.000 C 
ATOM      6  C   UNL     1       0.115  13.064  21.313  0.00  0.00    +0.000 C 
ATOM      7  C   UNL     1      -0.677  11.763  21.012  0.00  0.00    +0.000 C 
ATOM      8  C   UNL     1      -0.107  10.557  21.795  0.00  0.00    +0.000 C 
ATOM      9  C   UNL     1       1.245  10.089  21.259  0.00  0.00    +0.000 C 
ATOM     10  N   UNL     1       1.140   9.800  19.830  0.00  0.00    +0.000 N 
ATOM     11  C   UNL     1       1.516   8.640  19.162  0.00  0.00    +0.000 C 
ATOM     12  O   UNL     1       1.431   8.587  17.932  0.00  0.00    +0.000 OA
ATOM     13  N   UNL     1       1.966   7.597  19.940  0.00  0.00    +0.000 N 
ATOM     14  C   UNL     1       0.685  10.931  19.021  0.00  0.00    +0.000 C 
ATOM     15  C   UNL     1      -0.674  11.440  19.503  0.00  0.00    +0.000 C 
ATOM     16  C   UNL     1      -2.110  12.080  21.504  0.00  0.00    +0.000 C 
ATOM     17  H   UNL     1       1.685   7.591  20.906  0.00  0.00    +0.000 HD
ENDROOT
BRANCH  13  18
ATOM     18  C   UNL     1       2.501   6.375  19.453  0.00  0.00    +0.000 A 
ATOM     19  C   UNL     1       2.047   5.123  19.875  0.00  0.00    +0.000 A 
ATOM     20  C   UNL     1       2.626   3.950  19.396  0.00  0.00    +0.000 A 
ATOM     21  C   UNL     1       3.658   4.011  18.467  0.00  0.00    +0.000 A 
ATOM     22  C   UNL     1       4.128   5.250  18.005  0.00  0.00    +0.000 A 
ATOM     23  C   UNL     1       3.530   6.428  18.500  0.00  0.00    +0.000 A 
BRANCH  22  24
ATOM     24  C   UNL     1       5.282   5.333  17.016  0.00  0.00    +0.000 C 
ATOM     25  C   UNL     1       5.480   6.768  16.518  0.00  0.00    +0.000 C 
BRANCH  24  26
ATOM     26  S   UNL     1       5.032   4.247  15.555  0.00  0.00    +0.000 S 
BRANCH  26  27
ATOM     27  C   UNL     1       6.372   4.730  14.584  0.00  0.00    +0.000 A 
ATOM     28  N   UNL     1       7.360   5.514  14.949  0.00  0.00    +0.000 NA
ATOM     29  N   UNL     1       8.234   5.599  13.885  0.00  0.00    +0.000 NA
ATOM     30  C   UNL     1       7.750   4.858  12.912  0.00  0.00    +0.000 A 
ATOM     31  N   UNL     1       6.572   4.299  13.305  0.00  0.00    +0.000 N 
ATOM     32  C   UNL     1       5.748   3.420  12.522  0.00  0.00    +0.000 C 
ENDBRANCH  26  27
ENDBRANCH  24  26
ENDBRANCH  22  24
ENDBRANCH  13  18
TORSDOF 4
ENDMDL
MODEL 6
REMARK VINA RESULT:      -7.6      5.743      7.329
REMARK  Name = 
REMARK  7 active torsions:
REMARK  status: ('A' for Active; 'I' for Inactive)
REMARK    1  A    between atoms: C_1  and  C_2
REMARK    2  A    between atoms: N_13  and  C_14
REMARK    3  A    between atoms: C_18  and  C_19
REMARK    4  A    between atoms: C_19  and  C_20
REMARK    5  A    between atoms: C_19  and  S_21
REMARK    6  A    between atoms: S_21  and  C_22
REMARK    7  A    between atoms: N_26  and  C_27
REMARK                            x       y       z     vdW  Elec       q    Type
REMARK                         _______ _______ _______ _____ _____    ______ ____
ROOT
ATOM      1  C   UNL     1       0.891  18.630  17.682  0.00  0.00    +0.000 C 
ATOM      2  C   UNL     1       1.824  17.456  17.805  0.00  0.00    +0.000 C 
ATOM      3  O   UNL     1       2.934  17.477  17.275  0.00  0.00    +0.000 OA
ATOM      4  N   UNL     1       1.369  16.371  18.518  0.00  0.00    +0.000 N 
ATOM      5  C   UNL     1       0.133  16.244  19.255  0.00  0.00    +0.000 C 
ATOM      6  C   UNL     1      -0.168  14.758  19.153  0.00  0.00    +0.000 C 
ATOM      7  C   UNL     1       1.223  14.069  19.146  0.00  0.00    +0.000 C 
ATOM      8  C   UNL     1       1.264  12.881  18.157  0.00  0.00    +0.000 C 
ATOM      9  C   UNL     1       0.454  11.679  18.640  0.00  0.00    +0.000 C 
ATOM     10  N   UNL     1       0.902  11.281  19.972  0.00  0.00    +0.000 N 
ATOM     11  C   UNL     1       1.294  10.018  20.403  0.00  0.00    +0.000 C 
ATOM     12  O   UNL     1       1.571   9.835  21.591  0.00  0.00    +0.000 OA
ATOM     13  N   UNL     1       1.350   9.031  19.445  0.00  0.00    +0.000 N 
ATOM     14  C   UNL     1       0.808  12.341  20.978  0.00  0.00    +0.000 C 
ATOM     15  C   UNL     1       1.610  13.572  20.555  0.00  0.00    +0.000 C 
ATOM     16  C   UNL     1       2.186  15.183  18.672  0.00  0.00    +0.000 C 
ATOM     17  H   UNL     1       1.448   9.324  18.488  0.00  0.00    +0.000 HD
ENDROOT
BRANCH  13  18
ATOM     18  C   UNL     1       1.614   7.657  19.692  0.00  0.00    +0.000 A 
ATOM     19  C   UNL     1       1.185   6.994  20.845  0.00  0.00    +0.000 A 
ATOM     20  C   UNL     1       1.497   5.654  21.062  0.00  0.00    +0.000 A 
ATOM     21  C   UNL     1       2.229   4.947  20.116  0.00  0.00    +0.000 A 
ATOM     22  C   UNL     1       2.662   5.573  18.937  0.00  0.00    +0.000 A 
ATOM     23  C   UNL     1       2.336   6.931  18.733  0.00  0.00    +0.000 A 
BRANCH  22  24
ATOM     24  C   UNL     1       3.496   4.821  17.909  0.00  0.00    +0.000 C 
ATOM     25  C   UNL     1       2.748   3.593  17.383  0.00  0.00    +0.000 C 
BRANCH  24  26
ATOM     26  S   UNL     1       5.109   4.264  18.588  0.00  0.00    +0.000 S 
BRANCH  26  27
ATOM     27  C   UNL     1       6.188   5.104  17.537  0.00  0.00    +0.000 A 
ATOM     28  N   UNL     1       6.870   6.190  17.822  0.00  0.00    +0.000 NA
ATOM     29  N   UNL     1       7.638   6.496  16.718  0.00  0.00    +0.000 NA
ATOM     30  C   UNL     1       7.402   5.582  15.803  0.00  0.00    +0.000 A 
ATOM     31  N   UNL     1       6.487   4.689  16.273  0.00  0.00    +0.000 N 
ATOM     32  C   UNL     1       5.981   3.543  15.568  0.00  0.00    +0.000 C 
ENDBRANCH  26  27
ENDBRANCH  24  26
ENDBRANCH  22  24
ENDBRANCH  13  18
TORSDOF 4
ENDMDL
MODEL 7
REMARK VINA RESULT:      -7.5      6.064      7.740
REMARK  Name = 
REMARK  7 active torsions:
REMARK  status: ('A' for Active; 'I' for Inactive)
REMARK    1  A    between atoms: C_1  and  C_2
REMARK    2  A    between atoms: N_13  and  C_14
REMARK    3  A    between atoms: C_18  and  C_19
REMARK    4  A    between atoms: C_19  and  C_20
REMARK    5  A    between atoms: C_19  and  S_21
REMARK    6  A    between atoms: S_21  and  C_22
REMARK    7  A    between atoms: N_26  and  C_27
REMARK                            x       y       z     vdW  Elec       q    Type
REMARK                         _______ _______ _______ _____ _____    ______ ____
ROOT
ATOM      1  C   UNL     1      -0.779  16.622  18.862  0.00  0.00    +0.000 C 
ATOM      2  C   UNL     1       0.444  15.753  18.981  0.00  0.00    +0.000 C 
ATOM      3  O   UNL     1       1.569  16.227  18.832  0.00  0.00    +0.000 OA
ATOM      4  N   UNL     1       0.235  14.419  19.248  0.00  0.00    +0.000 N 
ATOM      5  C   UNL     1      -1.015  13.751  19.525  0.00  0.00    +0.000 C 
ATOM      6  C   UNL     1      -0.773  12.349  18.992  0.00  0.00    +0.000 C 
ATOM      7  C   UNL     1       0.736  12.081  19.243  0.00  0.00    +0.000 C 
ATOM      8  C   UNL     1       1.383  11.321  18.062  0.00  0.00    +0.000 C 
ATOM      9  C   UNL     1       0.937   9.862  17.982  0.00  0.00    +0.000 C 
ATOM     10  N   UNL     1       1.195   9.193  19.255  0.00  0.00    +0.000 N 
ATOM     11  C   UNL     1       1.884   8.005  19.475  0.00  0.00    +0.000 C 
ATOM     12  O   UNL     1       1.944   7.533  20.613  0.00  0.00    +0.000 OA
ATOM     13  N   UNL     1       2.472   7.421  18.375  0.00  0.00    +0.000 N 
ATOM     14  C   UNL     1       0.538   9.817  20.404  0.00  0.00    +0.000 C 
ATOM     15  C   UNL     1       0.954  11.282  20.545  0.00  0.00    +0.000 C 
ATOM     16  C   UNL     1       1.348  13.497  19.358  0.00  0.00    +0.000 C 
ATOM     17  H   UNL     1       2.669   8.017  17.589  0.00  0.00    +0.000 HD
ENDROOT
BRANCH  13  18
ATOM     18  C   UNL     1       3.120   6.157  18.360  0.00  0.00    +0.000 A 
ATOM     19  C   UNL     1       2.518   4.987  18.832  0.00  0.00    +0.000 A 
ATOM     20  C   UNL     1       3.205   3.775  18.830  0.00  0.00    +0.000 A 
ATOM     21  C   UNL     1       4.502   3.709  18.336  0.00  0.00    +0.000 A 
ATOM     22  C   UNL     1       5.133   4.860  17.837  0.00  0.00    +0.000 A 
ATOM     23  C   UNL     1       4.423   6.078  17.845  0.00  0.00    +0.000 A 
BRANCH  22  24
ATOM     24  C   UNL     1       6.567   4.810  17.326  0.00  0.00    +0.000 C 
ATOM     25  C   UNL     1       7.561   5.163  18.436  0.00  0.00    +0.000 C 
BRANCH  24  26
ATOM     26  S   UNL     1       6.848   5.955  15.918  0.00  0.00    +0.000 S 
BRANCH  26  27
ATOM     27  C   UNL     1       6.499   4.903  14.596  0.00  0.00    +0.000 A 
ATOM     28  N   UNL     1       5.504   4.049  14.518  0.00  0.00    +0.000 NA
ATOM     29  N   UNL     1       5.573   3.450  13.278  0.00  0.00    +0.000 NA
ATOM     30  C   UNL     1       6.601   3.965  12.642  0.00  0.00    +0.000 A 
ATOM     31  N   UNL     1       7.221   4.879  13.439  0.00  0.00    +0.000 N 
ATOM     32  C   UNL     1       8.378   5.659  13.094  0.00  0.00    +0.000 C 
ENDBRANCH  26  27
ENDBRANCH  24  26
ENDBRANCH  22  24
ENDBRANCH  13  18
TORSDOF 4
ENDMDL
MODEL 8
REMARK VINA RESULT:      -7.5      6.147      7.865
REMARK  Name = 
REMARK  7 active torsions:
REMARK  status: ('A' for Active; 'I' for Inactive)
REMARK    1  A    between atoms: C_1  and  C_2
REMARK    2  A    between atoms: N_13  and  C_14
REMARK    3  A    between atoms: C_18  and  C_19
REMARK    4  A    between atoms: C_19  and  C_20
REMARK    5  A    between atoms: C_19  and  S_21
REMARK    6  A    between atoms: S_21  and  C_22
REMARK    7  A    between atoms: N_26  and  C_27
REMARK                            x       y       z     vdW  Elec       q    Type
REMARK                         _______ _______ _______ _____ _____    ______ ____
ROOT
ATOM      1  C   UNL     1      -1.266  16.300  19.833  0.00  0.00    +0.000 C 
ATOM      2  C   UNL     1      -0.031  15.469  20.053  0.00  0.00    +0.000 C 
ATOM      3  O   UNL     1       1.078  15.997  20.122  0.00  0.00    +0.000 OA
ATOM      4  N   UNL     1      -0.207  14.109  20.156  0.00  0.00    +0.000 N 
ATOM      5  C   UNL     1      -1.448  13.369  20.176  0.00  0.00    +0.000 C 
ATOM      6  C   UNL     1      -1.057  12.039  19.553  0.00  0.00    +0.000 C 
ATOM      7  C   UNL     1       0.410  11.804  20.004  0.00  0.00    +0.000 C 
ATOM      8  C   UNL     1       1.263  11.193  18.868  0.00  0.00    +0.000 C 
ATOM      9  C   UNL     1       0.910   9.734  18.582  0.00  0.00    +0.000 C 
ATOM     10  N   UNL     1       1.013   8.948  19.810  0.00  0.00    +0.000 N 
ATOM     11  C   UNL     1       1.722   7.770  20.017  0.00  0.00    +0.000 C 
ATOM     12  O   UNL     1       1.639   7.188  21.100  0.00  0.00    +0.000 OA
ATOM     13  N   UNL     1       2.496   7.324  18.968  0.00  0.00    +0.000 N 
ATOM     14  C   UNL     1       0.162   9.427  20.900  0.00  0.00    +0.000 C 
ATOM     15  C   UNL     1       0.475  10.884  21.242  0.00  0.00    +0.000 C 
ATOM     16  C   UNL     1       0.925  13.222  20.345  0.00  0.00    +0.000 C 
ATOM     17  H   UNL     1       2.776   8.004  18.282  0.00  0.00    +0.000 HD
ENDROOT
BRANCH  13  18
ATOM     18  C   UNL     1       3.204   6.094  18.931  0.00  0.00    +0.000 A 
ATOM     19  C   UNL     1       2.578   4.851  19.055  0.00  0.00    +0.000 A 
ATOM     20  C   UNL     1       3.317   3.669  19.049  0.00  0.00    +0.000 A 
ATOM     21  C   UNL     1       4.697   3.712  18.897  0.00  0.00    +0.000 A 
ATOM     22  C   UNL     1       5.360   4.941  18.751  0.00  0.00    +0.000 A 
ATOM     23  C   UNL     1       4.596   6.127  18.759  0.00  0.00    +0.000 A 
BRANCH  22  24
ATOM     24  C   UNL     1       6.876   5.005  18.620  0.00  0.00    +0.000 C 
ATOM     25  C   UNL     1       7.520   5.516  19.912  0.00  0.00    +0.000 C 
BRANCH  24  26
ATOM     26  S   UNL     1       7.413   6.092  17.240  0.00  0.00    +0.000 S 
BRANCH  26  27
ATOM     27  C   UNL     1       6.737   5.240  15.902  0.00  0.00    +0.000 A 
ATOM     28  N   UNL     1       7.129   4.076  15.437  0.00  0.00    +0.000 NA
ATOM     29  N   UNL     1       6.289   3.745  14.394  0.00  0.00    +0.000 NA
ATOM     30  C   UNL     1       5.412   4.715  14.266  0.00  0.00    +0.000 A 
ATOM     31  N   UNL     1       5.662   5.685  15.189  0.00  0.00    +0.000 N 
ATOM     32  C   UNL     1       4.914   6.899  15.368  0.00  0.00    +0.000 C 
ENDBRANCH  26  27
ENDBRANCH  24  26
ENDBRANCH  22  24
ENDBRANCH  13  18
TORSDOF 4
ENDMDL
MODEL 9
REMARK VINA RESULT:      -7.5      8.035     11.784
REMARK  Name = 
REMARK  7 active torsions:
REMARK  status: ('A' for Active; 'I' for Inactive)
REMARK    1  A    between atoms: C_1  and  C_2
REMARK    2  A    between atoms: N_13  and  C_14
REMARK    3  A    between atoms: C_18  and  C_19
REMARK    4  A    between atoms: C_19  and  C_20
REMARK    5  A    between atoms: C_19  and  S_21
REMARK    6  A    between atoms: S_21  and  C_22
REMARK    7  A    between atoms: N_26  and  C_27
REMARK                            x       y       z     vdW  Elec       q    Type
REMARK                         _______ _______ _______ _____ _____    ______ ____
ROOT
ATOM      1  C   UNL     1       4.137   1.322  18.119  0.00  0.00    +0.000 C 
ATOM      2  C   UNL     1       2.878   2.147  18.096  0.00  0.00    +0.000 C 
ATOM      3  O   UNL     1       1.897   1.779  17.450  0.00  0.00    +0.000 OA
ATOM      4  N   UNL     1       2.889   3.321  18.813  0.00  0.00    +0.000 N 
ATOM      5  C   UNL     1       3.932   3.829  19.674  0.00  0.00    +0.000 C 
ATOM      6  C   UNL     1       3.766   5.334  19.550  0.00  0.00    +0.000 C 
ATOM      7  C   UNL     1       2.240   5.554  19.366  0.00  0.00    +0.000 C 
ATOM      8  C   UNL     1       1.947   6.668  18.334  0.00  0.00    +0.000 C 
ATOM      9  C   UNL     1       2.283   8.064  18.857  0.00  0.00    +0.000 C 
ATOM     10  N   UNL     1       1.584   8.304  20.118  0.00  0.00    +0.000 N 
ATOM     11  C   UNL     1       0.773   9.382  20.456  0.00  0.00    +0.000 C 
ATOM     12  O   UNL     1       0.318   9.471  21.598  0.00  0.00    +0.000 OA
ATOM     13  N   UNL     1       0.523  10.301  19.461  0.00  0.00    +0.000 N 
ATOM     14  C   UNL     1       1.887   7.329  21.167  0.00  0.00    +0.000 C 
ATOM     15  C   UNL     1       1.560   5.908  20.706  0.00  0.00    +0.000 C 
ATOM     16  C   UNL     1       1.732   4.194  18.833  0.00  0.00    +0.000 C 
ATOM     17  H   UNL     1       0.631   9.990  18.511  0.00  0.00    +0.000 HD
ENDROOT
BRANCH  13  18
ATOM     18  C   UNL     1      -0.180  11.524  19.626  0.00  0.00    +0.000 A 
ATOM     19  C   UNL     1       0.436  12.775  19.537  0.00  0.00    +0.000 A 
ATOM     20  C   UNL     1      -0.287  13.948  19.742  0.00  0.00    +0.000 A 
ATOM     21  C   UNL     1      -1.648  13.889  20.019  0.00  0.00    +0.000 A 
ATOM     22  C   UNL     1      -2.305  12.652  20.098  0.00  0.00    +0.000 A 
ATOM     23  C   UNL     1      -1.559  11.473  19.887  0.00  0.00    +0.000 A 
BRANCH  22  24
ATOM     24  C   UNL     1      -3.788  12.570  20.437  0.00  0.00    +0.000 C 
ATOM     25  C   UNL     1      -4.638  12.463  19.168  0.00  0.00    +0.000 C 
BRANCH  24  26
ATOM     26  S   UNL     1      -4.367  14.025  21.397  0.00  0.00    +0.000 S 
BRANCH  26  27
ATOM     27  C   UNL     1      -5.404  13.245  22.534  0.00  0.00    +0.000 A 
ATOM     28  N   UNL     1      -5.043  12.684  23.665  0.00  0.00    +0.000 NA
ATOM     29  N   UNL     1      -6.188  12.225  24.281  0.00  0.00    +0.000 NA
ATOM     30  C   UNL     1      -7.207  12.529  23.507  0.00  0.00    +0.000 A 
ATOM     31  N   UNL     1      -6.758  13.164  22.389  0.00  0.00    +0.000 N 
ATOM     32  C   UNL     1      -7.571  13.659  21.311  0.00  0.00    +0.000 C 
ENDBRANCH  26  27
ENDBRANCH  24  26
ENDBRANCH  22  24
ENDBRANCH  13  18
TORSDOF 4
ENDMDL
