MODEL 1
REMARK VINA RESULT:      -9.3      0.000      0.000
REMARK  Name = 
REMARK  11 active torsions:
REMARK  status: ('A' for Active; 'I' for Inactive)
REMARK    1  A    between atoms: C_1  and  C_2
REMARK    2  A    between atoms: C_2  and  O_3
REMARK    3  A    between atoms: O_3  and  C_4
REMARK    4  A    between atoms: N_8  and  C_9
REMARK    5  A    between atoms: C_9  and  C_10
REMARK    6  A    between atoms: C_14  and  C_15
REMARK    7  A    between atoms: N_21  and  C_22
REMARK    8  A    between atoms: C_26  and  C_27
REMARK    9  A    between atoms: C_27  and  C_28
REMARK   10  A    between atoms: C_28  and  C_29
REMARK   11  A    between atoms: N_33  and  C_34
REMARK                            x       y       z     vdW  Elec       q    Type
REMARK                         _______ _______ _______ _____ _____    ______ ____
ROOT
ATOM      1  C   UNL     1      -0.267  11.302  19.074  0.00  0.00    +0.000 A 
ATOM      2  C   UNL     1       0.703  10.545  18.410  0.00  0.00    +0.000 A 
ATOM      3  C   UNL     1       1.192   9.440  19.058  0.00  0.00    +0.000 A 
ATOM      4  C   UNL     1       0.870   9.097  20.365  0.00  0.00    +0.000 A 
ATOM      5  C   UNL     1       0.013   9.900  21.101  0.00  0.00    +0.000 A 
ATOM      6  C   UNL     1      -0.588  10.982  20.416  0.00  0.00    +0.000 A 
ATOM      7  C   UNL     1       1.582   7.841  20.727  0.00  0.00    +0.000 C 
ATOM      8  N   UNL     1       2.241   7.473  19.480  0.00  0.00    +0.000 N 
ATOM      9  C   UNL     1       2.072   8.435  18.498  0.00  0.00    +0.000 C 
ATOM     10  O   UNL     1       2.493   8.522  17.355  0.00  0.00    +0.000 OA
ENDROOT
BRANCH   8  11
ATOM     11  C   UNL     1       3.050   6.337  19.377  0.00  0.00    +0.000 A 
ATOM     12  C   UNL     1       2.596   5.091  19.806  0.00  0.00    +0.000 A 
ATOM     13  C   UNL     1       3.406   3.971  19.670  0.00  0.00    +0.000 A 
ATOM     14  C   UNL     1       4.683   4.105  19.160  0.00  0.00    +0.000 A 
ATOM     15  C   UNL     1       5.209   5.355  18.762  0.00  0.00    +0.000 A 
ATOM     16  C   UNL     1       4.334   6.445  18.839  0.00  0.00    +0.000 A 
BRANCH  15  17
ATOM     17  C   UNL     1       6.727   5.572  18.336  0.00  0.00    +0.000 C 
ATOM     18  C   UNL     1       7.213   6.993  17.891  0.00  0.00    +0.000 C 
ATOM     19  O   UNL     1       8.379   6.874  18.763  0.00  0.00    +0.000 OA
ATOM     20  C   UNL     1       7.644   5.913  19.560  0.00  0.00    +0.000 C 
BRANCH  17  21
ATOM     21  C   UNL     1       7.231   4.432  17.424  0.00  0.00    +0.000 C 
BRANCH  21  22
ATOM     22  C   UNL     1       6.927   4.581  15.959  0.00  0.00    +0.000 A 
ATOM     23  N   UNL     1       7.671   5.199  15.060  0.00  0.00    +0.000 NA
ATOM     24  N   UNL     1       7.039   5.122  13.840  0.00  0.00    +0.000 NA
ATOM     25  C   UNL     1       5.931   4.438  14.008  0.00  0.00    +0.000 A 
ATOM     26  N   UNL     1       5.830   4.058  15.311  0.00  0.00    +0.000 N 
ATOM     27  C   UNL     1       4.735   3.300  15.855  0.00  0.00    +0.000 C 
ENDBRANCH  21  22
ENDBRANCH  17  21
ENDBRANCH  15  17
ENDBRANCH   8  11
BRANCH   5  28
ATOM     28  C   UNL     1      -0.247   9.650  22.566  0.00  0.00    +0.000 C 
ATOM     29  F   UNL     1      -0.960  10.642  23.166  0.00  0.00    +0.000 F 
ATOM     30  F   UNL     1      -0.965   8.510  22.767  0.00  0.00    +0.000 F 
ATOM     31  F   UNL     1       0.892   9.515  23.293  0.00  0.00    +0.000 F 
ENDBRANCH   5  28
BRANCH   1  32
ATOM     32  C   UNL     1      -0.922  12.440  18.326  0.00  0.00    +0.000 C 
BRANCH  32  37
ATOM     33  C   UNL     1      -0.230  15.932  19.643  0.00  0.00    +0.000 C 
ATOM     34  C   UNL     1       1.290  15.871  19.805  0.00  0.00    +0.000 C 
ATOM     35  C   UNL     1       1.908  15.040  18.683  0.00  0.00    +0.000 C 
ATOM     36  C   UNL     1       1.235  13.663  18.521  0.00  0.00    +0.000 C 
ATOM     37  N   UNL     1      -0.235  13.740  18.428  0.00  0.00    +0.000 NA
ATOM     38  C   UNL     1      -0.765  14.482  19.593  0.00  0.00    +0.000 C 
BRANCH  33  39
ATOM     39  O   UNL     1      -0.511  16.694  18.454  0.00  0.00    +0.000 OA
BRANCH  39  41
ATOM     40  C   UNL     1      -1.379  18.337  19.973  0.00  0.00    +0.000 C 
ATOM     41  C   UNL     1      -1.527  17.677  18.614  0.00  0.00    +0.000 C 
ENDBRANCH  39  41
ENDBRANCH  33  39
ENDBRANCH  32  37
ENDBRANCH   1  32
TORSDOF 9
ENDMDL
MODEL 2
REMARK VINA RESULT:      -9.0      2.590      9.638
REMARK  Name = 
REMARK  11 active torsions:
REMARK  status: ('A' for Active; 'I' for Inactive)
REMARK    1  A    between atoms: C_1  and  C_2
REMARK    2  A    between atoms: C_2  and  O_3
REMARK    3  A    between atoms: O_3  and  C_4
REMARK    4  A    between atoms: N_8  and  C_9
REMARK    5  A    between atoms: C_9  and  C_10
REMARK    6  A    between atoms: C_14  and  C_15
REMARK    7  A    between atoms: N_21  and  C_22
REMARK    8  A    between atoms: C_26  and  C_27
REMARK    9  A    between atoms: C_27  and  C_28
REMARK   10  A    between atoms: C_28  and  C_29
REMARK   11  A    between atoms: N_33  and  C_34
REMARK                            x       y       z     vdW  Elec       q    Type
REMARK                         _______ _______ _______ _____ _____    ______ ____
ROOT
ATOM      1  C   UNL     1       3.488   4.048  17.911  0.00  0.00    +0.000 A 
ATOM      2  C   UNL     1       3.042   5.360  17.721  0.00  0.00    +0.000 A 
ATOM      3  C   UNL     1       2.440   5.981  18.785  0.00  0.00    +0.000 A 
ATOM      4  C   UNL     1       2.149   5.353  19.991  0.00  0.00    +0.000 A 
ATOM      5  C   UNL     1       2.457   4.013  20.166  0.00  0.00    +0.000 A 
ATOM      6  C   UNL     1       3.176   3.385  19.123  0.00  0.00    +0.000 A 
ATOM      7  C   UNL     1       1.504   6.335  20.906  0.00  0.00    +0.000 C 
ATOM      8  N   UNL     1       1.558   7.574  20.139  0.00  0.00    +0.000 N 
ATOM      9  C   UNL     1       2.053   7.374  18.861  0.00  0.00    +0.000 C 
ATOM     10  O   UNL     1       2.211   8.132  17.917  0.00  0.00    +0.000 OA
ENDROOT
BRANCH   8  11
ATOM     11  C   UNL     1       1.033   8.773  20.632  0.00  0.00    +0.000 A 
ATOM     12  C   UNL     1       0.757   8.931  21.989  0.00  0.00    +0.000 A 
ATOM     13  C   UNL     1       0.261  10.140  22.462  0.00  0.00    +0.000 A 
ATOM     14  C   UNL     1      -0.008  11.164  21.575  0.00  0.00    +0.000 A 
ATOM     15  C   UNL     1       0.203  11.034  20.184  0.00  0.00    +0.000 A 
ATOM     16  C   UNL     1       0.779   9.831  19.758  0.00  0.00    +0.000 A 
BRANCH  15  17
ATOM     17  C   UNL     1      -0.257  12.125  19.121  0.00  0.00    +0.000 C 
ATOM     18  C   UNL     1      -0.757  13.526  19.611  0.00  0.00    +0.000 C 
ATOM     19  O   UNL     1       0.098  14.183  18.624  0.00  0.00    +0.000 OA
ATOM     20  C   UNL     1       0.939  13.003  18.616  0.00  0.00    +0.000 C 
BRANCH  17  21
ATOM     21  C   UNL     1      -1.142  11.505  18.016  0.00  0.00    +0.000 C 
BRANCH  21  22
ATOM     22  C   UNL     1      -2.626  11.634  18.215  0.00  0.00    +0.000 A 
ATOM     23  N   UNL     1      -3.243  12.015  19.319  0.00  0.00    +0.000 NA
ATOM     24  N   UNL     1      -4.600  11.990  19.095  0.00  0.00    +0.000 NA
ATOM     25  C   UNL     1      -4.791  11.618  17.850  0.00  0.00    +0.000 A 
ATOM     26  N   UNL     1      -3.586  11.408  17.253  0.00  0.00    +0.000 N 
ATOM     27  C   UNL     1      -3.417  10.982  15.890  0.00  0.00    +0.000 C 
ENDBRANCH  21  22
ENDBRANCH  17  21
ENDBRANCH  15  17
ENDBRANCH   8  11
BRANCH   5  28
ATOM     28  C   UNL     1       2.025   3.255  21.398  0.00  0.00    +0.000 C 
ATOM     29  F   UNL     1       2.332   3.892  22.560  0.00  0.00    +0.000 F 
ATOM     30  F   UNL     1       0.677   3.064  21.429  0.00  0.00    +0.000 F 
ATOM     31  F   UNL     1       2.586   2.022  21.486  0.00  0.00    +0.000 F 
ENDBRANCH   5  28
BRANCH   1  32
ATOM     32  C   UNL     1       4.277   3.394  16.801  0.00  0.00    +0.000 C 
BRANCH  32  37
ATOM     33  C   UNL     1       7.446   5.394  16.198  0.00  0.00    +0.000 C 
ATOM     34  C   UNL     1       7.747   5.006  14.749  0.00  0.00    +0.000 C 
ATOM     35  C   UNL     1       6.448   4.852  13.962  0.00  0.00    +0.000 C 
ATOM     36  C   UNL     1       5.432   3.930  14.664  0.00  0.00    +0.000 C 
ATOM     37  N   UNL     1       5.203   4.284  16.077  0.00  0.00    +0.000 NA
ATOM     38  C   UNL     1       6.497   4.328  16.792  0.00  0.00    +0.000 C 
BRANCH  33  39
ATOM     39  O   UNL     1       6.890   6.722  16.186  0.00  0.00    +0.000 OA
BRANCH  39  41
ATOM     40  C   UNL     1       7.947   8.195  17.759  0.00  0.00    +0.000 C 
ATOM     41  C   UNL     1       6.748   7.310  17.474  0.00  0.00    +0.000 C 
ENDBRANCH  39  41
ENDBRANCH  33  39
ENDBRANCH  32  37
ENDBRANCH   1  32
TORSDOF 9
ENDMDL
MODEL 3
REMARK VINA RESULT:      -8.9      1.783      2.957
REMARK  Name = 
REMARK  11 active torsions:
REMARK  status: ('A' for Active; 'I' for Inactive)
REMARK    1  A    between atoms: C_1  and  C_2
REMARK    2  A    between atoms: C_2  and  O_3
REMARK    3  A    between atoms: O_3  and  C_4
REMARK    4  A    between atoms: N_8  and  C_9
REMARK    5  A    between atoms: C_9  and  C_10
REMARK    6  A    between atoms: C_14  and  C_15
REMARK    7  A    between atoms: N_21  and  C_22
REMARK    8  A    between atoms: C_26  and  C_27
REMARK    9  A    between atoms: C_27  and  C_28
REMARK   10  A    between atoms: C_28  and  C_29
REMARK   11  A    between atoms: N_33  and  C_34
REMARK                            x       y       z     vdW  Elec       q    Type
REMARK                         _______ _______ _______ _____ _____    ______ ____
ROOT
ATOM      1  C   UNL     1       0.298  11.467  19.227  0.00  0.00    +0.000 A 
ATOM      2  C   UNL     1       1.184  10.646  18.520  0.00  0.00    +0.000 A 
ATOM      3  C   UNL     1       1.472   9.419  19.061  0.00  0.00    +0.000 A 
ATOM      4  C   UNL     1       1.031   8.994  20.308  0.00  0.00    +0.000 A 
ATOM      5  C   UNL     1       0.260   9.835  21.094  0.00  0.00    +0.000 A 
ATOM      6  C   UNL     1      -0.139  11.060  20.511  0.00  0.00    +0.000 A 
ATOM      7  C   UNL     1       1.534   7.615  20.556  0.00  0.00    +0.000 C 
ATOM      8  N   UNL     1       2.200   7.284  19.302  0.00  0.00    +0.000 N 
ATOM      9  C   UNL     1       2.226   8.357  18.428  0.00  0.00    +0.000 C 
ATOM     10  O   UNL     1       2.719   8.498  17.319  0.00  0.00    +0.000 OA
ENDROOT
BRANCH   8  11
ATOM     11  C   UNL     1       2.841   6.056  19.106  0.00  0.00    +0.000 A 
ATOM     12  C   UNL     1       2.673   5.007  20.008  0.00  0.00    +0.000 A 
ATOM     13  C   UNL     1       3.297   3.787  19.779  0.00  0.00    +0.000 A 
ATOM     14  C   UNL     1       4.128   3.636  18.686  0.00  0.00    +0.000 A 
ATOM     15  C   UNL     1       4.374   4.686  17.774  0.00  0.00    +0.000 A 
ATOM     16  C   UNL     1       3.664   5.872  17.993  0.00  0.00    +0.000 A 
BRANCH  15  17
ATOM     17  C   UNL     1       5.455   4.601  16.608  0.00  0.00    +0.000 C 
ATOM     18  C   UNL     1       5.271   3.562  15.451  0.00  0.00    +0.000 C 
ATOM     19  O   UNL     1       5.558   4.600  14.465  0.00  0.00    +0.000 OA
ATOM     20  C   UNL     1       5.141   5.592  15.435  0.00  0.00    +0.000 C 
BRANCH  17  21
ATOM     21  C   UNL     1       6.896   4.660  17.163  0.00  0.00    +0.000 C 
BRANCH  21  22
ATOM     22  C   UNL     1       7.420   6.032  17.483  0.00  0.00    +0.000 A 
ATOM     23  N   UNL     1       7.506   7.055  16.652  0.00  0.00    +0.000 NA
ATOM     24  N   UNL     1       8.049   8.124  17.327  0.00  0.00    +0.000 NA
ATOM     25  C   UNL     1       8.264   7.745  18.566  0.00  0.00    +0.000 A 
ATOM     26  N   UNL     1       7.864   6.452  18.717  0.00  0.00    +0.000 N 
ATOM     27  C   UNL     1       7.962   5.709  19.944  0.00  0.00    +0.000 C 
ENDBRANCH  21  22
ENDBRANCH  17  21
ENDBRANCH  15  17
ENDBRANCH   8  11
BRANCH   5  28
ATOM     28  C   UNL     1      -0.114   9.476  22.511  0.00  0.00    +0.000 C 
ATOM     29  F   UNL     1      -0.908   8.374  22.598  0.00  0.00    +0.000 F 
ATOM     30  F   UNL     1       0.983   9.196  23.270  0.00  0.00    +0.000 F 
ATOM     31  F   UNL     1      -0.778  10.469  23.155  0.00  0.00    +0.000 F 
ENDBRANCH   5  28
BRANCH   1  32
ATOM     32  C   UNL     1      -0.143  12.761  18.584  0.00  0.00    +0.000 C 
BRANCH  32  37
ATOM     33  C   UNL     1       2.336  15.523  19.380  0.00  0.00    +0.000 C 
ATOM     34  C   UNL     1       1.426  16.749  19.284  0.00  0.00    +0.000 C 
ATOM     35  C   UNL     1       0.033  16.416  19.813  0.00  0.00    +0.000 C 
ATOM     36  C   UNL     1      -0.556  15.142  19.179  0.00  0.00    +0.000 C 
ATOM     37  N   UNL     1       0.361  13.988  19.228  0.00  0.00    +0.000 NA
ATOM     38  C   UNL     1       1.657  14.361  18.619  0.00  0.00    +0.000 C 
BRANCH  33  39
ATOM     39  O   UNL     1       2.554  15.252  20.777  0.00  0.00    +0.000 OA
BRANCH  39  41
ATOM     40  C   UNL     1       4.205  15.074  22.509  0.00  0.00    +0.000 C 
ATOM     41  C   UNL     1       3.707  15.880  21.324  0.00  0.00    +0.000 C 
ENDBRANCH  39  41
ENDBRANCH  33  39
ENDBRANCH  32  37
ENDBRANCH   1  32
TORSDOF 9
ENDMDL
MODEL 4
REMARK VINA RESULT:      -8.9      2.559      3.773
REMARK  Name = 
REMARK  11 active torsions:
REMARK  status: ('A' for Active; 'I' for Inactive)
REMARK    1  A    between atoms: C_1  and  C_2
REMARK    2  A    between atoms: C_2  and  O_3
REMARK    3  A    between atoms: O_3  and  C_4
REMARK    4  A    between atoms: N_8  and  C_9
REMARK    5  A    between atoms: C_9  and  C_10
REMARK    6  A    between atoms: C_14  and  C_15
REMARK    7  A    between atoms: N_21  and  C_22
REMARK    8  A    between atoms: C_26  and  C_27
REMARK    9  A    between atoms: C_27  and  C_28
REMARK   10  A    between atoms: C_28  and  C_29
REMARK   11  A    between atoms: N_33  and  C_34
REMARK                            x       y       z     vdW  Elec       q    Type
REMARK                         _______ _______ _______ _____ _____    ______ ____
ROOT
ATOM      1  C   UNL     1      -0.304  11.345  19.279  0.00  0.00    +0.000 A 
ATOM      2  C   UNL     1       0.600  10.591  18.523  0.00  0.00    +0.000 A 
ATOM      3  C   UNL     1       1.099   9.448  19.095  0.00  0.00    +0.000 A 
ATOM      4  C   UNL     1       0.851   9.061  20.406  0.00  0.00    +0.000 A 
ATOM      5  C   UNL     1       0.066   9.855  21.226  0.00  0.00    +0.000 A 
ATOM      6  C   UNL     1      -0.547  10.979  20.625  0.00  0.00    +0.000 A 
ATOM      7  C   UNL     1       1.550   7.774  20.672  0.00  0.00    +0.000 C 
ATOM      8  N   UNL     1       2.117   7.440  19.370  0.00  0.00    +0.000 N 
ATOM      9  C   UNL     1       1.912   8.445  18.441  0.00  0.00    +0.000 C 
ATOM     10  O   UNL     1       2.262   8.567  17.277  0.00  0.00    +0.000 OA
ENDROOT
BRANCH   8  11
ATOM     11  C   UNL     1       2.886   6.288  19.171  0.00  0.00    +0.000 A 
ATOM     12  C   UNL     1       2.894   5.260  20.113  0.00  0.00    +0.000 A 
ATOM     13  C   UNL     1       3.644   4.113  19.882  0.00  0.00    +0.000 A 
ATOM     14  C   UNL     1       4.423   4.020  18.744  0.00  0.00    +0.000 A 
ATOM     15  C   UNL     1       4.490   5.058  17.788  0.00  0.00    +0.000 A 
ATOM     16  C   UNL     1       3.659   6.161  18.016  0.00  0.00    +0.000 A 
BRANCH  15  17
ATOM     17  C   UNL     1       5.505   5.057  16.562  0.00  0.00    +0.000 C 
ATOM     18  C   UNL     1       5.248   4.111  15.341  0.00  0.00    +0.000 C 
ATOM     19  O   UNL     1       5.491   5.221  14.422  0.00  0.00    +0.000 OA
ATOM     20  C   UNL     1       5.138   6.137  15.488  0.00  0.00    +0.000 C 
BRANCH  17  21
ATOM     21  C   UNL     1       6.974   5.064  17.039  0.00  0.00    +0.000 C 
BRANCH  21  22
ATOM     22  C   UNL     1       7.501   6.387  17.520  0.00  0.00    +0.000 A 
ATOM     23  N   UNL     1       7.526   7.519  16.841  0.00  0.00    +0.000 NA
ATOM     24  N   UNL     1       8.096   8.492  17.629  0.00  0.00    +0.000 NA
ATOM     25  C   UNL     1       8.389   7.946  18.786  0.00  0.00    +0.000 A 
ATOM     26  N   UNL     1       8.013   6.637  18.774  0.00  0.00    +0.000 N 
ATOM     27  C   UNL     1       8.192   5.730  19.876  0.00  0.00    +0.000 C 
ENDBRANCH  21  22
ENDBRANCH  17  21
ENDBRANCH  15  17
ENDBRANCH   8  11
BRANCH   5  28
ATOM     28  C   UNL     1      -0.107   9.552  22.695  0.00  0.00    +0.000 C 
ATOM     29  F   UNL     1       1.070   9.362  23.349  0.00  0.00    +0.000 F 
ATOM     30  F   UNL     1      -0.731  10.569  23.352  0.00  0.00    +0.000 F 
ATOM     31  F   UNL     1      -0.849   8.439  22.924  0.00  0.00    +0.000 F 
ENDBRANCH   5  28
BRANCH   1  32
ATOM     32  C   UNL     1      -0.973  12.529  18.619  0.00  0.00    +0.000 C 
BRANCH  32  37
ATOM     33  C   UNL     1      -4.498  11.286  17.957  0.00  0.00    +0.000 C 
ATOM     34  C   UNL     1      -5.110  11.434  19.352  0.00  0.00    +0.000 C 
ATOM     35  C   UNL     1      -4.558  12.678  20.042  0.00  0.00    +0.000 C 
ATOM     36  C   UNL     1      -3.018  12.738  20.020  0.00  0.00    +0.000 C 
ATOM     37  N   UNL     1      -2.446  12.532  18.676  0.00  0.00    +0.000 NA
ATOM     38  C   UNL     1      -2.959  11.265  18.109  0.00  0.00    +0.000 C 
BRANCH  33  39
ATOM     39  O   UNL     1      -4.986  12.374  17.150  0.00  0.00    +0.000 OA
BRANCH  39  41
ATOM     40  C   UNL     1      -6.743  13.977  16.833  0.00  0.00    +0.000 C 
ATOM     41  C   UNL     1      -6.398  12.542  17.185  0.00  0.00    +0.000 C 
ENDBRANCH  39  41
ENDBRANCH  33  39
ENDBRANCH  32  37
ENDBRANCH   1  32
TORSDOF 9
ENDMDL
MODEL 5
REMARK VINA RESULT:      -8.8      2.519      9.651
REMARK  Name = 
REMARK  11 active torsions:
REMARK  status: ('A' for Active; 'I' for Inactive)
REMARK    1  A    between atoms: C_1  and  C_2
REMARK    2  A    between atoms: C_2  and  O_3
REMARK    3  A    between atoms: O_3  and  C_4
REMARK    4  A    between atoms: N_8  and  C_9
REMARK    5  A    between atoms: C_9  and  C_10
REMARK    6  A    between atoms: C_14  and  C_15
REMARK    7  A    between atoms: N_21  and  C_22
REMARK    8  A    between atoms: C_26  and  C_27
REMARK    9  A    between atoms: C_27  and  C_28
REMARK   10  A    between atoms: C_28  and  C_29
REMARK   11  A    between atoms: N_33  and  C_34
REMARK                            x       y       z     vdW  Elec       q    Type
REMARK                         _______ _______ _______ _____ _____    ______ ____
ROOT
ATOM      1  C   UNL     1       3.345   4.138  17.895  0.00  0.00    +0.000 A 
ATOM      2  C   UNL     1       2.892   5.456  17.771  0.00  0.00    +0.000 A 
ATOM      3  C   UNL     1       2.326   6.034  18.879  0.00  0.00    +0.000 A 
ATOM      4  C   UNL     1       2.077   5.359  20.068  0.00  0.00    +0.000 A 
ATOM      5  C   UNL     1       2.393   4.014  20.181  0.00  0.00    +0.000 A 
ATOM      6  C   UNL     1       3.076   3.428  19.090  0.00  0.00    +0.000 A 
ATOM      7  C   UNL     1       1.464   6.303  21.042  0.00  0.00    +0.000 C 
ATOM      8  N   UNL     1       1.490   7.571  20.323  0.00  0.00    +0.000 N 
ATOM      9  C   UNL     1       1.941   7.422  19.022  0.00  0.00    +0.000 C 
ATOM     10  O   UNL     1       2.066   8.216  18.103  0.00  0.00    +0.000 OA
ENDROOT
BRANCH   8  11
ATOM     11  C   UNL     1       0.981   8.749  20.880  0.00  0.00    +0.000 A 
ATOM     12  C   UNL     1       0.397   8.750  22.146  0.00  0.00    +0.000 A 
ATOM     13  C   UNL     1      -0.076   9.936  22.692  0.00  0.00    +0.000 A 
ATOM     14  C   UNL     1      -0.017  11.103  21.954  0.00  0.00    +0.000 A 
ATOM     15  C   UNL     1       0.514  11.142  20.646  0.00  0.00    +0.000 A 
ATOM     16  C   UNL     1       1.056   9.944  20.163  0.00  0.00    +0.000 A 
BRANCH  15  17
ATOM     17  C   UNL     1       0.439  12.425  19.706  0.00  0.00    +0.000 C 
ATOM     18  C   UNL     1      -0.499  12.416  18.452  0.00  0.00    +0.000 C 
ATOM     19  O   UNL     1      -1.020  13.729  18.825  0.00  0.00    +0.000 OA
ATOM     20  C   UNL     1      -0.635  13.456  20.195  0.00  0.00    +0.000 C 
BRANCH  17  21
ATOM     21  C   UNL     1       1.842  13.007  19.424  0.00  0.00    +0.000 C 
BRANCH  21  22
ATOM     22  C   UNL     1       2.417  13.884  20.501  0.00  0.00    +0.000 A 
ATOM     23  N   UNL     1       3.073  13.485  21.575  0.00  0.00    +0.000 NA
ATOM     24  N   UNL     1       3.421  14.592  22.313  0.00  0.00    +0.000 NA
ATOM     25  C   UNL     1       2.995  15.652  21.667  0.00  0.00    +0.000 A 
ATOM     26  N   UNL     1       2.382  15.261  20.516  0.00  0.00    +0.000 N 
ATOM     27  C   UNL     1       1.787  16.161  19.565  0.00  0.00    +0.000 C 
ENDBRANCH  21  22
ENDBRANCH  17  21
ENDBRANCH  15  17
ENDBRANCH   8  11
BRANCH   5  28
ATOM     28  C   UNL     1       2.004   3.207  21.396  0.00  0.00    +0.000 C 
ATOM     29  F   UNL     1       2.654   2.015  21.483  0.00  0.00    +0.000 F 
ATOM     30  F   UNL     1       2.290   3.865  22.554  0.00  0.00    +0.000 F 
ATOM     31  F   UNL     1       0.679   2.917  21.440  0.00  0.00    +0.000 F 
ENDBRANCH   5  28
BRANCH   1  32
ATOM     32  C   UNL     1       4.097   3.530  16.733  0.00  0.00    +0.000 C 
BRANCH  32  37
ATOM     33  C   UNL     1       7.365   5.440  16.469  0.00  0.00    +0.000 C 
ATOM     34  C   UNL     1       7.795   5.060  15.050  0.00  0.00    +0.000 C 
ATOM     35  C   UNL     1       6.574   4.955  14.139  0.00  0.00    +0.000 C 
ATOM     36  C   UNL     1       5.469   4.056  14.726  0.00  0.00    +0.000 C 
ATOM     37  N   UNL     1       5.113   4.400  16.116  0.00  0.00    +0.000 NA
ATOM     38  C   UNL     1       6.333   4.396  16.953  0.00  0.00    +0.000 C 
BRANCH  33  39
ATOM     39  O   UNL     1       6.853   6.784  16.423  0.00  0.00    +0.000 OA
BRANCH  39  41
ATOM     40  C   UNL     1       8.017   6.940  18.516  0.00  0.00    +0.000 C 
ATOM     41  C   UNL     1       7.509   7.693  17.299  0.00  0.00    +0.000 C 
ENDBRANCH  39  41
ENDBRANCH  33  39
ENDBRANCH  32  37
ENDBRANCH   1  32
TORSDOF 9
ENDMDL
MODEL 6
REMARK VINA RESULT:      -8.7      1.754      2.668
REMARK  Name = 
REMARK  11 active torsions:
REMARK  status: ('A' for Active; 'I' for Inactive)
REMARK    1  A    between atoms: C_1  and  C_2
REMARK    2  A    between atoms: C_2  and  O_3
REMARK    3  A    between atoms: O_3  and  C_4
REMARK    4  A    between atoms: N_8  and  C_9
REMARK    5  A    between atoms: C_9  and  C_10
REMARK    6  A    between atoms: C_14  and  C_15
REMARK    7  A    between atoms: N_21  and  C_22
REMARK    8  A    between atoms: C_26  and  C_27
REMARK    9  A    between atoms: C_27  and  C_28
REMARK   10  A    between atoms: C_28  and  C_29
REMARK   11  A    between atoms: N_33  and  C_34
REMARK                            x       y       z     vdW  Elec       q    Type
REMARK                         _______ _______ _______ _____ _____    ______ ____
ROOT
ATOM      1  C   UNL     1       0.519  11.572  19.250  0.00  0.00    +0.000 A 
ATOM      2  C   UNL     1       1.324  10.733  18.472  0.00  0.00    +0.000 A 
ATOM      3  C   UNL     1       1.564   9.470  18.950  0.00  0.00    +0.000 A 
ATOM      4  C   UNL     1       1.155   9.018  20.199  0.00  0.00    +0.000 A 
ATOM      5  C   UNL     1       0.469   9.868  21.052  0.00  0.00    +0.000 A 
ATOM      6  C   UNL     1       0.116  11.137  20.537  0.00  0.00    +0.000 A 
ATOM      7  C   UNL     1       1.587   7.604  20.369  0.00  0.00    +0.000 C 
ATOM      8  N   UNL     1       2.178   7.290  19.074  0.00  0.00    +0.000 N 
ATOM      9  C   UNL     1       2.228   8.395  18.242  0.00  0.00    +0.000 C 
ATOM     10  O   UNL     1       2.678   8.555  17.118  0.00  0.00    +0.000 OA
ENDROOT
BRANCH   8  11
ATOM     11  C   UNL     1       2.738   6.037  18.800  0.00  0.00    +0.000 A 
ATOM     12  C   UNL     1       2.378   4.913  19.542  0.00  0.00    +0.000 A 
ATOM     13  C   UNL     1       2.926   3.673  19.235  0.00  0.00    +0.000 A 
ATOM     14  C   UNL     1       3.869   3.570  18.230  0.00  0.00    +0.000 A 
ATOM     15  C   UNL     1       4.307   4.689  17.488  0.00  0.00    +0.000 A 
ATOM     16  C   UNL     1       3.672   5.904  17.771  0.00  0.00    +0.000 A 
BRANCH  15  17
ATOM     17  C   UNL     1       5.511   4.635  16.449  0.00  0.00    +0.000 C 
ATOM     18  C   UNL     1       5.469   3.615  15.262  0.00  0.00    +0.000 C 
ATOM     19  O   UNL     1       5.852   4.673  14.330  0.00  0.00    +0.000 OA
ATOM     20  C   UNL     1       5.318   5.643  15.264  0.00  0.00    +0.000 C 
BRANCH  17  21
ATOM     21  C   UNL     1       6.881   4.699  17.161  0.00  0.00    +0.000 C 
BRANCH  21  22
ATOM     22  C   UNL     1       7.385   6.076  17.491  0.00  0.00    +0.000 A 
ATOM     23  N   UNL     1       7.391   7.126  16.689  0.00  0.00    +0.000 NA
ATOM     24  N   UNL     1       7.944   8.190  17.363  0.00  0.00    +0.000 NA
ATOM     25  C   UNL     1       8.246   7.781  18.573  0.00  0.00    +0.000 A 
ATOM     26  N   UNL     1       7.893   6.473  18.708  0.00  0.00    +0.000 N 
ATOM     27  C   UNL     1       8.087   5.697  19.903  0.00  0.00    +0.000 C 
ENDBRANCH  21  22
ENDBRANCH  17  21
ENDBRANCH  15  17
ENDBRANCH   8  11
BRANCH   5  28
ATOM     28  C   UNL     1       0.137   9.471  22.470  0.00  0.00    +0.000 C 
ATOM     29  F   UNL     1      -0.736   8.431  22.549  0.00  0.00    +0.000 F 
ATOM     30  F   UNL     1       1.244   9.073  23.157  0.00  0.00    +0.000 F 
ATOM     31  F   UNL     1      -0.415  10.481  23.190  0.00  0.00    +0.000 F 
ENDBRANCH   5  28
BRANCH   1  32
ATOM     32  C   UNL     1       0.126  12.915  18.680  0.00  0.00    +0.000 C 
BRANCH  32  37
ATOM     33  C   UNL     1       2.369  15.474  20.359  0.00  0.00    +0.000 C 
ATOM     34  C   UNL     1       3.707  15.152  19.690  0.00  0.00    +0.000 C 
ATOM     35  C   UNL     1       3.487  14.758  18.232  0.00  0.00    +0.000 C 
ATOM     36  C   UNL     1       2.418  13.661  18.066  0.00  0.00    +0.000 C 
ATOM     37  N   UNL     1       1.157  13.963  18.769  0.00  0.00    +0.000 NA
ATOM     38  C   UNL     1       1.443  14.248  20.193  0.00  0.00    +0.000 C 
BRANCH  33  39
ATOM     39  O   UNL     1       1.858  16.675  19.752  0.00  0.00    +0.000 OA
BRANCH  39  41
ATOM     40  C   UNL     1       1.710  17.552  21.980  0.00  0.00    +0.000 C 
ATOM     41  C   UNL     1       1.054  17.472  20.614  0.00  0.00    +0.000 C 
ENDBRANCH  39  41
ENDBRANCH  33  39
ENDBRANCH  32  37
ENDBRANCH   1  32
TORSDOF 9
ENDMDL
MODEL 7
REMARK VINA RESULT:      -8.6      2.449      9.830
REMARK  Name = 
REMARK  11 active torsions:
REMARK  status: ('A' for Active; 'I' for Inactive)
REMARK    1  A    between atoms: C_1  and  C_2
REMARK    2  A    between atoms: C_2  and  O_3
REMARK    3  A    between atoms: O_3  and  C_4
REMARK    4  A    between atoms: N_8  and  C_9
REMARK    5  A    between atoms: C_9  and  C_10
REMARK    6  A    between atoms: C_14  and  C_15
REMARK    7  A    between atoms: N_21  and  C_22
REMARK    8  A    between atoms: C_26  and  C_27
REMARK    9  A    between atoms: C_27  and  C_28
REMARK   10  A    between atoms: C_28  and  C_29
REMARK   11  A    between atoms: N_33  and  C_34
REMARK                            x       y       z     vdW  Elec       q    Type
REMARK                         _______ _______ _______ _____ _____    ______ ____
ROOT
ATOM      1  C   UNL     1       3.678   3.942  17.926  0.00  0.00    +0.000 A 
ATOM      2  C   UNL     1       3.264   5.268  17.759  0.00  0.00    +0.000 A 
ATOM      3  C   UNL     1       2.615   5.862  18.810  0.00  0.00    +0.000 A 
ATOM      4  C   UNL     1       2.248   5.199  19.975  0.00  0.00    +0.000 A 
ATOM      5  C   UNL     1       2.525   3.849  20.120  0.00  0.00    +0.000 A 
ATOM      6  C   UNL     1       3.289   3.244  19.096  0.00  0.00    +0.000 A 
ATOM      7  C   UNL     1       1.571   6.161  20.888  0.00  0.00    +0.000 C 
ATOM      8  N   UNL     1       1.687   7.424  20.168  0.00  0.00    +0.000 N 
ATOM      9  C   UNL     1       2.248   7.259  18.914  0.00  0.00    +0.000 C 
ATOM     10  O   UNL     1       2.469   8.046  18.006  0.00  0.00    +0.000 OA
ENDROOT
BRANCH   8  11
ATOM     11  C   UNL     1       1.155   8.615  20.674  0.00  0.00    +0.000 A 
ATOM     12  C   UNL     1       1.060   8.832  22.048  0.00  0.00    +0.000 A 
ATOM     13  C   UNL     1       0.554  10.033  22.529  0.00  0.00    +0.000 A 
ATOM     14  C   UNL     1       0.095  10.988  21.642  0.00  0.00    +0.000 A 
ATOM     15  C   UNL     1       0.118  10.792  20.243  0.00  0.00    +0.000 A 
ATOM     16  C   UNL     1       0.710   9.605  19.796  0.00  0.00    +0.000 A 
BRANCH  15  17
ATOM     17  C   UNL     1      -0.559  11.791  19.206  0.00  0.00    +0.000 C 
ATOM     18  C   UNL     1      -1.582  11.244  18.154  0.00  0.00    +0.000 C 
ATOM     19  O   UNL     1      -2.506  12.329  18.478  0.00  0.00    +0.000 OA
ATOM     20  C   UNL     1      -1.867  12.440  19.774  0.00  0.00    +0.000 C 
BRANCH  17  21
ATOM     21  C   UNL     1       0.470  12.779  18.611  0.00  0.00    +0.000 C 
BRANCH  21  22
ATOM     22  C   UNL     1       0.400  14.189  19.126  0.00  0.00    +0.000 A 
ATOM     23  N   UNL     1      -0.322  15.175  18.626  0.00  0.00    +0.000 NA
ATOM     24  N   UNL     1      -0.100  16.306  19.376  0.00  0.00    +0.000 NA
ATOM     25  C   UNL     1       0.736  15.989  20.338  0.00  0.00    +0.000 A 
ATOM     26  N   UNL     1       1.057  14.670  20.237  0.00  0.00    +0.000 N 
ATOM     27  C   UNL     1       1.958  13.982  21.123  0.00  0.00    +0.000 C 
ENDBRANCH  21  22
ENDBRANCH  17  21
ENDBRANCH  15  17
ENDBRANCH   8  11
BRANCH   5  28
ATOM     28  C   UNL     1       2.014   3.057  21.299  0.00  0.00    +0.000 C 
ATOM     29  F   UNL     1       2.267   3.648  22.498  0.00  0.00    +0.000 F 
ATOM     30  F   UNL     1       0.663   2.889  21.250  0.00  0.00    +0.000 F 
ATOM     31  F   UNL     1       2.549   1.811  21.374  0.00  0.00    +0.000 F 
ENDBRANCH   5  28
BRANCH   1  32
ATOM     32  C   UNL     1       4.517   3.312  16.839  0.00  0.00    +0.000 C 
BRANCH  32  37
ATOM     33  C   UNL     1       7.677   5.180  15.875  0.00  0.00    +0.000 C 
ATOM     34  C   UNL     1       7.645   5.012  14.354  0.00  0.00    +0.000 C 
ATOM     35  C   UNL     1       6.206   5.069  13.846  0.00  0.00    +0.000 C 
ATOM     36  C   UNL     1       5.268   4.112  14.606  0.00  0.00    +0.000 C 
ATOM     37  N   UNL     1       5.359   4.247  16.072  0.00  0.00    +0.000 NA
ATOM     38  C   UNL     1       6.769   4.093  16.495  0.00  0.00    +0.000 C 
BRANCH  33  39
ATOM     39  O   UNL     1       7.259   6.525  16.173  0.00  0.00    +0.000 OA
BRANCH  39  41
ATOM     40  C   UNL     1       7.952   8.249  17.691  0.00  0.00    +0.000 C 
ATOM     41  C   UNL     1       7.333   6.870  17.551  0.00  0.00    +0.000 C 
ENDBRANCH  39  41
ENDBRANCH  33  39
ENDBRANCH  32  37
ENDBRANCH   1  32
TORSDOF 9
ENDMDL
MODEL 8
REMARK VINA RESULT:      -8.6      3.721      4.976
REMARK  Name = 
REMARK  11 active torsions:
REMARK  status: ('A' for Active; 'I' for Inactive)
REMARK    1  A    between atoms: C_1  and  C_2
REMARK    2  A    between atoms: C_2  and  O_3
REMARK    3  A    between atoms: O_3  and  C_4
REMARK    4  A    between atoms: N_8  and  C_9
REMARK    5  A    between atoms: C_9  and  C_10
REMARK    6  A    between atoms: C_14  and  C_15
REMARK    7  A    between atoms: N_21  and  C_22
REMARK    8  A    between atoms: C_26  and  C_27
REMARK    9  A    between atoms: C_27  and  C_28
REMARK   10  A    between atoms: C_28  and  C_29
REMARK   11  A    between atoms: N_33  and  C_34
REMARK                            x       y       z     vdW  Elec       q    Type
REMARK                         _______ _______ _______ _____ _____    ______ ____
ROOT
ATOM      1  C   UNL     1      -1.435  11.684  22.059  0.00  0.00    +0.000 A 
ATOM      2  C   UNL     1      -0.463  10.679  22.117  0.00  0.00    +0.000 A 
ATOM      3  C   UNL     1      -0.035  10.148  20.928  0.00  0.00    +0.000 A 
ATOM      4  C   UNL     1      -0.584  10.463  19.691  0.00  0.00    +0.000 A 
ATOM      5  C   UNL     1      -1.640  11.357  19.609  0.00  0.00    +0.000 A 
ATOM      6  C   UNL     1      -2.024  11.998  20.810  0.00  0.00    +0.000 A 
ATOM      7  C   UNL     1       0.134   9.701  18.633  0.00  0.00    +0.000 C 
ATOM      8  N   UNL     1       1.184   9.021  19.381  0.00  0.00    +0.000 N 
ATOM      9  C   UNL     1       1.065   9.225  20.746  0.00  0.00    +0.000 C 
ATOM     10  O   UNL     1       1.706   8.801  21.695  0.00  0.00    +0.000 OA
ENDROOT
BRANCH   8  11
ATOM     11  C   UNL     1       2.100   8.165  18.761  0.00  0.00    +0.000 A 
ATOM     12  C   UNL     1       2.852   8.590  17.667  0.00  0.00    +0.000 A 
ATOM     13  C   UNL     1       3.775   7.732  17.083  0.00  0.00    +0.000 A 
ATOM     14  C   UNL     1       3.905   6.440  17.554  0.00  0.00    +0.000 A 
ATOM     15  C   UNL     1       3.127   5.945  18.624  0.00  0.00    +0.000 A 
ATOM     16  C   UNL     1       2.267   6.863  19.238  0.00  0.00    +0.000 A 
BRANCH  15  17
ATOM     17  C   UNL     1       3.126   4.419  19.076  0.00  0.00    +0.000 C 
ATOM     18  C   UNL     1       2.722   4.043  20.542  0.00  0.00    +0.000 C 
ATOM     19  O   UNL     1       1.840   2.994  20.037  0.00  0.00    +0.000 OA
ATOM     20  C   UNL     1       1.758   3.713  18.782  0.00  0.00    +0.000 C 
BRANCH  17  21
ATOM     21  C   UNL     1       4.382   3.674  18.571  0.00  0.00    +0.000 C 
BRANCH  21  22
ATOM     22  C   UNL     1       5.694   4.370  18.802  0.00  0.00    +0.000 A 
ATOM     23  N   UNL     1       6.155   4.820  19.954  0.00  0.00    +0.000 NA
ATOM     24  N   UNL     1       7.383   5.402  19.739  0.00  0.00    +0.000 NA
ATOM     25  C   UNL     1       7.665   5.277  18.463  0.00  0.00    +0.000 A 
ATOM     26  N   UNL     1       6.650   4.617  17.841  0.00  0.00    +0.000 N 
ATOM     27  C   UNL     1       6.619   4.312  16.435  0.00  0.00    +0.000 C 
ENDBRANCH  21  22
ENDBRANCH  17  21
ENDBRANCH  15  17
ENDBRANCH   8  11
BRANCH   5  28
ATOM     28  C   UNL     1      -2.363  11.614  18.310  0.00  0.00    +0.000 C 
ATOM     29  F   UNL     1      -3.514  12.324  18.463  0.00  0.00    +0.000 F 
ATOM     30  F   UNL     1      -1.602  12.335  17.440  0.00  0.00    +0.000 F 
ATOM     31  F   UNL     1      -2.709  10.475  17.658  0.00  0.00    +0.000 F 
ENDBRANCH   5  28
BRANCH   1  32
ATOM     32  C   UNL     1      -1.819  12.381  23.344  0.00  0.00    +0.000 C 
BRANCH  32  37
ATOM     33  C   UNL     1      -5.144  14.153  23.800  0.00  0.00    +0.000 C 
ATOM     34  C   UNL     1      -4.662  15.555  24.178  0.00  0.00    +0.000 C 
ATOM     35  C   UNL     1      -3.394  15.904  23.402  0.00  0.00    +0.000 C 
ATOM     36  C   UNL     1      -2.311  14.814  23.509  0.00  0.00    +0.000 C 
ATOM     37  N   UNL     1      -2.812  13.461  23.201  0.00  0.00    +0.000 NA
ATOM     38  C   UNL     1      -3.984  13.163  24.053  0.00  0.00    +0.000 C 
BRANCH  33  39
ATOM     39  O   UNL     1      -5.581  14.197  22.430  0.00  0.00    +0.000 OA
BRANCH  39  41
ATOM     40  C   UNL     1      -7.396  12.659  22.744  0.00  0.00    +0.000 C 
ATOM     41  C   UNL     1      -6.141  12.980  21.952  0.00  0.00    +0.000 C 
ENDBRANCH  39  41
ENDBRANCH  33  39
ENDBRANCH  32  37
ENDBRANCH   1  32
TORSDOF 9
ENDMDL
MODEL 9
REMARK VINA RESULT:      -8.5      2.768      9.490
REMARK  Name = 
REMARK  11 active torsions:
REMARK  status: ('A' for Active; 'I' for Inactive)
REMARK    1  A    between atoms: C_1  and  C_2
REMARK    2  A    between atoms: C_2  and  O_3
REMARK    3  A    between atoms: O_3  and  C_4
REMARK    4  A    between atoms: N_8  and  C_9
REMARK    5  A    between atoms: C_9  and  C_10
REMARK    6  A    between atoms: C_14  and  C_15
REMARK    7  A    between atoms: N_21  and  C_22
REMARK    8  A    between atoms: C_26  and  C_27
REMARK    9  A    between atoms: C_27  and  C_28
REMARK   10  A    between atoms: C_28  and  C_29
REMARK   11  A    between atoms: N_33  and  C_34
REMARK                            x       y       z     vdW  Elec       q    Type
REMARK                         _______ _______ _______ _____ _____    ______ ____
ROOT
ATOM      1  C   UNL     1       3.388   4.074  17.859  0.00  0.00    +0.000 A 
ATOM      2  C   UNL     1       2.894   5.376  17.722  0.00  0.00    +0.000 A 
ATOM      3  C   UNL     1       2.328   5.954  18.830  0.00  0.00    +0.000 A 
ATOM      4  C   UNL     1       2.117   5.291  20.033  0.00  0.00    +0.000 A 
ATOM      5  C   UNL     1       2.473   3.957  20.161  0.00  0.00    +0.000 A 
ATOM      6  C   UNL     1       3.157   3.375  19.068  0.00  0.00    +0.000 A 
ATOM      7  C   UNL     1       1.490   6.231  21.001  0.00  0.00    +0.000 C 
ATOM      8  N   UNL     1       1.469   7.488  20.263  0.00  0.00    +0.000 N 
ATOM      9  C   UNL     1       1.905   7.332  18.958  0.00  0.00    +0.000 C 
ATOM     10  O   UNL     1       1.993   8.116  18.025  0.00  0.00    +0.000 OA
ENDROOT
BRANCH   8  11
ATOM     11  C   UNL     1       0.933   8.659  20.810  0.00  0.00    +0.000 A 
ATOM     12  C   UNL     1       0.983   8.898  22.183  0.00  0.00    +0.000 A 
ATOM     13  C   UNL     1       0.470  10.080  22.701  0.00  0.00    +0.000 A 
ATOM     14  C   UNL     1      -0.138  10.992  21.860  0.00  0.00    +0.000 A 
ATOM     15  C   UNL     1      -0.262  10.771  20.470  0.00  0.00    +0.000 A 
ATOM     16  C   UNL     1       0.339   9.607  19.975  0.00  0.00    +0.000 A 
BRANCH  15  17
ATOM     17  C   UNL     1      -1.105  11.712  19.504  0.00  0.00    +0.000 C 
ATOM     18  C   UNL     1      -2.128  11.080  18.500  0.00  0.00    +0.000 C 
ATOM     19  O   UNL     1      -3.140  12.051  18.909  0.00  0.00    +0.000 OA
ATOM     20  C   UNL     1      -2.438  12.202  20.167  0.00  0.00    +0.000 C 
BRANCH  17  21
ATOM     21  C   UNL     1      -0.227  12.818  18.877  0.00  0.00    +0.000 C 
BRANCH  21  22
ATOM     22  C   UNL     1       0.908  13.315  19.728  0.00  0.00    +0.000 A 
ATOM     23  N   UNL     1       0.811  13.891  20.912  0.00  0.00    +0.000 NA
ATOM     24  N   UNL     1       2.076  14.208  21.351  0.00  0.00    +0.000 NA
ATOM     25  C   UNL     1       2.928  13.799  20.439  0.00  0.00    +0.000 A 
ATOM     26  N   UNL     1       2.246  13.213  19.417  0.00  0.00    +0.000 N 
ATOM     27  C   UNL     1       2.862  12.657  18.242  0.00  0.00    +0.000 C 
ENDBRANCH  21  22
ENDBRANCH  17  21
ENDBRANCH  15  17
ENDBRANCH   8  11
BRANCH   5  28
ATOM     28  C   UNL     1       2.126   3.158  21.393  0.00  0.00    +0.000 C 
ATOM     29  F   UNL     1       0.825   2.762  21.432  0.00  0.00    +0.000 F 
ATOM     30  F   UNL     1       2.860   2.013  21.478  0.00  0.00    +0.000 F 
ATOM     31  F   UNL     1       2.347   3.838  22.547  0.00  0.00    +0.000 F 
ENDBRANCH   5  28
BRANCH   1  32
ATOM     32  C   UNL     1       4.140   3.470  16.695  0.00  0.00    +0.000 C 
BRANCH  32  37
ATOM     33  C   UNL     1       7.346   5.474  16.360  0.00  0.00    +0.000 C 
ATOM     34  C   UNL     1       7.772   5.081  14.944  0.00  0.00    +0.000 C 
ATOM     35  C   UNL     1       6.545   4.922  14.049  0.00  0.00    +0.000 C 
ATOM     36  C   UNL     1       5.474   4.000  14.664  0.00  0.00    +0.000 C 
ATOM     37  N   UNL     1       5.123   4.359  16.051  0.00  0.00    +0.000 NA
ATOM     38  C   UNL     1       6.351   4.408  16.874  0.00  0.00    +0.000 C 
BRANCH  33  39
ATOM     39  O   UNL     1       6.792   6.801  16.296  0.00  0.00    +0.000 OA
BRANCH  39  41
ATOM     40  C   UNL     1       7.975   8.335  17.712  0.00  0.00    +0.000 C 
ATOM     41  C   UNL     1       6.735   7.474  17.547  0.00  0.00    +0.000 C 
ENDBRANCH  39  41
ENDBRANCH  33  39
ENDBRANCH  32  37
ENDBRANCH   1  32
TORSDOF 9
ENDMDL
