MODEL 1
REMARK VINA RESULT:     -10.5      0.000      0.000
REMARK  Name = 
REMARK  9 active torsions:
REMARK  status: ('A' for Active; 'I' for Inactive)
REMARK    1  A    between atoms: C_1  and  C_2
REMARK    2  A    between atoms: C_2  and  C_3
REMARK    3  A    between atoms: C_2  and  N_35
REMARK    4  A    between atoms: C_7  and  C_8
REMARK    5  A    between atoms: N_14  and  C_15
REMARK    6  A    between atoms: C_19  and  C_20
REMARK    7  A    between atoms: C_20  and  C_21
REMARK    8  A    between atoms: C_21  and  C_23
REMARK    9  A    between atoms: N_27  and  C_28
REMARK                            x       y       z     vdW  Elec       q    Type
REMARK                         _______ _______ _______ _____ _____    ______ ____
ROOT
ATOM      1  C   UNL     1      -0.679  11.206  19.401  0.00  0.00    +0.000 A 
ATOM      2  C   UNL     1       0.298  10.509  18.685  0.00  0.00    +0.000 A 
ATOM      3  C   UNL     1       0.945   9.468  19.315  0.00  0.00    +0.000 A 
ATOM      4  C   UNL     1       0.728   9.121  20.640  0.00  0.00    +0.000 A 
ATOM      5  C   UNL     1      -0.121   9.891  21.432  0.00  0.00    +0.000 A 
ATOM      6  C   UNL     1      -0.832  10.932  20.787  0.00  0.00    +0.000 A 
ATOM      7  C   UNL     1       1.464   7.852  20.935  0.00  0.00    +0.000 C 
ATOM      8  N   UNL     1       2.132   7.542  19.675  0.00  0.00    +0.000 N 
ATOM      9  C   UNL     1       1.844   8.494  18.699  0.00  0.00    +0.000 C 
ATOM     10  O   UNL     1       2.172   8.583  17.531  0.00  0.00    +0.000 OA
ENDROOT
BRANCH   8  11
ATOM     11  C   UNL     1       2.906   6.370  19.475  0.00  0.00    +0.000 A 
ATOM     12  C   UNL     1       2.384   5.106  19.746  0.00  0.00    +0.000 A 
ATOM     13  C   UNL     1       3.170   3.972  19.610  0.00  0.00    +0.000 A 
ATOM     14  C   UNL     1       4.500   4.090  19.213  0.00  0.00    +0.000 A 
ATOM     15  C   UNL     1       5.086   5.325  18.869  0.00  0.00    +0.000 A 
ATOM     16  C   UNL     1       4.235   6.450  19.014  0.00  0.00    +0.000 A 
BRANCH  15  17
ATOM     17  C   UNL     1       6.640   5.455  18.394  0.00  0.00    +0.000 C 
ATOM     18  C   UNL     1       7.120   6.806  17.787  0.00  0.00    +0.000 C 
ATOM     19  O   UNL     1       8.312   6.783  18.611  0.00  0.00    +0.000 OA
ATOM     20  C   UNL     1       7.680   5.813  19.489  0.00  0.00    +0.000 C 
BRANCH  17  21
ATOM     21  C   UNL     1       7.101   4.333  17.444  0.00  0.00    +0.000 C 
ATOM     22  F   UNL     1       8.434   4.128  17.674  0.00  0.00    +0.000 F 
BRANCH  21  23
ATOM     23  C   UNL     1       6.827   4.574  15.996  0.00  0.00    +0.000 A 
ATOM     24  N   UNL     1       7.634   5.182  15.144  0.00  0.00    +0.000 NA
ATOM     25  N   UNL     1       7.047   5.168  13.905  0.00  0.00    +0.000 NA
ATOM     26  C   UNL     1       5.883   4.574  14.024  0.00  0.00    +0.000 A 
ATOM     27  N   UNL     1       5.704   4.177  15.312  0.00  0.00    +0.000 N 
ATOM     28  C   UNL     1       4.576   3.440  15.813  0.00  0.00    +0.000 C 
ENDBRANCH  21  23
ENDBRANCH  17  21
ENDBRANCH  15  17
ENDBRANCH   8  11
BRANCH   5  29
ATOM     29  C   UNL     1      -0.309   9.623  22.901  0.00  0.00    +0.000 C 
ATOM     30  F   UNL     1       0.865   9.489  23.583  0.00  0.00    +0.000 F 
ATOM     31  F   UNL     1      -0.985  10.622  23.532  0.00  0.00    +0.000 F 
ATOM     32  F   UNL     1      -1.007   8.480  23.145  0.00  0.00    +0.000 F 
ENDBRANCH   5  29
BRANCH   1  34
ATOM     33  C   UNL     1      -1.823  13.480  19.457  0.00  0.00    +0.000 C 
ATOM     34  C   UNL     1      -1.643  12.156  18.681  0.00  0.00    +0.000 C 
BRANCH  34  35
ATOM     35  N   UNL     1      -2.882  11.498  18.252  0.00  0.00    +0.000 NA
ATOM     36  C   UNL     1      -3.028  11.419  16.791  0.00  0.00    +0.000 C 
ATOM     37  C   UNL     1      -4.451  10.923  16.615  0.00  0.00    +0.000 C 
ATOM     38  C   UNL     1      -5.162  11.555  17.778  0.00  0.00    +0.000 C 
ATOM     39  C   UNL     1      -6.472  10.972  18.254  0.00  0.00    +0.000 C 
ATOM     40  C   UNL     1      -6.457  12.308  17.568  0.00  0.00    +0.000 C 
ATOM     41  C   UNL     1      -4.132  12.081  18.759  0.00  0.00    +0.000 C 
ENDBRANCH  34  35
ENDBRANCH   1  34
TORSDOF 7
ENDMDL
MODEL 2
REMARK VINA RESULT:     -10.1      0.878      1.385
REMARK  Name = 
REMARK  9 active torsions:
REMARK  status: ('A' for Active; 'I' for Inactive)
REMARK    1  A    between atoms: C_1  and  C_2
REMARK    2  A    between atoms: C_2  and  C_3
REMARK    3  A    between atoms: C_2  and  N_35
REMARK    4  A    between atoms: C_7  and  C_8
REMARK    5  A    between atoms: N_14  and  C_15
REMARK    6  A    between atoms: C_19  and  C_20
REMARK    7  A    between atoms: C_20  and  C_21
REMARK    8  A    between atoms: C_21  and  C_23
REMARK    9  A    between atoms: N_27  and  C_28
REMARK                            x       y       z     vdW  Elec       q    Type
REMARK                         _______ _______ _______ _____ _____    ______ ____
ROOT
ATOM      1  C   UNL     1      -0.441  11.689  19.688  0.00  0.00    +0.000 A 
ATOM      2  C   UNL     1       0.489  11.073  18.845  0.00  0.00    +0.000 A 
ATOM      3  C   UNL     1       1.048   9.883  19.256  0.00  0.00    +0.000 A 
ATOM      4  C   UNL     1       0.789   9.300  20.488  0.00  0.00    +0.000 A 
ATOM      5  C   UNL     1      -0.009   9.962  21.418  0.00  0.00    +0.000 A 
ATOM      6  C   UNL     1      -0.632  11.160  20.992  0.00  0.00    +0.000 A 
ATOM      7  C   UNL     1       1.424   7.945  20.526  0.00  0.00    +0.000 C 
ATOM      8  N   UNL     1       2.082   7.838  19.228  0.00  0.00    +0.000 N 
ATOM      9  C   UNL     1       1.879   8.983  18.459  0.00  0.00    +0.000 C 
ATOM     10  O   UNL     1       2.227   9.274  17.330  0.00  0.00    +0.000 OA
ENDROOT
BRANCH   8  11
ATOM     11  C   UNL     1       2.768   6.673  18.799  0.00  0.00    +0.000 A 
ATOM     12  C   UNL     1       2.092   5.469  18.605  0.00  0.00    +0.000 A 
ATOM     13  C   UNL     1       2.782   4.321  18.250  0.00  0.00    +0.000 A 
ATOM     14  C   UNL     1       4.166   4.358  18.097  0.00  0.00    +0.000 A 
ATOM     15  C   UNL     1       4.915   5.546  18.222  0.00  0.00    +0.000 A 
ATOM     16  C   UNL     1       4.159   6.693  18.575  0.00  0.00    +0.000 A 
BRANCH  15  17
ATOM     17  C   UNL     1       6.533   5.586  18.032  0.00  0.00    +0.000 C 
ATOM     18  C   UNL     1       7.191   6.912  17.549  0.00  0.00    +0.000 C 
ATOM     19  O   UNL     1       8.215   6.806  18.569  0.00  0.00    +0.000 OA
ATOM     20  C   UNL     1       7.383   5.866  19.300  0.00  0.00    +0.000 C 
BRANCH  17  21
ATOM     21  C   UNL     1       7.089   4.449  17.152  0.00  0.00    +0.000 C 
ATOM     22  F   UNL     1       8.334   4.138  17.628  0.00  0.00    +0.000 F 
BRANCH  21  23
ATOM     23  C   UNL     1       7.121   4.736  15.687  0.00  0.00    +0.000 A 
ATOM     24  N   UNL     1       7.972   5.536  15.071  0.00  0.00    +0.000 NA
ATOM     25  N   UNL     1       7.705   5.503  13.727  0.00  0.00    +0.000 NA
ATOM     26  C   UNL     1       6.681   4.702  13.546  0.00  0.00    +0.000 A 
ATOM     27  N   UNL     1       6.286   4.191  14.742  0.00  0.00    +0.000 N 
ATOM     28  C   UNL     1       5.234   3.231  14.937  0.00  0.00    +0.000 C 
ENDBRANCH  21  23
ENDBRANCH  17  21
ENDBRANCH  15  17
ENDBRANCH   8  11
BRANCH   5  29
ATOM     29  C   UNL     1      -0.235   9.425  22.807  0.00  0.00    +0.000 C 
ATOM     30  F   UNL     1       0.909   9.329  23.544  0.00  0.00    +0.000 F 
ATOM     31  F   UNL     1      -1.075  10.208  23.538  0.00  0.00    +0.000 F 
ATOM     32  F   UNL     1      -0.780   8.178  22.810  0.00  0.00    +0.000 F 
ENDBRANCH   5  29
BRANCH   1  34
ATOM     33  C   UNL     1      -1.882  13.688  20.330  0.00  0.00    +0.000 C 
ATOM     34  C   UNL     1      -1.322  12.832  19.171  0.00  0.00    +0.000 C 
BRANCH  34  35
ATOM     35  N   UNL     1      -2.304  12.393  18.173  0.00  0.00    +0.000 NA
ATOM     36  C   UNL     1      -3.467  11.708  18.756  0.00  0.00    +0.000 C 
ATOM     37  C   UNL     1      -4.192  11.168  17.538  0.00  0.00    +0.000 C 
ATOM     38  C   UNL     1      -3.062  10.851  16.600  0.00  0.00    +0.000 C 
ATOM     39  C   UNL     1      -3.337  10.728  15.119  0.00  0.00    +0.000 C 
ATOM     40  C   UNL     1      -2.986   9.505  15.916  0.00  0.00    +0.000 C 
ATOM     41  C   UNL     1      -1.796  11.511  17.113  0.00  0.00    +0.000 C 
ENDBRANCH  34  35
ENDBRANCH   1  34
TORSDOF 7
ENDMDL
MODEL 3
REMARK VINA RESULT:      -9.9      1.642      2.709
REMARK  Name = 
REMARK  9 active torsions:
REMARK  status: ('A' for Active; 'I' for Inactive)
REMARK    1  A    between atoms: C_1  and  C_2
REMARK    2  A    between atoms: C_2  and  C_3
REMARK    3  A    between atoms: C_2  and  N_35
REMARK    4  A    between atoms: C_7  and  C_8
REMARK    5  A    between atoms: N_14  and  C_15
REMARK    6  A    between atoms: C_19  and  C_20
REMARK    7  A    between atoms: C_20  and  C_21
REMARK    8  A    between atoms: C_21  and  C_23
REMARK    9  A    between atoms: N_27  and  C_28
REMARK                            x       y       z     vdW  Elec       q    Type
REMARK                         _______ _______ _______ _____ _____    ______ ____
ROOT
ATOM      1  C   UNL     1       0.107  11.617  19.476  0.00  0.00    +0.000 A 
ATOM      2  C   UNL     1       0.937  10.848  18.654  0.00  0.00    +0.000 A 
ATOM      3  C   UNL     1       1.350   9.618  19.119  0.00  0.00    +0.000 A 
ATOM      4  C   UNL     1       1.043   9.134  20.383  0.00  0.00    +0.000 A 
ATOM      5  C   UNL     1       0.352   9.937  21.287  0.00  0.00    +0.000 A 
ATOM      6  C   UNL     1      -0.124  11.182  20.808  0.00  0.00    +0.000 A 
ATOM      7  C   UNL     1       1.503   7.713  20.482  0.00  0.00    +0.000 C 
ATOM      8  N   UNL     1       2.118   7.461  19.183  0.00  0.00    +0.000 N 
ATOM      9  C   UNL     1       2.046   8.583  18.359  0.00  0.00    +0.000 C 
ATOM     10  O   UNL     1       2.406   8.771  17.212  0.00  0.00    +0.000 OA
ENDROOT
BRANCH   8  11
ATOM     11  C   UNL     1       2.645   6.198  18.806  0.00  0.00    +0.000 A 
ATOM     12  C   UNL     1       2.172   5.020  19.380  0.00  0.00    +0.000 A 
ATOM     13  C   UNL     1       2.738   3.797  19.054  0.00  0.00    +0.000 A 
ATOM     14  C   UNL     1       3.800   3.739  18.154  0.00  0.00    +0.000 A 
ATOM     15  C   UNL     1       4.299   4.878  17.490  0.00  0.00    +0.000 A 
ATOM     16  C   UNL     1       3.677   6.100  17.852  0.00  0.00    +0.000 A 
BRANCH  15  17
ATOM     17  C   UNL     1       5.535   4.803  16.430  0.00  0.00    +0.000 C 
ATOM     18  C   UNL     1       5.553   3.643  15.391  0.00  0.00    +0.000 C 
ATOM     19  O   UNL     1       5.873   4.568  14.323  0.00  0.00    +0.000 OA
ATOM     20  C   UNL     1       5.415   5.672  15.150  0.00  0.00    +0.000 C 
BRANCH  17  21
ATOM     21  C   UNL     1       6.928   4.856  17.087  0.00  0.00    +0.000 C 
ATOM     22  F   UNL     1       6.898   4.021  18.171  0.00  0.00    +0.000 F 
BRANCH  21  23
ATOM     23  C   UNL     1       7.402   6.221  17.461  0.00  0.00    +0.000 A 
ATOM     24  N   UNL     1       7.350   7.298  16.698  0.00  0.00    +0.000 NA
ATOM     25  N   UNL     1       7.841   8.361  17.412  0.00  0.00    +0.000 NA
ATOM     26  C   UNL     1       8.208   7.912  18.589  0.00  0.00    +0.000 A 
ATOM     27  N   UNL     1       7.945   6.581  18.671  0.00  0.00    +0.000 N 
ATOM     28  C   UNL     1       8.154   5.755  19.828  0.00  0.00    +0.000 C 
ENDBRANCH  21  23
ENDBRANCH  17  21
ENDBRANCH  15  17
ENDBRANCH   8  11
BRANCH   5  29
ATOM     29  C   UNL     1       0.086   9.502  22.704  0.00  0.00    +0.000 C 
ATOM     30  F   UNL     1      -0.719   8.404  22.793  0.00  0.00    +0.000 F 
ATOM     31  F   UNL     1       1.225   9.174  23.372  0.00  0.00    +0.000 F 
ATOM     32  F   UNL     1      -0.525  10.465  23.447  0.00  0.00    +0.000 F 
ENDBRANCH   5  29
BRANCH   1  34
ATOM     33  C   UNL     1      -0.869  13.910  19.997  0.00  0.00    +0.000 C 
ATOM     34  C   UNL     1      -0.633  12.835  18.912  0.00  0.00    +0.000 C 
BRANCH  34  35
ATOM     35  N   UNL     1      -1.807  12.472  18.111  0.00  0.00    +0.000 NA
ATOM     36  C   UNL     1      -2.928  11.960  18.912  0.00  0.00    +0.000 C 
ATOM     37  C   UNL     1      -3.899  11.456  17.860  0.00  0.00    +0.000 C 
ATOM     38  C   UNL     1      -2.979  10.962  16.779  0.00  0.00    +0.000 C 
ATOM     39  C   UNL     1      -3.505  10.805  15.371  0.00  0.00    +0.000 C 
ATOM     40  C   UNL     1      -3.167   9.586  16.181  0.00  0.00    +0.000 C 
ATOM     41  C   UNL     1      -1.581  11.487  17.043  0.00  0.00    +0.000 C 
ENDBRANCH  34  35
ENDBRANCH   1  34
TORSDOF 7
ENDMDL
MODEL 4
REMARK VINA RESULT:      -9.8      1.799      2.825
REMARK  Name = 
REMARK  9 active torsions:
REMARK  status: ('A' for Active; 'I' for Inactive)
REMARK    1  A    between atoms: C_1  and  C_2
REMARK    2  A    between atoms: C_2  and  C_3
REMARK    3  A    between atoms: C_2  and  N_35
REMARK    4  A    between atoms: C_7  and  C_8
REMARK    5  A    between atoms: N_14  and  C_15
REMARK    6  A    between atoms: C_19  and  C_20
REMARK    7  A    between atoms: C_20  and  C_21
REMARK    8  A    between atoms: C_21  and  C_23
REMARK    9  A    between atoms: N_27  and  C_28
REMARK                            x       y       z     vdW  Elec       q    Type
REMARK                         _______ _______ _______ _____ _____    ______ ____
ROOT
ATOM      1  C   UNL     1       0.007  11.519  19.391  0.00  0.00    +0.000 A 
ATOM      2  C   UNL     1       0.881  10.783  18.584  0.00  0.00    +0.000 A 
ATOM      3  C   UNL     1       1.349   9.580  19.065  0.00  0.00    +0.000 A 
ATOM      4  C   UNL     1       1.055   9.094  20.330  0.00  0.00    +0.000 A 
ATOM      5  C   UNL     1       0.318   9.871  21.221  0.00  0.00    +0.000 A 
ATOM      6  C   UNL     1      -0.213  11.086  20.726  0.00  0.00    +0.000 A 
ATOM      7  C   UNL     1       1.583   7.698  20.447  0.00  0.00    +0.000 C 
ATOM      8  N   UNL     1       2.221   7.463  19.156  0.00  0.00    +0.000 N 
ATOM      9  C   UNL     1       2.100   8.572  18.320  0.00  0.00    +0.000 C 
ATOM     10  O   UNL     1       2.461   8.766  17.174  0.00  0.00    +0.000 OA
ENDROOT
BRANCH   8  11
ATOM     11  C   UNL     1       2.810   6.224  18.796  0.00  0.00    +0.000 A 
ATOM     12  C   UNL     1       2.555   5.065  19.526  0.00  0.00    +0.000 A 
ATOM     13  C   UNL     1       3.188   3.873  19.206  0.00  0.00    +0.000 A 
ATOM     14  C   UNL     1       4.101   3.830  18.155  0.00  0.00    +0.000 A 
ATOM     15  C   UNL     1       4.373   4.944  17.335  0.00  0.00    +0.000 A 
ATOM     16  C   UNL     1       3.690   6.132  17.699  0.00  0.00    +0.000 A 
BRANCH  15  17
ATOM     17  C   UNL     1       5.434   4.885  16.100  0.00  0.00    +0.000 C 
ATOM     18  C   UNL     1       5.974   3.495  15.651  0.00  0.00    +0.000 C 
ATOM     19  O   UNL     1       5.746   3.826  14.259  0.00  0.00    +0.000 OA
ATOM     20  C   UNL     1       4.842   4.889  14.665  0.00  0.00    +0.000 C 
BRANCH  17  21
ATOM     21  C   UNL     1       6.648   5.818  16.271  0.00  0.00    +0.000 C 
ATOM     22  F   UNL     1       7.550   5.495  15.294  0.00  0.00    +0.000 F 
BRANCH  21  23
ATOM     23  C   UNL     1       7.279   5.798  17.624  0.00  0.00    +0.000 A 
ATOM     24  N   UNL     1       7.464   4.730  18.379  0.00  0.00    +0.000 NA
ATOM     25  N   UNL     1       8.110   5.114  19.525  0.00  0.00    +0.000 NA
ATOM     26  C   UNL     1       8.289   6.413  19.464  0.00  0.00    +0.000 A 
ATOM     27  N   UNL     1       7.793   6.885  18.289  0.00  0.00    +0.000 N 
ATOM     28  C   UNL     1       7.860   8.248  17.839  0.00  0.00    +0.000 C 
ENDBRANCH  21  23
ENDBRANCH  17  21
ENDBRANCH  15  17
ENDBRANCH   8  11
BRANCH   5  29
ATOM     29  C   UNL     1       0.062   9.438  22.640  0.00  0.00    +0.000 C 
ATOM     30  F   UNL     1       1.203   9.164  23.338  0.00  0.00    +0.000 F 
ATOM     31  F   UNL     1      -0.589  10.387  23.366  0.00  0.00    +0.000 F 
ATOM     32  F   UNL     1      -0.696   8.311  22.721  0.00  0.00    +0.000 F 
ENDBRANCH   5  29
BRANCH   1  34
ATOM     33  C   UNL     1      -1.081  13.768  19.881  0.00  0.00    +0.000 C 
ATOM     34  C   UNL     1      -0.786  12.694  18.809  0.00  0.00    +0.000 C 
BRANCH  34  35
ATOM     35  N   UNL     1      -1.935  12.267  18.003  0.00  0.00    +0.000 NA
ATOM     36  C   UNL     1      -2.941  11.516  18.769  0.00  0.00    +0.000 C 
ATOM     37  C   UNL     1      -3.880  11.006  17.691  0.00  0.00    +0.000 C 
ATOM     38  C   UNL     1      -2.952  10.773  16.534  0.00  0.00    +0.000 C 
ATOM     39  C   UNL     1      -3.513  10.707  15.132  0.00  0.00    +0.000 C 
ATOM     40  C   UNL     1      -2.979   9.462  15.779  0.00  0.00    +0.000 C 
ATOM     41  C   UNL     1      -1.626  11.452  16.819  0.00  0.00    +0.000 C 
ENDBRANCH  34  35
ENDBRANCH   1  34
TORSDOF 7
ENDMDL
MODEL 5
REMARK VINA RESULT:      -9.6      2.525      4.191
REMARK  Name = 
REMARK  9 active torsions:
REMARK  status: ('A' for Active; 'I' for Inactive)
REMARK    1  A    between atoms: C_1  and  C_2
REMARK    2  A    between atoms: C_2  and  C_3
REMARK    3  A    between atoms: C_2  and  N_35
REMARK    4  A    between atoms: C_7  and  C_8
REMARK    5  A    between atoms: N_14  and  C_15
REMARK    6  A    between atoms: C_19  and  C_20
REMARK    7  A    between atoms: C_20  and  C_21
REMARK    8  A    between atoms: C_21  and  C_23
REMARK    9  A    between atoms: N_27  and  C_28
REMARK                            x       y       z     vdW  Elec       q    Type
REMARK                         _______ _______ _______ _____ _____    ______ ____
ROOT
ATOM      1  C   UNL     1       0.412  11.665  19.623  0.00  0.00    +0.000 A 
ATOM      2  C   UNL     1       1.172  10.899  18.734  0.00  0.00    +0.000 A 
ATOM      3  C   UNL     1       1.497   9.612  19.103  0.00  0.00    +0.000 A 
ATOM      4  C   UNL     1       1.171   9.061  20.333  0.00  0.00    +0.000 A 
ATOM      5  C   UNL     1       0.553   9.845  21.305  0.00  0.00    +0.000 A 
ATOM      6  C   UNL     1       0.166  11.153  20.925  0.00  0.00    +0.000 A 
ATOM      7  C   UNL     1       1.525   7.607  20.322  0.00  0.00    +0.000 C 
ATOM      8  N   UNL     1       2.104   7.405  18.998  0.00  0.00    +0.000 N 
ATOM      9  C   UNL     1       2.105   8.586  18.258  0.00  0.00    +0.000 C 
ATOM     10  O   UNL     1       2.464   8.830  17.121  0.00  0.00    +0.000 OA
ENDROOT
BRANCH   8  11
ATOM     11  C   UNL     1       2.529   6.138  18.523  0.00  0.00    +0.000 A 
ATOM     12  C   UNL     1       1.844   4.973  18.863  0.00  0.00    +0.000 A 
ATOM     13  C   UNL     1       2.307   3.734  18.448  0.00  0.00    +0.000 A 
ATOM     14  C   UNL     1       3.475   3.642  17.695  0.00  0.00    +0.000 A 
ATOM     15  C   UNL     1       4.195   4.776  17.264  0.00  0.00    +0.000 A 
ATOM     16  C   UNL     1       3.672   6.017  17.707  0.00  0.00    +0.000 A 
BRANCH  15  17
ATOM     17  C   UNL     1       5.555   4.664  16.373  0.00  0.00    +0.000 C 
ATOM     18  C   UNL     1       5.699   3.470  15.384  0.00  0.00    +0.000 C 
ATOM     19  O   UNL     1       6.158   4.359  14.336  0.00  0.00    +0.000 OA
ATOM     20  C   UNL     1       5.605   5.491  15.061  0.00  0.00    +0.000 C 
BRANCH  17  21
ATOM     21  C   UNL     1       6.853   4.736  17.201  0.00  0.00    +0.000 C 
ATOM     22  F   UNL     1       6.644   4.021  18.349  0.00  0.00    +0.000 F 
BRANCH  21  23
ATOM     23  C   UNL     1       7.341   6.116  17.499  0.00  0.00    +0.000 A 
ATOM     24  N   UNL     1       7.255   7.160  16.694  0.00  0.00    +0.000 NA
ATOM     25  N   UNL     1       7.774   8.251  17.342  0.00  0.00    +0.000 NA
ATOM     26  C   UNL     1       8.190   7.852  18.521  0.00  0.00    +0.000 A 
ATOM     27  N   UNL     1       7.932   6.525  18.669  0.00  0.00    +0.000 N 
ATOM     28  C   UNL     1       8.191   5.748  19.850  0.00  0.00    +0.000 C 
ENDBRANCH  21  23
ENDBRANCH  17  21
ENDBRANCH  15  17
ENDBRANCH   8  11
BRANCH   5  29
ATOM     29  C   UNL     1       0.273   9.330  22.692  0.00  0.00    +0.000 C 
ATOM     30  F   UNL     1      -0.526   8.223  22.708  0.00  0.00    +0.000 F 
ATOM     31  F   UNL     1       1.406   8.971  23.354  0.00  0.00    +0.000 F 
ATOM     32  F   UNL     1      -0.354  10.245  23.480  0.00  0.00    +0.000 F 
ENDBRANCH   5  29
BRANCH   1  34
ATOM     33  C   UNL     1      -0.937  12.807  17.790  0.00  0.00    +0.000 C 
ATOM     34  C   UNL     1      -0.242  12.972  19.161  0.00  0.00    +0.000 C 
BRANCH  34  35
ATOM     35  N   UNL     1       0.645  14.133  19.287  0.00  0.00    +0.000 NA
ATOM     36  C   UNL     1       0.051  15.383  18.789  0.00  0.00    +0.000 C 
ATOM     37  C   UNL     1       1.219  16.352  18.818  0.00  0.00    +0.000 C 
ATOM     38  C   UNL     1       2.387  15.464  18.498  0.00  0.00    +0.000 C 
ATOM     39  C   UNL     1       3.783  15.908  18.870  0.00  0.00    +0.000 C 
ATOM     40  C   UNL     1       3.379  15.856  17.425  0.00  0.00    +0.000 C 
ATOM     41  C   UNL     1       1.960  14.015  18.638  0.00  0.00    +0.000 C 
ENDBRANCH  34  35
ENDBRANCH   1  34
TORSDOF 7
ENDMDL
MODEL 6
REMARK VINA RESULT:      -9.5      1.597      2.423
REMARK  Name = 
REMARK  9 active torsions:
REMARK  status: ('A' for Active; 'I' for Inactive)
REMARK    1  A    between atoms: C_1  and  C_2
REMARK    2  A    between atoms: C_2  and  C_3
REMARK    3  A    between atoms: C_2  and  N_35
REMARK    4  A    between atoms: C_7  and  C_8
REMARK    5  A    between atoms: N_14  and  C_15
REMARK    6  A    between atoms: C_19  and  C_20
REMARK    7  A    between atoms: C_20  and  C_21
REMARK    8  A    between atoms: C_21  and  C_23
REMARK    9  A    between atoms: N_27  and  C_28
REMARK                            x       y       z     vdW  Elec       q    Type
REMARK                         _______ _______ _______ _____ _____    ______ ____
ROOT
ATOM      1  C   UNL     1      -0.656  11.267  19.551  0.00  0.00    +0.000 A 
ATOM      2  C   UNL     1       0.261  10.631  18.708  0.00  0.00    +0.000 A 
ATOM      3  C   UNL     1       0.967   9.560  19.208  0.00  0.00    +0.000 A 
ATOM      4  C   UNL     1       0.869   9.123  20.521  0.00  0.00    +0.000 A 
ATOM      5  C   UNL     1       0.087   9.827  21.433  0.00  0.00    +0.000 A 
ATOM      6  C   UNL     1      -0.686  10.899  20.923  0.00  0.00    +0.000 A 
ATOM      7  C   UNL     1       1.638   7.846  20.666  0.00  0.00    +0.000 C 
ATOM      8  N   UNL     1       2.195   7.629  19.335  0.00  0.00    +0.000 N 
ATOM      9  C   UNL     1       1.816   8.641  18.453  0.00  0.00    +0.000 C 
ATOM     10  O   UNL     1       2.041   8.811  17.270  0.00  0.00    +0.000 OA
ENDROOT
BRANCH   8  11
ATOM     11  C   UNL     1       2.958   6.483  18.990  0.00  0.00    +0.000 A 
ATOM     12  C   UNL     1       2.964   5.351  19.803  0.00  0.00    +0.000 A 
ATOM     13  C   UNL     1       3.764   4.262  19.492  0.00  0.00    +0.000 A 
ATOM     14  C   UNL     1       4.582   4.298  18.366  0.00  0.00    +0.000 A 
ATOM     15  C   UNL     1       4.593   5.382  17.465  0.00  0.00    +0.000 A 
ATOM     16  C   UNL     1       3.748   6.464  17.825  0.00  0.00    +0.000 A 
BRANCH  15  17
ATOM     17  C   UNL     1       5.544   5.414  16.143  0.00  0.00    +0.000 C 
ATOM     18  C   UNL     1       5.132   4.558  14.909  0.00  0.00    +0.000 C 
ATOM     19  O   UNL     1       5.387   5.671  14.017  0.00  0.00    +0.000 OA
ATOM     20  C   UNL     1       5.323   6.584  15.146  0.00  0.00    +0.000 C 
BRANCH  17  21
ATOM     21  C   UNL     1       7.030   5.120  16.432  0.00  0.00    +0.000 C 
ATOM     22  F   UNL     1       7.243   3.797  16.156  0.00  0.00    +0.000 F 
BRANCH  21  23
ATOM     23  C   UNL     1       7.490   5.471  17.808  0.00  0.00    +0.000 A 
ATOM     24  N   UNL     1       7.715   4.620  18.793  0.00  0.00    +0.000 NA
ATOM     25  N   UNL     1       8.165   5.322  19.881  0.00  0.00    +0.000 NA
ATOM     26  C   UNL     1       8.186   6.592  19.552  0.00  0.00    +0.000 A 
ATOM     27  N   UNL     1       7.781   6.735  18.262  0.00  0.00    +0.000 N 
ATOM     28  C   UNL     1       7.731   7.971  17.531  0.00  0.00    +0.000 C 
ENDBRANCH  21  23
ENDBRANCH  17  21
ENDBRANCH  15  17
ENDBRANCH   8  11
BRANCH   5  29
ATOM     29  C   UNL     1       0.028   9.460  22.892  0.00  0.00    +0.000 C 
ATOM     30  F   UNL     1       1.258   9.359  23.475  0.00  0.00    +0.000 F 
ATOM     31  F   UNL     1      -0.652  10.375  23.634  0.00  0.00    +0.000 F 
ATOM     32  F   UNL     1      -0.581   8.264  23.112  0.00  0.00    +0.000 F 
ENDBRANCH   5  29
BRANCH   1  34
ATOM     33  C   UNL     1      -1.938  13.431  19.946  0.00  0.00    +0.000 C 
ATOM     34  C   UNL     1      -1.685  12.249  18.982  0.00  0.00    +0.000 C 
BRANCH  34  35
ATOM     35  N   UNL     1      -2.886  11.585  18.463  0.00  0.00    +0.000 NA
ATOM     36  C   UNL     1      -2.911  11.479  16.997  0.00  0.00    +0.000 C 
ATOM     37  C   UNL     1      -4.316  10.981  16.714  0.00  0.00    +0.000 C 
ATOM     38  C   UNL     1      -5.119  11.636  17.802  0.00  0.00    +0.000 C 
ATOM     39  C   UNL     1      -6.466  11.062  18.179  0.00  0.00    +0.000 C 
ATOM     40  C   UNL     1      -6.391  12.385  17.472  0.00  0.00    +0.000 C 
ATOM     41  C   UNL     1      -4.173  12.179  18.855  0.00  0.00    +0.000 C 
ENDBRANCH  34  35
ENDBRANCH   1  34
TORSDOF 7
ENDMDL
MODEL 7
REMARK VINA RESULT:      -9.4      0.918      1.013
REMARK  Name = 
REMARK  9 active torsions:
REMARK  status: ('A' for Active; 'I' for Inactive)
REMARK    1  A    between atoms: C_1  and  C_2
REMARK    2  A    between atoms: C_2  and  C_3
REMARK    3  A    between atoms: C_2  and  N_35
REMARK    4  A    between atoms: C_7  and  C_8
REMARK    5  A    between atoms: N_14  and  C_15
REMARK    6  A    between atoms: C_19  and  C_20
REMARK    7  A    between atoms: C_20  and  C_21
REMARK    8  A    between atoms: C_21  and  C_23
REMARK    9  A    between atoms: N_27  and  C_28
REMARK                            x       y       z     vdW  Elec       q    Type
REMARK                         _______ _______ _______ _____ _____    ______ ____
ROOT
ATOM      1  C   UNL     1      -0.759  11.416  19.667  0.00  0.00    +0.000 A 
ATOM      2  C   UNL     1       0.138  10.808  18.783  0.00  0.00    +0.000 A 
ATOM      3  C   UNL     1       0.842   9.710  19.227  0.00  0.00    +0.000 A 
ATOM      4  C   UNL     1       0.759   9.219  20.522  0.00  0.00    +0.000 A 
ATOM      5  C   UNL     1      -0.002   9.892  21.475  0.00  0.00    +0.000 A 
ATOM      6  C   UNL     1      -0.772  10.991  21.022  0.00  0.00    +0.000 A 
ATOM      7  C   UNL     1       1.518   7.931  20.601  0.00  0.00    +0.000 C 
ATOM      8  N   UNL     1       2.053   7.765  19.254  0.00  0.00    +0.000 N 
ATOM      9  C   UNL     1       1.671   8.816  18.422  0.00  0.00    +0.000 C 
ATOM     10  O   UNL     1       1.879   9.034  17.243  0.00  0.00    +0.000 OA
ENDROOT
BRANCH   8  11
ATOM     11  C   UNL     1       2.799   6.628  18.850  0.00  0.00    +0.000 A 
ATOM     12  C   UNL     1       2.299   5.339  19.024  0.00  0.00    +0.000 A 
ATOM     13  C   UNL     1       3.063   4.232  18.687  0.00  0.00    +0.000 A 
ATOM     14  C   UNL     1       4.350   4.402  18.182  0.00  0.00    +0.000 A 
ATOM     15  C   UNL     1       4.907   5.671  17.926  0.00  0.00    +0.000 A 
ATOM     16  C   UNL     1       4.079   6.768  18.278  0.00  0.00    +0.000 A 
BRANCH  15  17
ATOM     17  C   UNL     1       6.409   5.864  17.324  0.00  0.00    +0.000 C 
ATOM     18  C   UNL     1       6.718   7.144  16.493  0.00  0.00    +0.000 C 
ATOM     19  O   UNL     1       7.953   7.351  17.221  0.00  0.00    +0.000 OA
ATOM     20  C   UNL     1       7.473   6.474  18.275  0.00  0.00    +0.000 C 
BRANCH  17  21
ATOM     21  C   UNL     1       6.921   4.655  16.517  0.00  0.00    +0.000 C 
ATOM     22  F   UNL     1       8.033   4.179  17.158  0.00  0.00    +0.000 F 
BRANCH  21  23
ATOM     23  C   UNL     1       7.196   4.924  15.075  0.00  0.00    +0.000 A 
ATOM     24  N   UNL     1       8.212   5.618  14.594  0.00  0.00    +0.000 NA
ATOM     25  N   UNL     1       8.139   5.604  13.225  0.00  0.00    +0.000 NA
ATOM     26  C   UNL     1       7.069   4.922  12.892  0.00  0.00    +0.000 A 
ATOM     27  N   UNL     1       6.450   4.469  14.015  0.00  0.00    +0.000 N 
ATOM     28  C   UNL     1       5.280   3.635  14.048  0.00  0.00    +0.000 C 
ENDBRANCH  21  23
ENDBRANCH  17  21
ENDBRANCH  15  17
ENDBRANCH   8  11
BRANCH   5  29
ATOM     29  C   UNL     1      -0.042   9.464  22.918  0.00  0.00    +0.000 C 
ATOM     30  F   UNL     1       1.193   9.372  23.490  0.00  0.00    +0.000 F 
ATOM     31  F   UNL     1      -0.742  10.329  23.700  0.00  0.00    +0.000 F 
ATOM     32  F   UNL     1      -0.618   8.244  23.092  0.00  0.00    +0.000 F 
ENDBRANCH   5  29
BRANCH   1  34
ATOM     33  C   UNL     1      -1.678  13.778  19.904  0.00  0.00    +0.000 C 
ATOM     34  C   UNL     1      -1.788  12.430  19.155  0.00  0.00    +0.000 C 
BRANCH  34  35
ATOM     35  N   UNL     1      -3.140  11.871  19.048  0.00  0.00    +0.000 NA
ATOM     36  C   UNL     1      -3.595  11.700  17.660  0.00  0.00    +0.000 C 
ATOM     37  C   UNL     1      -5.060  11.339  17.822  0.00  0.00    +0.000 C 
ATOM     38  C   UNL     1      -5.456  12.124  19.040  0.00  0.00    +0.000 C 
ATOM     39  C   UNL     1      -6.681  11.713  19.823  0.00  0.00    +0.000 C 
ATOM     40  C   UNL     1      -6.698  12.986  19.027  0.00  0.00    +0.000 C 
ATOM     41  C   UNL     1      -4.203  12.614  19.740  0.00  0.00    +0.000 C 
ENDBRANCH  34  35
ENDBRANCH   1  34
TORSDOF 7
ENDMDL
MODEL 8
REMARK VINA RESULT:      -9.4      2.206      3.848
REMARK  Name = 
REMARK  9 active torsions:
REMARK  status: ('A' for Active; 'I' for Inactive)
REMARK    1  A    between atoms: C_1  and  C_2
REMARK    2  A    between atoms: C_2  and  C_3
REMARK    3  A    between atoms: C_2  and  N_35
REMARK    4  A    between atoms: C_7  and  C_8
REMARK    5  A    between atoms: N_14  and  C_15
REMARK    6  A    between atoms: C_19  and  C_20
REMARK    7  A    between atoms: C_20  and  C_21
REMARK    8  A    between atoms: C_21  and  C_23
REMARK    9  A    between atoms: N_27  and  C_28
REMARK                            x       y       z     vdW  Elec       q    Type
REMARK                         _______ _______ _______ _____ _____    ______ ____
ROOT
ATOM      1  C   UNL     1       0.042  11.538  19.470  0.00  0.00    +0.000 A 
ATOM      2  C   UNL     1       0.920  10.783  18.686  0.00  0.00    +0.000 A 
ATOM      3  C   UNL     1       1.359   9.576  19.185  0.00  0.00    +0.000 A 
ATOM      4  C   UNL     1       1.033   9.105  20.448  0.00  0.00    +0.000 A 
ATOM      5  C   UNL     1       0.291   9.899  21.318  0.00  0.00    +0.000 A 
ATOM      6  C   UNL     1      -0.211  11.119  20.803  0.00  0.00    +0.000 A 
ATOM      7  C   UNL     1       1.538   7.702  20.585  0.00  0.00    +0.000 C 
ATOM      8  N   UNL     1       2.197   7.447  19.309  0.00  0.00    +0.000 N 
ATOM      9  C   UNL     1       2.110   8.552  18.463  0.00  0.00    +0.000 C 
ATOM     10  O   UNL     1       2.496   8.732  17.323  0.00  0.00    +0.000 OA
ENDROOT
BRANCH   8  11
ATOM     11  C   UNL     1       2.774   6.197  18.970  0.00  0.00    +0.000 A 
ATOM     12  C   UNL     1       2.434   5.035  19.660  0.00  0.00    +0.000 A 
ATOM     13  C   UNL     1       3.053   3.830  19.364  0.00  0.00    +0.000 A 
ATOM     14  C   UNL     1       4.037   3.775  18.380  0.00  0.00    +0.000 A 
ATOM     15  C   UNL     1       4.398   4.893  17.600  0.00  0.00    +0.000 A 
ATOM     16  C   UNL     1       3.726   6.095  17.936  0.00  0.00    +0.000 A 
BRANCH  15  17
ATOM     17  C   UNL     1       5.542   4.820  16.441  0.00  0.00    +0.000 C 
ATOM     18  C   UNL     1       5.482   3.655  15.410  0.00  0.00    +0.000 C 
ATOM     19  O   UNL     1       5.705   4.577  14.315  0.00  0.00    +0.000 OA
ATOM     20  C   UNL     1       5.310   5.682  15.172  0.00  0.00    +0.000 C 
BRANCH  17  21
ATOM     21  C   UNL     1       6.985   4.885  16.980  0.00  0.00    +0.000 C 
ATOM     22  F   UNL     1       7.080   3.974  17.997  0.00  0.00    +0.000 F 
BRANCH  21  23
ATOM     23  C   UNL     1       7.440   6.239  17.415  0.00  0.00    +0.000 A 
ATOM     24  N   UNL     1       7.425   7.337  16.680  0.00  0.00    +0.000 NA
ATOM     25  N   UNL     1       7.881   8.378  17.446  0.00  0.00    +0.000 NA
ATOM     26  C   UNL     1       8.190   7.897  18.627  0.00  0.00    +0.000 A 
ATOM     27  N   UNL     1       7.923   6.564  18.659  0.00  0.00    +0.000 N 
ATOM     28  C   UNL     1       8.076   5.707  19.802  0.00  0.00    +0.000 C 
ENDBRANCH  21  23
ENDBRANCH  17  21
ENDBRANCH  15  17
ENDBRANCH   8  11
BRANCH   5  29
ATOM     29  C   UNL     1       0.000   9.481  22.735  0.00  0.00    +0.000 C 
ATOM     30  F   UNL     1      -0.750   8.345  22.822  0.00  0.00    +0.000 F 
ATOM     31  F   UNL     1       1.132   9.226  23.447  0.00  0.00    +0.000 F 
ATOM     32  F   UNL     1      -0.683  10.426  23.436  0.00  0.00    +0.000 F 
ENDBRANCH   5  29
BRANCH   1  34
ATOM     33  C   UNL     1      -1.688  12.263  17.748  0.00  0.00    +0.000 C 
ATOM     34  C   UNL     1      -0.721  12.721  18.864  0.00  0.00    +0.000 C 
BRANCH  34  35
ATOM     35  N   UNL     1       0.149  13.852  18.525  0.00  0.00    +0.000 NA
ATOM     36  C   UNL     1       1.434  13.838  19.240  0.00  0.00    +0.000 C 
ATOM     37  C   UNL     1       2.029  15.192  18.900  0.00  0.00    +0.000 C 
ATOM     38  C   UNL     1       0.813  16.068  18.803  0.00  0.00    +0.000 C 
ATOM     39  C   UNL     1       0.894  17.370  18.041  0.00  0.00    +0.000 C 
ATOM     40  C   UNL     1       0.758  17.390  19.536  0.00  0.00    +0.000 C 
ATOM     41  C   UNL     1      -0.423  15.191  18.732  0.00  0.00    +0.000 C 
ENDBRANCH  34  35
ENDBRANCH   1  34
TORSDOF 7
ENDMDL
MODEL 9
REMARK VINA RESULT:      -9.3      2.559      4.257
REMARK  Name = 
REMARK  9 active torsions:
REMARK  status: ('A' for Active; 'I' for Inactive)
REMARK    1  A    between atoms: C_1  and  C_2
REMARK    2  A    between atoms: C_2  and  C_3
REMARK    3  A    between atoms: C_2  and  N_35
REMARK    4  A    between atoms: C_7  and  C_8
REMARK    5  A    between atoms: N_14  and  C_15
REMARK    6  A    between atoms: C_19  and  C_20
REMARK    7  A    between atoms: C_20  and  C_21
REMARK    8  A    between atoms: C_21  and  C_23
REMARK    9  A    between atoms: N_27  and  C_28
REMARK                            x       y       z     vdW  Elec       q    Type
REMARK                         _______ _______ _______ _____ _____    ______ ____
ROOT
ATOM      1  C   UNL     1       0.350  11.659  19.577  0.00  0.00    +0.000 A 
ATOM      2  C   UNL     1       1.142  10.905  18.705  0.00  0.00    +0.000 A 
ATOM      3  C   UNL     1       1.511   9.637  19.096  0.00  0.00    +0.000 A 
ATOM      4  C   UNL     1       1.198   9.096  20.335  0.00  0.00    +0.000 A 
ATOM      5  C   UNL     1       0.548   9.873  21.290  0.00  0.00    +0.000 A 
ATOM      6  C   UNL     1       0.116  11.159  20.886  0.00  0.00    +0.000 A 
ATOM      7  C   UNL     1       1.605   7.655  20.350  0.00  0.00    +0.000 C 
ATOM      8  N   UNL     1       2.196   7.451  19.032  0.00  0.00    +0.000 N 
ATOM      9  C   UNL     1       2.159   8.619  18.272  0.00  0.00    +0.000 C 
ATOM     10  O   UNL     1       2.515   8.857  17.133  0.00  0.00    +0.000 OA
ENDROOT
BRANCH   8  11
ATOM     11  C   UNL     1       2.669   6.193  18.580  0.00  0.00    +0.000 A 
ATOM     12  C   UNL     1       2.197   5.004  19.134  0.00  0.00    +0.000 A 
ATOM     13  C   UNL     1       2.714   3.782  18.731  0.00  0.00    +0.000 A 
ATOM     14  C   UNL     1       3.726   3.734  17.775  0.00  0.00    +0.000 A 
ATOM     15  C   UNL     1       4.219   4.886  17.129  0.00  0.00    +0.000 A 
ATOM     16  C   UNL     1       3.648   6.107  17.569  0.00  0.00    +0.000 A 
BRANCH  15  17
ATOM     17  C   UNL     1       5.395   4.824  16.002  0.00  0.00    +0.000 C 
ATOM     18  C   UNL     1       6.059   3.449  15.697  0.00  0.00    +0.000 C 
ATOM     19  O   UNL     1       5.946   3.680  14.271  0.00  0.00    +0.000 OA
ATOM     20  C   UNL     1       4.944   4.703  14.522  0.00  0.00    +0.000 C 
BRANCH  17  21
ATOM     21  C   UNL     1       6.528   5.845  16.222  0.00  0.00    +0.000 C 
ATOM     22  F   UNL     1       7.449   5.651  15.229  0.00  0.00    +0.000 F 
BRANCH  21  23
ATOM     23  C   UNL     1       7.165   5.806  17.572  0.00  0.00    +0.000 A 
ATOM     24  N   UNL     1       7.306   4.736  18.334  0.00  0.00    +0.000 NA
ATOM     25  N   UNL     1       7.975   5.100  19.474  0.00  0.00    +0.000 NA
ATOM     26  C   UNL     1       8.212   6.388  19.401  0.00  0.00    +0.000 A 
ATOM     27  N   UNL     1       7.732   6.873  18.225  0.00  0.00    +0.000 N 
ATOM     28  C   UNL     1       7.858   8.229  17.765  0.00  0.00    +0.000 C 
ENDBRANCH  21  23
ENDBRANCH  17  21
ENDBRANCH  15  17
ENDBRANCH   8  11
BRANCH   5  29
ATOM     29  C   UNL     1       0.279   9.371  22.684  0.00  0.00    +0.000 C 
ATOM     30  F   UNL     1      -0.536   8.278  22.720  0.00  0.00    +0.000 F 
ATOM     31  F   UNL     1       1.416   8.999  23.333  0.00  0.00    +0.000 F 
ATOM     32  F   UNL     1      -0.321  10.302  23.475  0.00  0.00    +0.000 F 
ENDBRANCH   5  29
BRANCH   1  34
ATOM     33  C   UNL     1      -0.950  12.749  17.678  0.00  0.00    +0.000 C 
ATOM     34  C   UNL     1      -0.348  12.933  19.090  0.00  0.00    +0.000 C 
BRANCH  34  35
ATOM     35  N   UNL     1       0.464  14.140  19.281  0.00  0.00    +0.000 NA
ATOM     36  C   UNL     1      -0.168  15.361  18.758  0.00  0.00    +0.000 C 
ATOM     37  C   UNL     1       0.940  16.393  18.868  0.00  0.00    +0.000 C 
ATOM     38  C   UNL     1       2.174  15.574  18.613  0.00  0.00    +0.000 C 
ATOM     39  C   UNL     1       3.516  16.091  19.076  0.00  0.00    +0.000 C 
ATOM     40  C   UNL     1       3.206  16.034  17.608  0.00  0.00    +0.000 C 
ATOM     41  C   UNL     1       1.820  14.103  18.715  0.00  0.00    +0.000 C 
ENDBRANCH  34  35
ENDBRANCH   1  34
TORSDOF 7
ENDMDL
