MODEL 1
REMARK VINA RESULT:      -9.2      0.000      0.000
REMARK  Name = 
REMARK  11 active torsions:
REMARK  status: ('A' for Active; 'I' for Inactive)
REMARK    1  A    between atoms: C_1  and  N_2
REMARK    2  A    between atoms: C_6  and  C_7
REMARK    3  A    between atoms: C_7  and  C_8
REMARK    4  A    between atoms: C_8  and  C_9
REMARK    5  A    between atoms: C_13  and  N_14
REMARK    6  A    between atoms: C_19  and  C_20
REMARK    7  A    between atoms: C_20  and  N_21
REMARK    8  A    between atoms: C_25  and  C_26
REMARK    9  A    between atoms: C_26  and  C_27
REMARK   10  A    between atoms: C_27  and  O_28
REMARK   11  A    between atoms: C_31  and  C_32
REMARK                            x       y       z     vdW  Elec       q    Type
REMARK                         _______ _______ _______ _____ _____    ______ ____
ROOT
ATOM      1  N   UNL     1       1.393   8.395  20.382  0.00  0.00    +0.000 N 
ATOM      2  C   UNL     1       1.569   7.060  20.903  0.00  0.00    +0.000 C 
ATOM      3  C   UNL     1       2.122   6.308  19.758  0.00  0.00    +0.000 A 
ATOM      4  C   UNL     1       2.465   7.167  18.718  0.00  0.00    +0.000 A 
ATOM      5  C   UNL     1       3.203   6.716  17.623  0.00  0.00    +0.000 A 
ATOM      6  C   UNL     1       3.534   5.344  17.576  0.00  0.00    +0.000 A 
ATOM      7  C   UNL     1       3.034   4.475  18.583  0.00  0.00    +0.000 A 
ATOM      8  C   UNL     1       2.345   4.945  19.702  0.00  0.00    +0.000 A 
ATOM      9  C   UNL     1       1.919   8.513  19.090  0.00  0.00    +0.000 C 
ATOM     10  O   UNL     1       1.938   9.475  18.338  0.00  0.00    +0.000 OA
ENDROOT
BRANCH   1  15
ATOM     11  C   UNL     1      -0.008  11.638  21.620  0.00  0.00    +0.000 A 
ATOM     12  C   UNL     1      -0.712  11.166  22.740  0.00  0.00    +0.000 A 
ATOM     13  C   UNL     1      -0.841   9.795  23.007  0.00  0.00    +0.000 A 
ATOM     14  C   UNL     1      -0.233   8.840  22.184  0.00  0.00    +0.000 A 
ATOM     15  C   UNL     1       0.538   9.265  21.108  0.00  0.00    +0.000 A 
ATOM     16  C   UNL     1       0.586  10.646  20.825  0.00  0.00    +0.000 A 
BRANCH  11  17
ATOM     17  C   UNL     1       0.133  13.204  21.241  0.00  0.00    +0.000 C 
ATOM     18  C   UNL     1       1.586  13.757  21.249  0.00  0.00    +0.000 C 
ATOM     19  O   UNL     1       1.288  14.726  22.269  0.00  0.00    +0.000 OA
ATOM     20  C   UNL     1      -0.072  14.256  22.374  0.00  0.00    +0.000 C 
BRANCH  17  21
ATOM     21  C   UNL     1      -0.628  13.536  19.936  0.00  0.00    +0.000 C 
BRANCH  21  27
ATOM     22  C   UNL     1      -1.895  11.229  18.155  0.00  0.00    +0.000 C 
ATOM     23  N   UNL     1      -2.573  12.083  19.093  0.00  0.00    +0.000 N 
ATOM     24  C   UNL     1      -3.916  12.070  19.321  0.00  0.00    +0.000 A 
ATOM     25  N   UNL     1      -4.212  12.971  20.227  0.00  0.00    +0.000 NA
ATOM     26  N   UNL     1      -3.045  13.591  20.593  0.00  0.00    +0.000 NA
ATOM     27  C   UNL     1      -2.052  13.064  19.902  0.00  0.00    +0.000 A 
ENDBRANCH  21  27
ENDBRANCH  17  21
ENDBRANCH  11  17
ENDBRANCH   1  15
BRANCH   8  28
ATOM     28  C   UNL     1       1.911   4.002  20.795  0.00  0.00    +0.000 C 
ATOM     29  F   UNL     1       2.398   4.332  22.019  0.00  0.00    +0.000 F 
ATOM     30  F   UNL     1       0.557   3.969  20.929  0.00  0.00    +0.000 F 
ATOM     31  F   UNL     1       2.306   2.721  20.572  0.00  0.00    +0.000 F 
ENDBRANCH   8  28
BRANCH   6  32
ATOM     32  C   UNL     1       4.630   4.733  16.709  0.00  0.00    +0.000 C 
BRANCH  32  33
ATOM     33  N   UNL     1       5.869   4.229  17.306  0.00  0.00    +0.000 NA
ATOM     34  C   UNL     1       6.591   5.277  18.041  0.00  0.00    +0.000 C 
ATOM     35  C   UNL     1       7.344   6.341  17.205  0.00  0.00    +0.000 C 
ATOM     36  O   UNL     1       7.428   6.179  15.789  0.00  0.00    +0.000 OA
ATOM     37  C   UNL     1       7.283   4.873  15.229  0.00  0.00    +0.000 C 
ATOM     38  C   UNL     1       6.806   3.787  16.239  0.00  0.00    +0.000 C 
BRANCH  37  39
ATOM     39  C   UNL     1       6.338   4.985  14.012  0.00  0.00    +0.000 C 
BRANCH  39  40
ATOM     40  C   UNL     1       6.265   3.749  13.120  0.00  0.00    +0.000 C 
BRANCH  40  41
ATOM     41  O   UNL     1       7.061   3.979  11.954  0.00  0.00    +0.000 OA
ATOM     42  H   UNL     1       6.698   3.440  11.231  0.00  0.00    +0.000 HD
ENDBRANCH  40  41
ENDBRANCH  39  40
ENDBRANCH  37  39
ENDBRANCH  32  33
ENDBRANCH   6  32
TORSDOF 10
ENDMDL
MODEL 2
REMARK VINA RESULT:      -9.2      1.710      2.372
REMARK  Name = 
REMARK  11 active torsions:
REMARK  status: ('A' for Active; 'I' for Inactive)
REMARK    1  A    between atoms: C_1  and  N_2
REMARK    2  A    between atoms: C_6  and  C_7
REMARK    3  A    between atoms: C_7  and  C_8
REMARK    4  A    between atoms: C_8  and  C_9
REMARK    5  A    between atoms: C_13  and  N_14
REMARK    6  A    between atoms: C_19  and  C_20
REMARK    7  A    between atoms: C_20  and  N_21
REMARK    8  A    between atoms: C_25  and  C_26
REMARK    9  A    between atoms: C_26  and  C_27
REMARK   10  A    between atoms: C_27  and  O_28
REMARK   11  A    between atoms: C_31  and  C_32
REMARK                            x       y       z     vdW  Elec       q    Type
REMARK                         _______ _______ _______ _____ _____    ______ ____
ROOT
ATOM      1  N   UNL     1       1.273   8.366  20.465  0.00  0.00    +0.000 N 
ATOM      2  C   UNL     1       1.464   7.020  20.951  0.00  0.00    +0.000 C 
ATOM      3  C   UNL     1       2.053   6.311  19.796  0.00  0.00    +0.000 A 
ATOM      4  C   UNL     1       2.399   7.206  18.788  0.00  0.00    +0.000 A 
ATOM      5  C   UNL     1       3.166   6.801  17.695  0.00  0.00    +0.000 A 
ATOM      6  C   UNL     1       3.523   5.437  17.615  0.00  0.00    +0.000 A 
ATOM      7  C   UNL     1       3.021   4.530  18.588  0.00  0.00    +0.000 A 
ATOM      8  C   UNL     1       2.302   4.955  19.706  0.00  0.00    +0.000 A 
ATOM      9  C   UNL     1       1.821   8.531  19.187  0.00  0.00    +0.000 C 
ATOM     10  O   UNL     1       1.836   9.514  18.464  0.00  0.00    +0.000 OA
ENDROOT
BRANCH   1  15
ATOM     11  C   UNL     1      -0.874  11.344  21.199  0.00  0.00    +0.000 A 
ATOM     12  C   UNL     1      -0.991  11.199  22.592  0.00  0.00    +0.000 A 
ATOM     13  C   UNL     1      -0.493  10.071  23.261  0.00  0.00    +0.000 A 
ATOM     14  C   UNL     1       0.181   9.061  22.567  0.00  0.00    +0.000 A 
ATOM     15  C   UNL     1       0.388   9.199  21.199  0.00  0.00    +0.000 A 
ATOM     16  C   UNL     1      -0.190  10.308  20.545  0.00  0.00    +0.000 A 
BRANCH  11  17
ATOM     17  C   UNL     1      -1.469  12.601  20.373  0.00  0.00    +0.000 C 
ATOM     18  C   UNL     1      -1.718  13.885  21.214  0.00  0.00    +0.000 C 
ATOM     19  O   UNL     1      -3.126  13.890  20.918  0.00  0.00    +0.000 OA
ATOM     20  C   UNL     1      -3.010  12.673  20.153  0.00  0.00    +0.000 C 
BRANCH  17  21
ATOM     21  C   UNL     1      -0.641  12.874  19.095  0.00  0.00    +0.000 C 
BRANCH  21  27
ATOM     22  C   UNL     1      -0.238  15.988  18.609  0.00  0.00    +0.000 C 
ATOM     23  N   UNL     1       0.744  15.038  19.058  0.00  0.00    +0.000 N 
ATOM     24  C   UNL     1       2.054  15.330  19.293  0.00  0.00    +0.000 A 
ATOM     25  N   UNL     1       2.678  14.247  19.685  0.00  0.00    +0.000 NA
ATOM     26  N   UNL     1       1.765  13.224  19.700  0.00  0.00    +0.000 NA
ATOM     27  C   UNL     1       0.595  13.696  19.311  0.00  0.00    +0.000 A 
ENDBRANCH  21  27
ENDBRANCH  17  21
ENDBRANCH  11  17
ENDBRANCH   1  15
BRANCH   8  28
ATOM     28  C   UNL     1       1.865   3.974  20.763  0.00  0.00    +0.000 C 
ATOM     29  F   UNL     1       2.327   4.274  22.004  0.00  0.00    +0.000 F 
ATOM     30  F   UNL     1       0.510   3.916  20.873  0.00  0.00    +0.000 F 
ATOM     31  F   UNL     1       2.284   2.706  20.509  0.00  0.00    +0.000 F 
ENDBRANCH   8  28
BRANCH   6  32
ATOM     32  C   UNL     1       4.646   4.871  16.753  0.00  0.00    +0.000 C 
BRANCH  32  33
ATOM     33  N   UNL     1       5.858   4.319  17.363  0.00  0.00    +0.000 NA
ATOM     34  C   UNL     1       6.608   5.335  18.115  0.00  0.00    +0.000 C 
ATOM     35  C   UNL     1       7.409   6.377  17.297  0.00  0.00    +0.000 C 
ATOM     36  O   UNL     1       7.507   6.223  15.881  0.00  0.00    +0.000 OA
ATOM     37  C   UNL     1       7.323   4.927  15.310  0.00  0.00    +0.000 C 
ATOM     38  C   UNL     1       6.793   3.851  16.305  0.00  0.00    +0.000 C 
BRANCH  37  39
ATOM     39  C   UNL     1       6.399   5.081  14.081  0.00  0.00    +0.000 C 
BRANCH  39  40
ATOM     40  C   UNL     1       5.858   3.780  13.496  0.00  0.00    +0.000 C 
BRANCH  40  41
ATOM     41  O   UNL     1       6.816   3.261  12.570  0.00  0.00    +0.000 OA
ATOM     42  H   UNL     1       7.409   2.662  13.055  0.00  0.00    +0.000 HD
ENDBRANCH  40  41
ENDBRANCH  39  40
ENDBRANCH  37  39
ENDBRANCH  32  33
ENDBRANCH   6  32
TORSDOF 10
ENDMDL
MODEL 3
REMARK VINA RESULT:      -9.1      1.914      3.162
REMARK  Name = 
REMARK  11 active torsions:
REMARK  status: ('A' for Active; 'I' for Inactive)
REMARK    1  A    between atoms: C_1  and  N_2
REMARK    2  A    between atoms: C_6  and  C_7
REMARK    3  A    between atoms: C_7  and  C_8
REMARK    4  A    between atoms: C_8  and  C_9
REMARK    5  A    between atoms: C_13  and  N_14
REMARK    6  A    between atoms: C_19  and  C_20
REMARK    7  A    between atoms: C_20  and  N_21
REMARK    8  A    between atoms: C_25  and  C_26
REMARK    9  A    between atoms: C_26  and  C_27
REMARK   10  A    between atoms: C_27  and  O_28
REMARK   11  A    between atoms: C_31  and  C_32
REMARK                            x       y       z     vdW  Elec       q    Type
REMARK                         _______ _______ _______ _____ _____    ______ ____
ROOT
ATOM      1  N   UNL     1       1.228   8.349  20.492  0.00  0.00    +0.000 N 
ATOM      2  C   UNL     1       1.462   7.021  21.006  0.00  0.00    +0.000 C 
ATOM      3  C   UNL     1       2.022   6.292  19.850  0.00  0.00    +0.000 A 
ATOM      4  C   UNL     1       2.316   7.165  18.807  0.00  0.00    +0.000 A 
ATOM      5  C   UNL     1       3.051   6.744  17.698  0.00  0.00    +0.000 A 
ATOM      6  C   UNL     1       3.431   5.385  17.641  0.00  0.00    +0.000 A 
ATOM      7  C   UNL     1       2.980   4.496  18.655  0.00  0.00    +0.000 A 
ATOM      8  C   UNL     1       2.294   4.938  19.786  0.00  0.00    +0.000 A 
ATOM      9  C   UNL     1       1.727   8.490  19.191  0.00  0.00    +0.000 C 
ATOM     10  O   UNL     1       1.699   9.453  18.442  0.00  0.00    +0.000 OA
ENDROOT
BRANCH   1  15
ATOM     11  C   UNL     1      -0.994  11.278  21.203  0.00  0.00    +0.000 A 
ATOM     12  C   UNL     1      -1.022  11.203  22.605  0.00  0.00    +0.000 A 
ATOM     13  C   UNL     1      -0.439  10.133  23.300  0.00  0.00    +0.000 A 
ATOM     14  C   UNL     1       0.235   9.113  22.619  0.00  0.00    +0.000 A 
ATOM     15  C   UNL     1       0.355   9.186  21.235  0.00  0.00    +0.000 A 
ATOM     16  C   UNL     1      -0.307  10.235  20.562  0.00  0.00    +0.000 A 
BRANCH  11  17
ATOM     17  C   UNL     1      -1.689  12.464  20.351  0.00  0.00    +0.000 C 
ATOM     18  C   UNL     1      -2.643  13.386  21.162  0.00  0.00    +0.000 C 
ATOM     19  O   UNL     1      -3.777  13.052  20.342  0.00  0.00    +0.000 OA
ATOM     20  C   UNL     1      -2.988  12.135  19.556  0.00  0.00    +0.000 C 
BRANCH  17  21
ATOM     21  C   UNL     1      -0.640  13.256  19.535  0.00  0.00    +0.000 C 
BRANCH  21  27
ATOM     22  C   UNL     1       2.418  12.845  18.773  0.00  0.00    +0.000 C 
ATOM     23  N   UNL     1       1.887  13.448  19.966  0.00  0.00    +0.000 N 
ATOM     24  C   UNL     1       2.640  13.894  21.011  0.00  0.00    +0.000 A 
ATOM     25  N   UNL     1       1.852  14.382  21.938  0.00  0.00    +0.000 NA
ATOM     26  N   UNL     1       0.560  14.246  21.499  0.00  0.00    +0.000 NA
ATOM     27  C   UNL     1       0.575  13.672  20.311  0.00  0.00    +0.000 A 
ENDBRANCH  21  27
ENDBRANCH  17  21
ENDBRANCH  11  17
ENDBRANCH   1  15
BRANCH   8  28
ATOM     28  C   UNL     1       1.913   3.978  20.884  0.00  0.00    +0.000 C 
ATOM     29  F   UNL     1       2.364   4.351  22.110  0.00  0.00    +0.000 F 
ATOM     30  F   UNL     1       0.563   3.854  21.005  0.00  0.00    +0.000 F 
ATOM     31  F   UNL     1       2.397   2.725  20.678  0.00  0.00    +0.000 F 
ENDBRANCH   8  28
BRANCH   6  32
ATOM     32  C   UNL     1       4.533   4.816  16.755  0.00  0.00    +0.000 C 
BRANCH  32  33
ATOM     33  N   UNL     1       5.008   5.549  15.580  0.00  0.00    +0.000 NA
ATOM     34  C   UNL     1       5.843   4.711  14.708  0.00  0.00    +0.000 C 
ATOM     35  C   UNL     1       7.284   4.404  15.185  0.00  0.00    +0.000 C 
ATOM     36  O   UNL     1       7.782   5.055  16.354  0.00  0.00    +0.000 OA
ATOM     37  C   UNL     1       7.193   6.290  16.764  0.00  0.00    +0.000 C 
ATOM     38  C   UNL     1       5.890   6.671  16.000  0.00  0.00    +0.000 C 
BRANCH  37  39
ATOM     39  C   UNL     1       6.968   6.220  18.291  0.00  0.00    +0.000 C 
BRANCH  39  40
ATOM     40  C   UNL     1       7.719   5.107  19.016  0.00  0.00    +0.000 C 
BRANCH  40  41
ATOM     41  O   UNL     1       7.942   5.512  20.369  0.00  0.00    +0.000 OA
ATOM     42  H   UNL     1       8.282   6.423  20.358  0.00  0.00    +0.000 HD
ENDBRANCH  40  41
ENDBRANCH  39  40
ENDBRANCH  37  39
ENDBRANCH  32  33
ENDBRANCH   6  32
TORSDOF 10
ENDMDL
MODEL 4
REMARK VINA RESULT:      -9.1      1.985      3.374
REMARK  Name = 
REMARK  11 active torsions:
REMARK  status: ('A' for Active; 'I' for Inactive)
REMARK    1  A    between atoms: C_1  and  N_2
REMARK    2  A    between atoms: C_6  and  C_7
REMARK    3  A    between atoms: C_7  and  C_8
REMARK    4  A    between atoms: C_8  and  C_9
REMARK    5  A    between atoms: C_13  and  N_14
REMARK    6  A    between atoms: C_19  and  C_20
REMARK    7  A    between atoms: C_20  and  N_21
REMARK    8  A    between atoms: C_25  and  C_26
REMARK    9  A    between atoms: C_26  and  C_27
REMARK   10  A    between atoms: C_27  and  O_28
REMARK   11  A    between atoms: C_31  and  C_32
REMARK                            x       y       z     vdW  Elec       q    Type
REMARK                         _______ _______ _______ _____ _____    ______ ____
ROOT
ATOM      1  N   UNL     1       1.226   8.426  20.539  0.00  0.00    +0.000 N 
ATOM      2  C   UNL     1       1.448   7.077  21.005  0.00  0.00    +0.000 C 
ATOM      3  C   UNL     1       2.018   6.390  19.827  0.00  0.00    +0.000 A 
ATOM      4  C   UNL     1       2.327   7.302  18.822  0.00  0.00    +0.000 A 
ATOM      5  C   UNL     1       3.073   6.920  17.707  0.00  0.00    +0.000 A 
ATOM      6  C   UNL     1       3.448   5.563  17.601  0.00  0.00    +0.000 A 
ATOM      7  C   UNL     1       2.982   4.638  18.574  0.00  0.00    +0.000 A 
ATOM      8  C   UNL     1       2.284   5.039  19.714  0.00  0.00    +0.000 A 
ATOM      9  C   UNL     1       1.741   8.614  19.251  0.00  0.00    +0.000 C 
ATOM     10  O   UNL     1       1.725   9.605  18.539  0.00  0.00    +0.000 OA
ENDROOT
BRANCH   1  15
ATOM     11  C   UNL     1      -0.955  11.357  21.355  0.00  0.00    +0.000 A 
ATOM     12  C   UNL     1      -1.028  11.203  22.749  0.00  0.00    +0.000 A 
ATOM     13  C   UNL     1      -0.489  10.081  23.397  0.00  0.00    +0.000 A 
ATOM     14  C   UNL     1       0.184   9.087  22.677  0.00  0.00    +0.000 A 
ATOM     15  C   UNL     1       0.348   9.237  21.304  0.00  0.00    +0.000 A 
ATOM     16  C   UNL     1      -0.271  10.338  20.675  0.00  0.00    +0.000 A 
BRANCH  11  17
ATOM     17  C   UNL     1      -1.598  12.607  20.555  0.00  0.00    +0.000 C 
ATOM     18  C   UNL     1      -2.626  13.450  21.362  0.00  0.00    +0.000 C 
ATOM     19  O   UNL     1      -3.687  13.178  20.430  0.00  0.00    +0.000 OA
ATOM     20  C   UNL     1      -2.827  12.337  19.634  0.00  0.00    +0.000 C 
BRANCH  17  21
ATOM     21  C   UNL     1      -0.500  13.473  19.893  0.00  0.00    +0.000 C 
BRANCH  21  27
ATOM     22  C   UNL     1      -0.584  16.446  21.014  0.00  0.00    +0.000 C 
ATOM     23  N   UNL     1       0.397  15.433  21.294  0.00  0.00    +0.000 N 
ATOM     24  C   UNL     1       1.508  15.621  22.060  0.00  0.00    +0.000 A 
ATOM     25  N   UNL     1       2.194  14.505  22.113  0.00  0.00    +0.000 NA
ATOM     26  N   UNL     1       1.528  13.571  21.361  0.00  0.00    +0.000 NA
ATOM     27  C   UNL     1       0.445  14.131  20.856  0.00  0.00    +0.000 A 
ENDBRANCH  21  27
ENDBRANCH  17  21
ENDBRANCH  11  17
ENDBRANCH   1  15
BRANCH   8  28
ATOM     28  C   UNL     1       1.887   4.039  20.770  0.00  0.00    +0.000 C 
ATOM     29  F   UNL     1       0.543   3.939  20.943  0.00  0.00    +0.000 F 
ATOM     30  F   UNL     1       2.319   2.784  20.469  0.00  0.00    +0.000 F 
ATOM     31  F   UNL     1       2.397   4.337  21.994  0.00  0.00    +0.000 F 
ENDBRANCH   8  28
BRANCH   6  32
ATOM     32  C   UNL     1       4.558   5.023  16.706  0.00  0.00    +0.000 C 
BRANCH  32  33
ATOM     33  N   UNL     1       5.226   5.887  15.731  0.00  0.00    +0.000 NA
ATOM     34  C   UNL     1       5.846   5.115  14.645  0.00  0.00    +0.000 C 
ATOM     35  C   UNL     1       7.155   4.354  14.972  0.00  0.00    +0.000 C 
ATOM     36  O   UNL     1       7.772   4.549  16.245  0.00  0.00    +0.000 OA
ATOM     37  C   UNL     1       7.500   5.747  16.972  0.00  0.00    +0.000 C 
ATOM     38  C   UNL     1       6.349   6.615  16.381  0.00  0.00    +0.000 C 
BRANCH  37  39
ATOM     39  C   UNL     1       7.230   5.354  18.442  0.00  0.00    +0.000 C 
BRANCH  39  40
ATOM     40  C   UNL     1       8.385   5.591  19.410  0.00  0.00    +0.000 C 
BRANCH  40  41
ATOM     41  O   UNL     1       7.897   5.455  20.747  0.00  0.00    +0.000 OA
ATOM     42  H   UNL     1       7.778   4.507  20.929  0.00  0.00    +0.000 HD
ENDBRANCH  40  41
ENDBRANCH  39  40
ENDBRANCH  37  39
ENDBRANCH  32  33
ENDBRANCH   6  32
TORSDOF 10
ENDMDL
MODEL 5
REMARK VINA RESULT:      -9.1      1.806      2.477
REMARK  Name = 
REMARK  11 active torsions:
REMARK  status: ('A' for Active; 'I' for Inactive)
REMARK    1  A    between atoms: C_1  and  N_2
REMARK    2  A    between atoms: C_6  and  C_7
REMARK    3  A    between atoms: C_7  and  C_8
REMARK    4  A    between atoms: C_8  and  C_9
REMARK    5  A    between atoms: C_13  and  N_14
REMARK    6  A    between atoms: C_19  and  C_20
REMARK    7  A    between atoms: C_20  and  N_21
REMARK    8  A    between atoms: C_25  and  C_26
REMARK    9  A    between atoms: C_26  and  C_27
REMARK   10  A    between atoms: C_27  and  O_28
REMARK   11  A    between atoms: C_31  and  C_32
REMARK                            x       y       z     vdW  Elec       q    Type
REMARK                         _______ _______ _______ _____ _____    ______ ____
ROOT
ATOM      1  N   UNL     1       1.346   8.460  20.357  0.00  0.00    +0.000 N 
ATOM      2  C   UNL     1       1.502   7.122  20.876  0.00  0.00    +0.000 C 
ATOM      3  C   UNL     1       2.095   6.376  19.747  0.00  0.00    +0.000 A 
ATOM      4  C   UNL     1       2.475   7.242  18.725  0.00  0.00    +0.000 A 
ATOM      5  C   UNL     1       3.251   6.797  17.654  0.00  0.00    +0.000 A 
ATOM      6  C   UNL     1       3.582   5.425  17.610  0.00  0.00    +0.000 A 
ATOM      7  C   UNL     1       3.046   4.550  18.594  0.00  0.00    +0.000 A 
ATOM      8  C   UNL     1       2.318   5.014  19.690  0.00  0.00    +0.000 A 
ATOM      9  C   UNL     1       1.918   8.586  19.085  0.00  0.00    +0.000 C 
ATOM     10  O   UNL     1       1.964   9.553  18.341  0.00  0.00    +0.000 OA
ENDROOT
BRANCH   1  15
ATOM     11  C   UNL     1      -0.210  11.694  21.425  0.00  0.00    +0.000 A 
ATOM     12  C   UNL     1      -0.837  11.262  22.607  0.00  0.00    +0.000 A 
ATOM     13  C   UNL     1      -0.866   9.909  22.975  0.00  0.00    +0.000 A 
ATOM     14  C   UNL     1      -0.231   8.936  22.195  0.00  0.00    +0.000 A 
ATOM     15  C   UNL     1       0.467   9.327  21.058  0.00  0.00    +0.000 A 
ATOM     16  C   UNL     1       0.414  10.684  20.676  0.00  0.00    +0.000 A 
BRANCH  11  17
ATOM     17  C   UNL     1      -0.186  13.233  20.932  0.00  0.00    +0.000 C 
ATOM     18  C   UNL     1       0.767  14.168  21.729  0.00  0.00    +0.000 C 
ATOM     19  O   UNL     1      -0.309  15.025  22.148  0.00  0.00    +0.000 OA
ATOM     20  C   UNL     1      -1.282  14.198  21.478  0.00  0.00    +0.000 C 
BRANCH  17  21
ATOM     21  C   UNL     1       0.023  13.328  19.402  0.00  0.00    +0.000 C 
BRANCH  21  27
ATOM     22  C   UNL     1       0.825  16.322  18.698  0.00  0.00    +0.000 C 
ATOM     23  N   UNL     1       1.667  15.157  18.654  0.00  0.00    +0.000 N 
ATOM     24  C   UNL     1       2.963  15.152  18.231  0.00  0.00    +0.000 A 
ATOM     25  N   UNL     1       3.442  13.935  18.310  0.00  0.00    +0.000 NA
ATOM     26  N   UNL     1       2.443  13.124  18.784  0.00  0.00    +0.000 NA
ATOM     27  C   UNL     1       1.364  13.857  18.984  0.00  0.00    +0.000 A 
ENDBRANCH  21  27
ENDBRANCH  17  21
ENDBRANCH  11  17
ENDBRANCH   1  15
BRANCH   8  28
ATOM     28  C   UNL     1       1.845   4.065  20.762  0.00  0.00    +0.000 C 
ATOM     29  F   UNL     1       2.207   2.775  20.541  0.00  0.00    +0.000 F 
ATOM     30  F   UNL     1       2.348   4.390  21.984  0.00  0.00    +0.000 F 
ATOM     31  F   UNL     1       0.493   4.053  20.893  0.00  0.00    +0.000 F 
ENDBRANCH   8  28
BRANCH   6  32
ATOM     32  C   UNL     1       4.707   4.817  16.779  0.00  0.00    +0.000 C 
BRANCH  32  33
ATOM     33  N   UNL     1       5.935   4.333  17.414  0.00  0.00    +0.000 NA
ATOM     34  C   UNL     1       6.635   5.398  18.145  0.00  0.00    +0.000 C 
ATOM     35  C   UNL     1       7.401   6.450  17.306  0.00  0.00    +0.000 C 
ATOM     36  O   UNL     1       7.519   6.262  15.895  0.00  0.00    +0.000 OA
ATOM     37  C   UNL     1       7.393   4.945  15.358  0.00  0.00    +0.000 C 
ATOM     38  C   UNL     1       6.899   3.875  16.377  0.00  0.00    +0.000 C 
BRANCH  37  39
ATOM     39  C   UNL     1       6.476   5.028  14.117  0.00  0.00    +0.000 C 
BRANCH  39  40
ATOM     40  C   UNL     1       6.110   3.691  13.479  0.00  0.00    +0.000 C 
BRANCH  40  41
ATOM     41  O   UNL     1       6.404   3.756  12.081  0.00  0.00    +0.000 OA
ATOM     42  H   UNL     1       6.151   2.906  11.680  0.00  0.00    +0.000 HD
ENDBRANCH  40  41
ENDBRANCH  39  40
ENDBRANCH  37  39
ENDBRANCH  32  33
ENDBRANCH   6  32
TORSDOF 10
ENDMDL
MODEL 6
REMARK VINA RESULT:      -9.1      1.923      3.195
REMARK  Name = 
REMARK  11 active torsions:
REMARK  status: ('A' for Active; 'I' for Inactive)
REMARK    1  A    between atoms: C_1  and  N_2
REMARK    2  A    between atoms: C_6  and  C_7
REMARK    3  A    between atoms: C_7  and  C_8
REMARK    4  A    between atoms: C_8  and  C_9
REMARK    5  A    between atoms: C_13  and  N_14
REMARK    6  A    between atoms: C_19  and  C_20
REMARK    7  A    between atoms: C_20  and  N_21
REMARK    8  A    between atoms: C_25  and  C_26
REMARK    9  A    between atoms: C_26  and  C_27
REMARK   10  A    between atoms: C_27  and  O_28
REMARK   11  A    between atoms: C_31  and  C_32
REMARK                            x       y       z     vdW  Elec       q    Type
REMARK                         _______ _______ _______ _____ _____    ______ ____
ROOT
ATOM      1  N   UNL     1       1.222   8.438  20.470  0.00  0.00    +0.000 N 
ATOM      2  C   UNL     1       1.453   7.099  20.958  0.00  0.00    +0.000 C 
ATOM      3  C   UNL     1       2.009   6.390  19.787  0.00  0.00    +0.000 A 
ATOM      4  C   UNL     1       2.302   7.283  18.760  0.00  0.00    +0.000 A 
ATOM      5  C   UNL     1       3.032   6.880  17.641  0.00  0.00    +0.000 A 
ATOM      6  C   UNL     1       3.409   5.522  17.558  0.00  0.00    +0.000 A 
ATOM      7  C   UNL     1       2.959   4.615  18.556  0.00  0.00    +0.000 A 
ATOM      8  C   UNL     1       2.276   5.037  19.697  0.00  0.00    +0.000 A 
ATOM      9  C   UNL     1       1.718   8.601  19.171  0.00  0.00    +0.000 C 
ATOM     10  O   UNL     1       1.690   9.579  18.440  0.00  0.00    +0.000 OA
ENDROOT
BRANCH   1  15
ATOM     11  C   UNL     1      -0.875  11.426  21.298  0.00  0.00    +0.000 A 
ATOM     12  C   UNL     1      -0.991  11.242  22.686  0.00  0.00    +0.000 A 
ATOM     13  C   UNL     1      -0.509  10.087  23.321  0.00  0.00    +0.000 A 
ATOM     14  C   UNL     1       0.147   9.087  22.595  0.00  0.00    +0.000 A 
ATOM     15  C   UNL     1       0.353   9.263  21.231  0.00  0.00    +0.000 A 
ATOM     16  C   UNL     1      -0.210  10.399  20.612  0.00  0.00    +0.000 A 
BRANCH  11  17
ATOM     17  C   UNL     1      -1.453  12.716  20.512  0.00  0.00    +0.000 C 
ATOM     18  C   UNL     1      -1.617  13.998  21.377  0.00  0.00    +0.000 C 
ATOM     19  O   UNL     1      -3.034  14.062  21.138  0.00  0.00    +0.000 OA
ATOM     20  C   UNL     1      -2.997  12.851  20.355  0.00  0.00    +0.000 C 
BRANCH  17  21
ATOM     21  C   UNL     1      -0.667  12.973  19.204  0.00  0.00    +0.000 C 
BRANCH  21  27
ATOM     22  C   UNL     1      -0.187  16.055  18.595  0.00  0.00    +0.000 C 
ATOM     23  N   UNL     1       0.775  15.096  19.069  0.00  0.00    +0.000 N 
ATOM     24  C   UNL     1       2.095  15.361  19.278  0.00  0.00    +0.000 A 
ATOM     25  N   UNL     1       2.695  14.276  19.704  0.00  0.00    +0.000 NA
ATOM     26  N   UNL     1       1.755  13.279  19.768  0.00  0.00    +0.000 NA
ATOM     27  C   UNL     1       0.594  13.768  19.375  0.00  0.00    +0.000 A 
ENDBRANCH  21  27
ENDBRANCH  17  21
ENDBRANCH  11  17
ENDBRANCH   1  15
BRANCH   8  28
ATOM     28  C   UNL     1       1.896   4.058  20.778  0.00  0.00    +0.000 C 
ATOM     29  F   UNL     1       0.555   3.931  20.947  0.00  0.00    +0.000 F 
ATOM     30  F   UNL     1       2.360   2.806  20.514  0.00  0.00    +0.000 F 
ATOM     31  F   UNL     1       2.392   4.402  21.996  0.00  0.00    +0.000 F 
ENDBRANCH   8  28
BRANCH   6  32
ATOM     32  C   UNL     1       4.507   4.966  16.658  0.00  0.00    +0.000 C 
BRANCH  32  33
ATOM     33  N   UNL     1       5.220   5.833  15.717  0.00  0.00    +0.000 NA
ATOM     34  C   UNL     1       5.911   5.063  14.674  0.00  0.00    +0.000 C 
ATOM     35  C   UNL     1       7.208   4.320  15.080  0.00  0.00    +0.000 C 
ATOM     36  O   UNL     1       7.748   4.530  16.385  0.00  0.00    +0.000 OA
ATOM     37  C   UNL     1       7.420   5.729  17.088  0.00  0.00    +0.000 C 
ATOM     38  C   UNL     1       6.295   6.579  16.426  0.00  0.00    +0.000 C 
BRANCH  37  39
ATOM     39  C   UNL     1       7.070   5.340  18.542  0.00  0.00    +0.000 C 
BRANCH  39  40
ATOM     40  C   UNL     1       8.068   5.797  19.603  0.00  0.00    +0.000 C 
BRANCH  40  41
ATOM     41  O   UNL     1       8.576   7.080  19.231  0.00  0.00    +0.000 OA
ATOM     42  H   UNL     1       9.379   7.249  19.752  0.00  0.00    +0.000 HD
ENDBRANCH  40  41
ENDBRANCH  39  40
ENDBRANCH  37  39
ENDBRANCH  32  33
ENDBRANCH   6  32
TORSDOF 10
ENDMDL
MODEL 7
REMARK VINA RESULT:      -9.0      1.697      2.511
REMARK  Name = 
REMARK  11 active torsions:
REMARK  status: ('A' for Active; 'I' for Inactive)
REMARK    1  A    between atoms: C_1  and  N_2
REMARK    2  A    between atoms: C_6  and  C_7
REMARK    3  A    between atoms: C_7  and  C_8
REMARK    4  A    between atoms: C_8  and  C_9
REMARK    5  A    between atoms: C_13  and  N_14
REMARK    6  A    between atoms: C_19  and  C_20
REMARK    7  A    between atoms: C_20  and  N_21
REMARK    8  A    between atoms: C_25  and  C_26
REMARK    9  A    between atoms: C_26  and  C_27
REMARK   10  A    between atoms: C_27  and  O_28
REMARK   11  A    between atoms: C_31  and  C_32
REMARK                            x       y       z     vdW  Elec       q    Type
REMARK                         _______ _______ _______ _____ _____    ______ ____
ROOT
ATOM      1  N   UNL     1       1.328   8.250  20.427  0.00  0.00    +0.000 N 
ATOM      2  C   UNL     1       1.475   6.903  20.926  0.00  0.00    +0.000 C 
ATOM      3  C   UNL     1       2.073   6.172  19.790  0.00  0.00    +0.000 A 
ATOM      4  C   UNL     1       2.464   7.052  18.784  0.00  0.00    +0.000 A 
ATOM      5  C   UNL     1       3.245   6.621  17.712  0.00  0.00    +0.000 A 
ATOM      6  C   UNL     1       3.572   5.248  17.649  0.00  0.00    +0.000 A 
ATOM      7  C   UNL     1       3.026   4.360  18.615  0.00  0.00    +0.000 A 
ATOM      8  C   UNL     1       2.292   4.810  19.714  0.00  0.00    +0.000 A 
ATOM      9  C   UNL     1       1.908   8.393  19.161  0.00  0.00    +0.000 C 
ATOM     10  O   UNL     1       1.964   9.370  18.432  0.00  0.00    +0.000 OA
ENDROOT
BRANCH   1  15
ATOM     11  C   UNL     1      -0.926  11.181  21.013  0.00  0.00    +0.000 A 
ATOM     12  C   UNL     1      -0.950  11.169  22.418  0.00  0.00    +0.000 A 
ATOM     13  C   UNL     1      -0.352  10.138  23.158  0.00  0.00    +0.000 A 
ATOM     14  C   UNL     1       0.331   9.096  22.520  0.00  0.00    +0.000 A 
ATOM     15  C   UNL     1       0.447   9.109  21.135  0.00  0.00    +0.000 A 
ATOM     16  C   UNL     1      -0.229  10.119  20.418  0.00  0.00    +0.000 A 
BRANCH  11  17
ATOM     17  C   UNL     1      -1.636  12.321  20.113  0.00  0.00    +0.000 C 
ATOM     18  C   UNL     1      -2.706  13.175  20.851  0.00  0.00    +0.000 C 
ATOM     19  O   UNL     1      -3.753  12.767  19.953  0.00  0.00    +0.000 OA
ATOM     20  C   UNL     1      -2.850  11.907  19.227  0.00  0.00    +0.000 C 
BRANCH  17  21
ATOM     21  C   UNL     1      -0.588  13.184  19.372  0.00  0.00    +0.000 C 
BRANCH  21  27
ATOM     22  C   UNL     1       2.502  12.919  18.679  0.00  0.00    +0.000 C 
ATOM     23  N   UNL     1       1.918  13.433  19.888  0.00  0.00    +0.000 N 
ATOM     24  C   UNL     1       2.626  13.841  20.979  0.00  0.00    +0.000 A 
ATOM     25  N   UNL     1       1.797  14.247  21.909  0.00  0.00    +0.000 NA
ATOM     26  N   UNL     1       0.523  14.095  21.425  0.00  0.00    +0.000 NA
ATOM     27  C   UNL     1       0.590  13.593  20.206  0.00  0.00    +0.000 A 
ENDBRANCH  21  27
ENDBRANCH  17  21
ENDBRANCH  11  17
ENDBRANCH   1  15
BRANCH   8  28
ATOM     28  C   UNL     1       1.808   3.847  20.767  0.00  0.00    +0.000 C 
ATOM     29  F   UNL     1       0.458   3.838  20.914  0.00  0.00    +0.000 F 
ATOM     30  F   UNL     1       2.161   2.564  20.482  0.00  0.00    +0.000 F 
ATOM     31  F   UNL     1       2.312   4.120  22.000  0.00  0.00    +0.000 F 
ENDBRANCH   8  28
BRANCH   6  32
ATOM     32  C   UNL     1       4.701   4.649  16.817  0.00  0.00    +0.000 C 
BRANCH  32  33
ATOM     33  N   UNL     1       5.981   4.291  17.431  0.00  0.00    +0.000 NA
ATOM     34  C   UNL     1       6.612   5.438  18.098  0.00  0.00    +0.000 C 
ATOM     35  C   UNL     1       7.267   6.513  17.196  0.00  0.00    +0.000 C 
ATOM     36  O   UNL     1       7.360   6.276  15.791  0.00  0.00    +0.000 OA
ATOM     37  C   UNL     1       7.327   4.932  15.309  0.00  0.00    +0.000 C 
ATOM     38  C   UNL     1       6.949   3.869  16.383  0.00  0.00    +0.000 C 
BRANCH  37  39
ATOM     39  C   UNL     1       6.372   4.891  14.095  0.00  0.00    +0.000 C 
BRANCH  39  40
ATOM     40  C   UNL     1       6.779   3.945  12.969  0.00  0.00    +0.000 C 
BRANCH  40  41
ATOM     41  O   UNL     1       5.596   3.436  12.349  0.00  0.00    +0.000 OA
ATOM     42  H   UNL     1       5.348   4.042  11.630  0.00  0.00    +0.000 HD
ENDBRANCH  40  41
ENDBRANCH  39  40
ENDBRANCH  37  39
ENDBRANCH  32  33
ENDBRANCH   6  32
TORSDOF 10
ENDMDL
MODEL 8
REMARK VINA RESULT:      -9.0      1.784      2.603
REMARK  Name = 
REMARK  11 active torsions:
REMARK  status: ('A' for Active; 'I' for Inactive)
REMARK    1  A    between atoms: C_1  and  N_2
REMARK    2  A    between atoms: C_6  and  C_7
REMARK    3  A    between atoms: C_7  and  C_8
REMARK    4  A    between atoms: C_8  and  C_9
REMARK    5  A    between atoms: C_13  and  N_14
REMARK    6  A    between atoms: C_19  and  C_20
REMARK    7  A    between atoms: C_20  and  N_21
REMARK    8  A    between atoms: C_25  and  C_26
REMARK    9  A    between atoms: C_26  and  C_27
REMARK   10  A    between atoms: C_27  and  O_28
REMARK   11  A    between atoms: C_31  and  C_32
REMARK                            x       y       z     vdW  Elec       q    Type
REMARK                         _______ _______ _______ _____ _____    ______ ____
ROOT
ATOM      1  N   UNL     1       1.406   8.157  20.401  0.00  0.00    +0.000 N 
ATOM      2  C   UNL     1       1.551   6.817  20.918  0.00  0.00    +0.000 C 
ATOM      3  C   UNL     1       2.161   6.074  19.795  0.00  0.00    +0.000 A 
ATOM      4  C   UNL     1       2.559   6.942  18.783  0.00  0.00    +0.000 A 
ATOM      5  C   UNL     1       3.352   6.500  17.724  0.00  0.00    +0.000 A 
ATOM      6  C   UNL     1       3.682   5.127  17.680  0.00  0.00    +0.000 A 
ATOM      7  C   UNL     1       3.128   4.250  18.652  0.00  0.00    +0.000 A 
ATOM      8  C   UNL     1       2.383   4.711  19.737  0.00  0.00    +0.000 A 
ATOM      9  C   UNL     1       1.998   8.286  19.139  0.00  0.00    +0.000 C 
ATOM     10  O   UNL     1       2.059   9.255  18.399  0.00  0.00    +0.000 OA
ENDROOT
BRANCH   1  15
ATOM     11  C   UNL     1      -0.763  11.154  20.975  0.00  0.00    +0.000 A 
ATOM     12  C   UNL     1      -0.875  11.086  22.374  0.00  0.00    +0.000 A 
ATOM     13  C   UNL     1      -0.366  10.001  23.104  0.00  0.00    +0.000 A 
ATOM     14  C   UNL     1       0.315   8.959  22.465  0.00  0.00    +0.000 A 
ATOM     15  C   UNL     1       0.517   9.022  21.091  0.00  0.00    +0.000 A 
ATOM     16  C   UNL     1      -0.073  10.089  20.378  0.00  0.00    +0.000 A 
BRANCH  11  17
ATOM     17  C   UNL     1      -1.371  12.358  20.083  0.00  0.00    +0.000 C 
ATOM     18  C   UNL     1      -2.907  12.298  19.852  0.00  0.00    +0.000 C 
ATOM     19  O   UNL     1      -2.760  12.218  18.423  0.00  0.00    +0.000 OA
ATOM     20  C   UNL     1      -1.322  12.221  18.531  0.00  0.00    +0.000 C 
BRANCH  17  21
ATOM     21  C   UNL     1      -0.896  13.735  20.604  0.00  0.00    +0.000 C 
BRANCH  21  27
ATOM     22  C   UNL     1      -0.321  16.154  18.624  0.00  0.00    +0.000 C 
ATOM     23  N   UNL     1       0.631  15.226  19.172  0.00  0.00    +0.000 N 
ATOM     24  C   UNL     1       1.959  15.207  18.866  0.00  0.00    +0.000 A 
ATOM     25  N   UNL     1       2.545  14.239  19.528  0.00  0.00    +0.000 NA
ATOM     26  N   UNL     1       1.584  13.606  20.275  0.00  0.00    +0.000 NA
ATOM     27  C   UNL     1       0.423  14.193  20.055  0.00  0.00    +0.000 A 
ENDBRANCH  21  27
ENDBRANCH  17  21
ENDBRANCH  11  17
ENDBRANCH   1  15
BRANCH   8  28
ATOM     28  C   UNL     1       1.891   3.759  20.798  0.00  0.00    +0.000 C 
ATOM     29  F   UNL     1       0.537   3.717  20.901  0.00  0.00    +0.000 F 
ATOM     30  F   UNL     1       2.287   2.480  20.555  0.00  0.00    +0.000 F 
ATOM     31  F   UNL     1       2.347   4.074  22.039  0.00  0.00    +0.000 F 
ENDBRANCH   8  28
BRANCH   6  32
ATOM     32  C   UNL     1       4.819   4.521  16.866  0.00  0.00    +0.000 C 
BRANCH  32  33
ATOM     33  N   UNL     1       6.119   4.242  17.479  0.00  0.00    +0.000 NA
ATOM     34  C   UNL     1       6.645   5.404  18.209  0.00  0.00    +0.000 C 
ATOM     35  C   UNL     1       7.215   6.573  17.367  0.00  0.00    +0.000 C 
ATOM     36  O   UNL     1       7.340   6.414  15.954  0.00  0.00    +0.000 OA
ATOM     37  C   UNL     1       7.426   5.097  15.408  0.00  0.00    +0.000 C 
ATOM     38  C   UNL     1       7.129   3.955  16.426  0.00  0.00    +0.000 C 
BRANCH  37  39
ATOM     39  C   UNL     1       6.489   5.034  14.181  0.00  0.00    +0.000 C 
BRANCH  39  40
ATOM     40  C   UNL     1       6.984   4.179  13.018  0.00  0.00    +0.000 C 
BRANCH  40  41
ATOM     41  O   UNL     1       6.178   3.000  12.943  0.00  0.00    +0.000 OA
ATOM     42  H   UNL     1       6.398   2.538  12.115  0.00  0.00    +0.000 HD
ENDBRANCH  40  41
ENDBRANCH  39  40
ENDBRANCH  37  39
ENDBRANCH  32  33
ENDBRANCH   6  32
TORSDOF 10
ENDMDL
MODEL 9
REMARK VINA RESULT:      -9.0      1.659      2.335
REMARK  Name = 
REMARK  11 active torsions:
REMARK  status: ('A' for Active; 'I' for Inactive)
REMARK    1  A    between atoms: C_1  and  N_2
REMARK    2  A    between atoms: C_6  and  C_7
REMARK    3  A    between atoms: C_7  and  C_8
REMARK    4  A    between atoms: C_8  and  C_9
REMARK    5  A    between atoms: C_13  and  N_14
REMARK    6  A    between atoms: C_19  and  C_20
REMARK    7  A    between atoms: C_20  and  N_21
REMARK    8  A    between atoms: C_25  and  C_26
REMARK    9  A    between atoms: C_26  and  C_27
REMARK   10  A    between atoms: C_27  and  O_28
REMARK   11  A    between atoms: C_31  and  C_32
REMARK                            x       y       z     vdW  Elec       q    Type
REMARK                         _______ _______ _______ _____ _____    ______ ____
ROOT
ATOM      1  N   UNL     1       1.344   8.366  20.353  0.00  0.00    +0.000 N 
ATOM      2  C   UNL     1       1.502   7.024  20.862  0.00  0.00    +0.000 C 
ATOM      3  C   UNL     1       2.120   6.293  19.737  0.00  0.00    +0.000 A 
ATOM      4  C   UNL     1       2.511   7.171  18.730  0.00  0.00    +0.000 A 
ATOM      5  C   UNL     1       3.309   6.742  17.669  0.00  0.00    +0.000 A 
ATOM      6  C   UNL     1       3.652   5.373  17.618  0.00  0.00    +0.000 A 
ATOM      7  C   UNL     1       3.105   4.485  18.584  0.00  0.00    +0.000 A 
ATOM      8  C   UNL     1       2.354   4.933  19.672  0.00  0.00    +0.000 A 
ATOM      9  C   UNL     1       1.937   8.508  19.093  0.00  0.00    +0.000 C 
ATOM     10  O   UNL     1       1.989   9.481  18.358  0.00  0.00    +0.000 OA
ENDROOT
BRANCH   1  15
ATOM     11  C   UNL     1      -0.958  11.269  20.893  0.00  0.00    +0.000 A 
ATOM     12  C   UNL     1      -0.988  11.273  22.298  0.00  0.00    +0.000 A 
ATOM     13  C   UNL     1      -0.378  10.260  23.053  0.00  0.00    +0.000 A 
ATOM     14  C   UNL     1       0.324   9.222  22.431  0.00  0.00    +0.000 A 
ATOM     15  C   UNL     1       0.446   9.219  21.046  0.00  0.00    +0.000 A 
ATOM     16  C   UNL     1      -0.241  10.211  20.314  0.00  0.00    +0.000 A 
BRANCH  11  17
ATOM     17  C   UNL     1      -1.681  12.386  19.975  0.00  0.00    +0.000 C 
ATOM     18  C   UNL     1      -2.315  13.572  20.756  0.00  0.00    +0.000 C 
ATOM     19  O   UNL     1      -3.635  13.285  20.261  0.00  0.00    +0.000 OA
ATOM     20  C   UNL     1      -3.155  12.134  19.535  0.00  0.00    +0.000 C 
BRANCH  17  21
ATOM     21  C   UNL     1      -0.757  12.851  18.826  0.00  0.00    +0.000 C 
BRANCH  21  27
ATOM     22  C   UNL     1       1.990  13.151  20.395  0.00  0.00    +0.000 C 
ATOM     23  N   UNL     1       1.190  14.200  19.824  0.00  0.00    +0.000 N 
ATOM     24  C   UNL     1       1.468  15.530  19.926  0.00  0.00    +0.000 A 
ATOM     25  N   UNL     1       0.543  16.218  19.302  0.00  0.00    +0.000 NA
ATOM     26  N   UNL     1      -0.363  15.325  18.789  0.00  0.00    +0.000 NA
ATOM     27  C   UNL     1       0.019  14.103  19.111  0.00  0.00    +0.000 A 
ENDBRANCH  21  27
ENDBRANCH  17  21
ENDBRANCH  11  17
ENDBRANCH   1  15
BRANCH   8  28
ATOM     28  C   UNL     1       1.870   3.971  20.726  0.00  0.00    +0.000 C 
ATOM     29  F   UNL     1       2.355   4.238  21.966  0.00  0.00    +0.000 F 
ATOM     30  F   UNL     1       0.514   3.988  20.843  0.00  0.00    +0.000 F 
ATOM     31  F   UNL     1       2.217   2.684  20.462  0.00  0.00    +0.000 F 
ENDBRANCH   8  28
BRANCH   6  32
ATOM     32  C   UNL     1       4.796   4.781  16.802  0.00  0.00    +0.000 C 
BRANCH  32  33
ATOM     33  N   UNL     1       6.028   4.329  17.450  0.00  0.00    +0.000 NA
ATOM     34  C   UNL     1       6.662   5.397  18.235  0.00  0.00    +0.000 C 
ATOM     35  C   UNL     1       7.401   6.511  17.453  0.00  0.00    +0.000 C 
ATOM     36  O   UNL     1       7.560   6.378  16.040  0.00  0.00    +0.000 OA
ATOM     37  C   UNL     1       7.506   5.077  15.454  0.00  0.00    +0.000 C 
ATOM     38  C   UNL     1       7.036   3.951  16.423  0.00  0.00    +0.000 C 
BRANCH  37  39
ATOM     39  C   UNL     1       6.617   5.164  14.194  0.00  0.00    +0.000 C 
BRANCH  39  40
ATOM     40  C   UNL     1       6.359   3.842  13.477  0.00  0.00    +0.000 C 
BRANCH  40  41
ATOM     41  O   UNL     1       4.981   3.787  13.101  0.00  0.00    +0.000 OA
ATOM     42  H   UNL     1       4.745   2.854  12.960  0.00  0.00    +0.000 HD
ENDBRANCH  40  41
ENDBRANCH  39  40
ENDBRANCH  37  39
ENDBRANCH  32  33
ENDBRANCH   6  32
TORSDOF 10
ENDMDL
