MODEL 1
REMARK VINA RESULT:      -9.9      0.000      0.000
REMARK  Name = 
REMARK  10 active torsions:
REMARK  status: ('A' for Active; 'I' for Inactive)
REMARK    1  A    between atoms: C_1  and  C_2
REMARK    2  A    between atoms: C_2  and  C_3
REMARK    3  A    between atoms: C_2  and  C_10
REMARK    4  A    between atoms: C_3  and  C_4
REMARK    5  A    between atoms: N_8  and  C_9
REMARK    6  A    between atoms: C_14  and  N_15
REMARK    7  A    between atoms: C_20  and  C_21
REMARK    8  A    between atoms: C_21  and  N_22
REMARK    9  A    between atoms: C_24  and  O_25
REMARK   10  A    between atoms: C_31  and  C_32
REMARK                            x       y       z     vdW  Elec       q    Type
REMARK                         _______ _______ _______ _____ _____    ______ ____
ROOT
ATOM      1  N   UNL     1       1.558   7.690  20.098  0.00  0.00    +0.000 N 
ATOM      2  C   UNL     1       1.581   6.408  20.763  0.00  0.00    +0.000 C 
ATOM      3  C   UNL     1       2.280   5.503  19.839  0.00  0.00    +0.000 A 
ATOM      4  C   UNL     1       2.646   6.186  18.684  0.00  0.00    +0.000 A 
ATOM      5  C   UNL     1       3.306   5.514  17.660  0.00  0.00    +0.000 A 
ATOM      6  C   UNL     1       3.573   4.131  17.830  0.00  0.00    +0.000 A 
ATOM      7  C   UNL     1       3.188   3.477  19.024  0.00  0.00    +0.000 A 
ATOM      8  C   UNL     1       2.542   4.157  20.056  0.00  0.00    +0.000 A 
ATOM      9  C   UNL     1       2.198   7.609  18.845  0.00  0.00    +0.000 C 
ATOM     10  O   UNL     1       2.390   8.475  18.009  0.00  0.00    +0.000 OA
ENDROOT
BRANCH   1  15
ATOM     11  C   UNL     1      -0.299  10.932  20.491  0.00  0.00    +0.000 A 
ATOM     12  C   UNL     1      -0.378  11.022  21.880  0.00  0.00    +0.000 A 
ATOM     13  C   UNL     1       0.183  10.020  22.693  0.00  0.00    +0.000 A 
ATOM     14  C   UNL     1       0.829   8.898  22.142  0.00  0.00    +0.000 A 
ATOM     15  C   UNL     1       0.933   8.770  20.763  0.00  0.00    +0.000 A 
ATOM     16  C   UNL     1       0.364   9.809  19.976  0.00  0.00    +0.000 A 
BRANCH  11  18
ATOM     17  C   UNL     1      -0.424  13.410  19.825  0.00  0.00    +0.000 C 
ATOM     18  C   UNL     1      -0.829  11.970  19.493  0.00  0.00    +0.000 C 
BRANCH  18  19
ATOM     19  C   UNL     1      -2.368  11.838  19.300  0.00  0.00    +0.000 C 
BRANCH  19  20
ATOM     20  C   UNL     1      -2.754  11.412  17.919  0.00  0.00    +0.000 A 
ATOM     21  N   UNL     1      -1.954  10.892  17.009  0.00  0.00    +0.000 NA
ATOM     22  N   UNL     1      -2.680  10.699  15.856  0.00  0.00    +0.000 NA
ATOM     23  C   UNL     1      -3.910  11.090  16.091  0.00  0.00    +0.000 A 
ATOM     24  N   UNL     1      -4.011  11.513  17.380  0.00  0.00    +0.000 N 
ATOM     25  C   UNL     1      -5.212  11.966  18.027  0.00  0.00    +0.000 C 
ENDBRANCH  19  20
ENDBRANCH  18  19
ENDBRANCH  11  18
ENDBRANCH   1  15
BRANCH   8  26
ATOM     26  C   UNL     1       2.163   3.452  21.335  0.00  0.00    +0.000 C 
ATOM     27  F   UNL     1       0.829   3.200  21.446  0.00  0.00    +0.000 F 
ATOM     28  F   UNL     1       2.778   2.250  21.469  0.00  0.00    +0.000 F 
ATOM     29  F   UNL     1       2.489   4.178  22.438  0.00  0.00    +0.000 F 
ENDBRANCH   8  26
BRANCH   6  30
ATOM     30  C   UNL     1       4.324   3.304  16.797  0.00  0.00    +0.000 C 
BRANCH  30  31
ATOM     31  N   UNL     1       5.625   3.892  16.421  0.00  0.00    +0.000 NA
ATOM     32  C   UNL     1       5.506   4.833  15.287  0.00  0.00    +0.000 C 
ATOM     33  C   UNL     1       6.615   5.872  15.473  0.00  0.00    +0.000 C 
ATOM     34  C   UNL     1       6.718   5.988  16.989  0.00  0.00    +0.000 C 
ATOM     35  F   UNL     1       5.912   6.983  17.436  0.00  0.00    +0.000 F 
ATOM     36  F   UNL     1       7.971   6.272  17.400  0.00  0.00    +0.000 F 
ATOM     37  C   UNL     1       6.232   4.650  17.540  0.00  0.00    +0.000 C 
BRANCH  33  38
ATOM     38  O   UNL     1       7.825   5.455  14.833  0.00  0.00    +0.000 OA
ATOM     39  H   UNL     1       7.755   5.678  13.887  0.00  0.00    +0.000 HD
ENDBRANCH  33  38
ENDBRANCH  30  31
ENDBRANCH   6  30
TORSDOF 8
ENDMDL
MODEL 2
REMARK VINA RESULT:      -9.8      3.927      9.284
REMARK  Name = 
REMARK  10 active torsions:
REMARK  status: ('A' for Active; 'I' for Inactive)
REMARK    1  A    between atoms: C_1  and  C_2
REMARK    2  A    between atoms: C_2  and  C_3
REMARK    3  A    between atoms: C_2  and  C_10
REMARK    4  A    between atoms: C_3  and  C_4
REMARK    5  A    between atoms: N_8  and  C_9
REMARK    6  A    between atoms: C_14  and  N_15
REMARK    7  A    between atoms: C_20  and  C_21
REMARK    8  A    between atoms: C_21  and  N_22
REMARK    9  A    between atoms: C_24  and  O_25
REMARK   10  A    between atoms: C_31  and  C_32
REMARK                            x       y       z     vdW  Elec       q    Type
REMARK                         _______ _______ _______ _____ _____    ______ ____
ROOT
ATOM      1  N   UNL     1       2.068   7.558  19.618  0.00  0.00    +0.000 N 
ATOM      2  C   UNL     1       1.383   7.989  20.814  0.00  0.00    +0.000 C 
ATOM      3  C   UNL     1       0.790   9.291  20.475  0.00  0.00    +0.000 A 
ATOM      4  C   UNL     1       1.105   9.635  19.165  0.00  0.00    +0.000 A 
ATOM      5  C   UNL     1       0.660  10.843  18.639  0.00  0.00    +0.000 A 
ATOM      6  C   UNL     1      -0.099  11.700  19.476  0.00  0.00    +0.000 A 
ATOM      7  C   UNL     1      -0.401  11.308  20.802  0.00  0.00    +0.000 A 
ATOM      8  C   UNL     1       0.032  10.089  21.322  0.00  0.00    +0.000 A 
ATOM      9  C   UNL     1       1.920   8.512  18.591  0.00  0.00    +0.000 C 
ATOM     10  O   UNL     1       2.335   8.499  17.446  0.00  0.00    +0.000 OA
ENDROOT
BRANCH   1  15
ATOM     11  C   UNL     1       4.879   5.111  19.147  0.00  0.00    +0.000 A 
ATOM     12  C   UNL     1       4.296   3.944  19.637  0.00  0.00    +0.000 A 
ATOM     13  C   UNL     1       2.975   3.955  20.120  0.00  0.00    +0.000 A 
ATOM     14  C   UNL     1       2.204   5.132  20.134  0.00  0.00    +0.000 A 
ATOM     15  C   UNL     1       2.745   6.317  19.653  0.00  0.00    +0.000 A 
ATOM     16  C   UNL     1       4.079   6.263  19.162  0.00  0.00    +0.000 A 
BRANCH  11  18
ATOM     17  C   UNL     1       7.368   5.568  19.591  0.00  0.00    +0.000 C 
ATOM     18  C   UNL     1       6.290   5.230  18.555  0.00  0.00    +0.000 C 
BRANCH  18  19
ATOM     19  C   UNL     1       6.320   6.220  17.354  0.00  0.00    +0.000 C 
BRANCH  19  20
ATOM     20  C   UNL     1       6.595   5.550  16.046  0.00  0.00    +0.000 A 
ATOM     21  N   UNL     1       7.649   5.740  15.276  0.00  0.00    +0.000 NA
ATOM     22  N   UNL     1       7.493   4.985  14.136  0.00  0.00    +0.000 NA
ATOM     23  C   UNL     1       6.357   4.338  14.240  0.00  0.00    +0.000 A 
ATOM     24  N   UNL     1       5.776   4.635  15.434  0.00  0.00    +0.000 N 
ATOM     25  C   UNL     1       4.548   4.080  15.936  0.00  0.00    +0.000 C 
ENDBRANCH  19  20
ENDBRANCH  18  19
ENDBRANCH  11  18
ENDBRANCH   1  15
BRANCH   8  26
ATOM     26  C   UNL     1      -0.321   9.672  22.728  0.00  0.00    +0.000 C 
ATOM     27  F   UNL     1      -1.094  10.578  23.390  0.00  0.00    +0.000 F 
ATOM     28  F   UNL     1      -1.009   8.502  22.768  0.00  0.00    +0.000 F 
ATOM     29  F   UNL     1       0.782   9.498  23.505  0.00  0.00    +0.000 F 
ENDBRANCH   8  26
BRANCH   6  30
ATOM     30  C   UNL     1      -0.673  13.025  18.998  0.00  0.00    +0.000 C 
BRANCH  30  31
ATOM     31  N   UNL     1       0.064  14.194  19.516  0.00  0.00    +0.000 NA
ATOM     32  C   UNL     1       1.210  14.560  18.657  0.00  0.00    +0.000 C 
ATOM     33  C   UNL     1       1.395  16.072  18.806  0.00  0.00    +0.000 C 
ATOM     34  C   UNL     1      -0.032  16.569  19.001  0.00  0.00    +0.000 C 
ATOM     35  F   UNL     1      -0.577  16.902  17.804  0.00  0.00    +0.000 F 
ATOM     36  F   UNL     1      -0.092  17.663  19.788  0.00  0.00    +0.000 F 
ATOM     37  C   UNL     1      -0.799  15.395  19.604  0.00  0.00    +0.000 C 
BRANCH  33  38
ATOM     38  O   UNL     1       2.277  16.379  19.891  0.00  0.00    +0.000 OA
ATOM     39  H   UNL     1       1.800  16.963  20.507  0.00  0.00    +0.000 HD
ENDBRANCH  33  38
ENDBRANCH  30  31
ENDBRANCH   6  30
TORSDOF 8
ENDMDL
MODEL 3
REMARK VINA RESULT:      -9.8      4.079      9.414
REMARK  Name = 
REMARK  10 active torsions:
REMARK  status: ('A' for Active; 'I' for Inactive)
REMARK    1  A    between atoms: C_1  and  C_2
REMARK    2  A    between atoms: C_2  and  C_3
REMARK    3  A    between atoms: C_2  and  C_10
REMARK    4  A    between atoms: C_3  and  C_4
REMARK    5  A    between atoms: N_8  and  C_9
REMARK    6  A    between atoms: C_14  and  N_15
REMARK    7  A    between atoms: C_20  and  C_21
REMARK    8  A    between atoms: C_21  and  N_22
REMARK    9  A    between atoms: C_24  and  O_25
REMARK   10  A    between atoms: C_31  and  C_32
REMARK                            x       y       z     vdW  Elec       q    Type
REMARK                         _______ _______ _______ _____ _____    ______ ____
ROOT
ATOM      1  N   UNL     1       2.048   7.739  19.329  0.00  0.00    +0.000 N 
ATOM      2  C   UNL     1       1.403   8.087  20.572  0.00  0.00    +0.000 C 
ATOM      3  C   UNL     1       0.804   9.410  20.344  0.00  0.00    +0.000 A 
ATOM      4  C   UNL     1       1.078   9.843  19.051  0.00  0.00    +0.000 A 
ATOM      5  C   UNL     1       0.621  11.086  18.625  0.00  0.00    +0.000 A 
ATOM      6  C   UNL     1      -0.108  11.883  19.544  0.00  0.00    +0.000 A 
ATOM      7  C   UNL     1      -0.369  11.400  20.848  0.00  0.00    +0.000 A 
ATOM      8  C   UNL     1       0.076  10.147  21.267  0.00  0.00    +0.000 A 
ATOM      9  C   UNL     1       1.871   8.763  18.376  0.00  0.00    +0.000 C 
ATOM     10  O   UNL     1       2.250   8.828  17.219  0.00  0.00    +0.000 OA
ENDROOT
BRANCH   1  15
ATOM     11  C   UNL     1       4.327   5.090  17.949  0.00  0.00    +0.000 A 
ATOM     12  C   UNL     1       4.182   4.092  18.911  0.00  0.00    +0.000 A 
ATOM     13  C   UNL     1       3.330   4.284  20.014  0.00  0.00    +0.000 A 
ATOM     14  C   UNL     1       2.609   5.478  20.192  0.00  0.00    +0.000 A 
ATOM     15  C   UNL     1       2.722   6.498  19.255  0.00  0.00    +0.000 A 
ATOM     16  C   UNL     1       3.583   6.262  18.148  0.00  0.00    +0.000 A 
BRANCH  11  18
ATOM     17  C   UNL     1       4.787   3.847  15.748  0.00  0.00    +0.000 C 
ATOM     18  C   UNL     1       5.186   4.996  16.680  0.00  0.00    +0.000 C 
BRANCH  18  19
ATOM     19  C   UNL     1       6.703   4.954  17.025  0.00  0.00    +0.000 C 
BRANCH  19  20
ATOM     20  C   UNL     1       7.249   6.282  17.442  0.00  0.00    +0.000 A 
ATOM     21  N   UNL     1       7.235   7.392  16.731  0.00  0.00    +0.000 NA
ATOM     22  N   UNL     1       7.891   8.370  17.444  0.00  0.00    +0.000 NA
ATOM     23  C   UNL     1       8.276   7.842  18.581  0.00  0.00    +0.000 A 
ATOM     24  N   UNL     1       7.868   6.545  18.638  0.00  0.00    +0.000 N 
ATOM     25  C   UNL     1       8.054   5.650  19.748  0.00  0.00    +0.000 C 
ENDBRANCH  19  20
ENDBRANCH  18  19
ENDBRANCH  11  18
ENDBRANCH   1  15
BRANCH   8  26
ATOM     26  C   UNL     1      -0.234   9.635  22.652  0.00  0.00    +0.000 C 
ATOM     27  F   UNL     1      -0.959  10.505  23.410  0.00  0.00    +0.000 F 
ATOM     28  F   UNL     1      -0.948   8.480  22.633  0.00  0.00    +0.000 F 
ATOM     29  F   UNL     1       0.893   9.379  23.370  0.00  0.00    +0.000 F 
ENDBRANCH   8  26
BRANCH   6  30
ATOM     30  C   UNL     1      -0.692  13.239  19.177  0.00  0.00    +0.000 C 
BRANCH  30  31
ATOM     31  N   UNL     1       0.124  14.370  19.661  0.00  0.00    +0.000 NA
ATOM     32  C   UNL     1       1.305  14.614  18.806  0.00  0.00    +0.000 C 
ATOM     33  C   UNL     1       1.601  16.113  18.900  0.00  0.00    +0.000 C 
ATOM     34  C   UNL     1       0.213  16.723  19.054  0.00  0.00    +0.000 C 
ATOM     35  F   UNL     1      -0.291  17.048  17.837  0.00  0.00    +0.000 F 
ATOM     36  F   UNL     1       0.225  17.849  19.797  0.00  0.00    +0.000 F 
ATOM     37  C   UNL     1      -0.648  15.635  19.689  0.00  0.00    +0.000 C 
BRANCH  33  38
ATOM     38  O   UNL     1       2.490  16.396  19.985  0.00  0.00    +0.000 OA
ATOM     39  H   UNL     1       1.969  16.389  20.808  0.00  0.00    +0.000 HD
ENDBRANCH  33  38
ENDBRANCH  30  31
ENDBRANCH   6  30
TORSDOF 8
ENDMDL
MODEL 4
REMARK VINA RESULT:      -9.7      3.865      9.248
REMARK  Name = 
REMARK  10 active torsions:
REMARK  status: ('A' for Active; 'I' for Inactive)
REMARK    1  A    between atoms: C_1  and  C_2
REMARK    2  A    between atoms: C_2  and  C_3
REMARK    3  A    between atoms: C_2  and  C_10
REMARK    4  A    between atoms: C_3  and  C_4
REMARK    5  A    between atoms: N_8  and  C_9
REMARK    6  A    between atoms: C_14  and  N_15
REMARK    7  A    between atoms: C_20  and  C_21
REMARK    8  A    between atoms: C_21  and  N_22
REMARK    9  A    between atoms: C_24  and  O_25
REMARK   10  A    between atoms: C_31  and  C_32
REMARK                            x       y       z     vdW  Elec       q    Type
REMARK                         _______ _______ _______ _____ _____    ______ ____
ROOT
ATOM      1  N   UNL     1       2.046   7.779  19.326  0.00  0.00    +0.000 N 
ATOM      2  C   UNL     1       1.398   8.110  20.573  0.00  0.00    +0.000 C 
ATOM      3  C   UNL     1       0.841   9.456  20.377  0.00  0.00    +0.000 A 
ATOM      4  C   UNL     1       1.141   9.918  19.100  0.00  0.00    +0.000 A 
ATOM      5  C   UNL     1       0.726  11.185  18.705  0.00  0.00    +0.000 A 
ATOM      6  C   UNL     1       0.011  11.978  19.639  0.00  0.00    +0.000 A 
ATOM      7  C   UNL     1      -0.279  11.466  20.927  0.00  0.00    +0.000 A 
ATOM      8  C   UNL     1       0.124  10.189  21.314  0.00  0.00    +0.000 A 
ATOM      9  C   UNL     1       1.909   8.834  18.402  0.00  0.00    +0.000 C 
ATOM     10  O   UNL     1       2.303   8.921  17.251  0.00  0.00    +0.000 OA
ENDROOT
BRANCH   1  15
ATOM     11  C   UNL     1       4.282   5.113  17.909  0.00  0.00    +0.000 A 
ATOM     12  C   UNL     1       4.079   4.085  18.828  0.00  0.00    +0.000 A 
ATOM     13  C   UNL     1       3.202   4.261  19.913  0.00  0.00    +0.000 A 
ATOM     14  C   UNL     1       2.512   5.471  20.117  0.00  0.00    +0.000 A 
ATOM     15  C   UNL     1       2.684   6.521  19.224  0.00  0.00    +0.000 A 
ATOM     16  C   UNL     1       3.568   6.300  18.133  0.00  0.00    +0.000 A 
BRANCH  11  18
ATOM     17  C   UNL     1       4.791   3.915  15.694  0.00  0.00    +0.000 C 
ATOM     18  C   UNL     1       5.174   5.041  16.662  0.00  0.00    +0.000 C 
BRANCH  18  19
ATOM     19  C   UNL     1       6.681   4.978  17.046  0.00  0.00    +0.000 C 
BRANCH  19  20
ATOM     20  C   UNL     1       7.238   6.301  17.463  0.00  0.00    +0.000 A 
ATOM     21  N   UNL     1       7.214   7.417  16.760  0.00  0.00    +0.000 NA
ATOM     22  N   UNL     1       7.885   8.388  17.467  0.00  0.00    +0.000 NA
ATOM     23  C   UNL     1       8.289   7.851  18.594  0.00  0.00    +0.000 A 
ATOM     24  N   UNL     1       7.879   6.555  18.649  0.00  0.00    +0.000 N 
ATOM     25  C   UNL     1       8.083   5.652  19.749  0.00  0.00    +0.000 C 
ENDBRANCH  19  20
ENDBRANCH  18  19
ENDBRANCH  11  18
ENDBRANCH   1  15
BRANCH   8  26
ATOM     26  C   UNL     1      -0.215   9.646  22.680  0.00  0.00    +0.000 C 
ATOM     27  F   UNL     1      -0.939   8.493  22.648  0.00  0.00    +0.000 F 
ATOM     28  F   UNL     1       0.889   9.367  23.420  0.00  0.00    +0.000 F 
ATOM     29  F   UNL     1      -0.958  10.521  23.411  0.00  0.00    +0.000 F 
ENDBRANCH   8  26
BRANCH   6  30
ATOM     30  C   UNL     1      -0.529  13.360  19.306  0.00  0.00    +0.000 C 
BRANCH  30  31
ATOM     31  N   UNL     1       0.531  14.322  18.944  0.00  0.00    +0.000 NA
ATOM     32  C   UNL     1      -0.003  15.680  18.708  0.00  0.00    +0.000 C 
ATOM     33  C   UNL     1       1.113  16.655  19.090  0.00  0.00    +0.000 C 
ATOM     34  C   UNL     1       1.811  15.935  20.239  0.00  0.00    +0.000 C 
ATOM     35  F   UNL     1       1.272  16.316  21.423  0.00  0.00    +0.000 F 
ATOM     36  F   UNL     1       3.131  16.208  20.291  0.00  0.00    +0.000 F 
ATOM     37  C   UNL     1       1.549  14.448  20.013  0.00  0.00    +0.000 C 
BRANCH  33  38
ATOM     38  O   UNL     1       1.961  16.933  17.971  0.00  0.00    +0.000 OA
ATOM     39  H   UNL     1       2.810  16.479  18.119  0.00  0.00    +0.000 HD
ENDBRANCH  33  38
ENDBRANCH  30  31
ENDBRANCH   6  30
TORSDOF 8
ENDMDL
MODEL 5
REMARK VINA RESULT:      -9.6      3.633      8.896
REMARK  Name = 
REMARK  10 active torsions:
REMARK  status: ('A' for Active; 'I' for Inactive)
REMARK    1  A    between atoms: C_1  and  C_2
REMARK    2  A    between atoms: C_2  and  C_3
REMARK    3  A    between atoms: C_2  and  C_10
REMARK    4  A    between atoms: C_3  and  C_4
REMARK    5  A    between atoms: N_8  and  C_9
REMARK    6  A    between atoms: C_14  and  N_15
REMARK    7  A    between atoms: C_20  and  C_21
REMARK    8  A    between atoms: C_21  and  N_22
REMARK    9  A    between atoms: C_24  and  O_25
REMARK   10  A    between atoms: C_31  and  C_32
REMARK                            x       y       z     vdW  Elec       q    Type
REMARK                         _______ _______ _______ _____ _____    ______ ____
ROOT
ATOM      1  N   UNL     1       1.998   7.761  19.409  0.00  0.00    +0.000 N 
ATOM      2  C   UNL     1       1.349   8.086  20.657  0.00  0.00    +0.000 C 
ATOM      3  C   UNL     1       0.849   9.458  20.491  0.00  0.00    +0.000 A 
ATOM      4  C   UNL     1       1.184   9.941  19.230  0.00  0.00    +0.000 A 
ATOM      5  C   UNL     1       0.825  11.233  18.864  0.00  0.00    +0.000 A 
ATOM      6  C   UNL     1       0.131  12.030  19.811  0.00  0.00    +0.000 A 
ATOM      7  C   UNL     1      -0.194  11.497  21.081  0.00  0.00    +0.000 A 
ATOM      8  C   UNL     1       0.152  10.195  21.439  0.00  0.00    +0.000 A 
ATOM      9  C   UNL     1       1.915   8.844  18.512  0.00  0.00    +0.000 C 
ATOM     10  O   UNL     1       2.326   8.945  17.368  0.00  0.00    +0.000 OA
ENDROOT
BRANCH   1  15
ATOM     11  C   UNL     1       4.153   5.048  17.956  0.00  0.00    +0.000 A 
ATOM     12  C   UNL     1       3.887   4.001  18.837  0.00  0.00    +0.000 A 
ATOM     13  C   UNL     1       2.994   4.181  19.909  0.00  0.00    +0.000 A 
ATOM     14  C   UNL     1       2.350   5.412  20.136  0.00  0.00    +0.000 A 
ATOM     15  C   UNL     1       2.585   6.480  19.281  0.00  0.00    +0.000 A 
ATOM     16  C   UNL     1       3.484   6.256  18.202  0.00  0.00    +0.000 A 
BRANCH  11  18
ATOM     17  C   UNL     1       4.698   3.861  15.744  0.00  0.00    +0.000 C 
ATOM     18  C   UNL     1       5.069   4.977  16.728  0.00  0.00    +0.000 C 
BRANCH  18  19
ATOM     19  C   UNL     1       6.568   4.899  17.141  0.00  0.00    +0.000 C 
BRANCH  19  20
ATOM     20  C   UNL     1       7.154   6.232  17.482  0.00  0.00    +0.000 A 
ATOM     21  N   UNL     1       7.099   7.323  16.743  0.00  0.00    +0.000 NA
ATOM     22  N   UNL     1       7.813   8.312  17.380  0.00  0.00    +0.000 NA
ATOM     23  C   UNL     1       8.273   7.811  18.501  0.00  0.00    +0.000 A 
ATOM     24  N   UNL     1       7.859   6.521  18.623  0.00  0.00    +0.000 N 
ATOM     25  C   UNL     1       8.116   5.654  19.741  0.00  0.00    +0.000 C 
ENDBRANCH  19  20
ENDBRANCH  18  19
ENDBRANCH  11  18
ENDBRANCH   1  15
BRANCH   8  26
ATOM     26  C   UNL     1      -0.226   9.631  22.787  0.00  0.00    +0.000 C 
ATOM     27  F   UNL     1      -0.961  10.486  23.552  0.00  0.00    +0.000 F 
ATOM     28  F   UNL     1      -0.965   8.496  22.688  0.00  0.00    +0.000 F 
ATOM     29  F   UNL     1       0.865   9.318  23.537  0.00  0.00    +0.000 F 
ENDBRANCH   8  26
BRANCH   6  30
ATOM     30  C   UNL     1      -0.347  13.441  19.509  0.00  0.00    +0.000 C 
BRANCH  30  31
ATOM     31  N   UNL     1       0.738  14.441  19.547  0.00  0.00    +0.000 NA
ATOM     32  C   UNL     1       1.752  14.126  20.576  0.00  0.00    +0.000 C 
ATOM     33  C   UNL     1       3.079  14.688  20.059  0.00  0.00    +0.000 C 
ATOM     34  C   UNL     1       2.956  14.512  18.550  0.00  0.00    +0.000 C 
ATOM     35  F   UNL     1       3.483  13.320  18.175  0.00  0.00    +0.000 F 
ATOM     36  F   UNL     1       3.608  15.473  17.865  0.00  0.00    +0.000 F 
ATOM     37  C   UNL     1       1.458  14.524  18.255  0.00  0.00    +0.000 C 
BRANCH  33  38
ATOM     38  O   UNL     1       3.263  16.044  20.479  0.00  0.00    +0.000 OA
ATOM     39  H   UNL     1       2.781  16.617  19.855  0.00  0.00    +0.000 HD
ENDBRANCH  33  38
ENDBRANCH  30  31
ENDBRANCH   6  30
TORSDOF 8
ENDMDL
MODEL 6
REMARK VINA RESULT:      -9.6      1.532      1.833
REMARK  Name = 
REMARK  10 active torsions:
REMARK  status: ('A' for Active; 'I' for Inactive)
REMARK    1  A    between atoms: C_1  and  C_2
REMARK    2  A    between atoms: C_2  and  C_3
REMARK    3  A    between atoms: C_2  and  C_10
REMARK    4  A    between atoms: C_3  and  C_4
REMARK    5  A    between atoms: N_8  and  C_9
REMARK    6  A    between atoms: C_14  and  N_15
REMARK    7  A    between atoms: C_20  and  C_21
REMARK    8  A    between atoms: C_21  and  N_22
REMARK    9  A    between atoms: C_24  and  O_25
REMARK   10  A    between atoms: C_31  and  C_32
REMARK                            x       y       z     vdW  Elec       q    Type
REMARK                         _______ _______ _______ _____ _____    ______ ____
ROOT
ATOM      1  N   UNL     1       1.641   7.931  19.737  0.00  0.00    +0.000 N 
ATOM      2  C   UNL     1       1.534   6.628  20.349  0.00  0.00    +0.000 C 
ATOM      3  C   UNL     1       2.355   5.738  19.516  0.00  0.00    +0.000 A 
ATOM      4  C   UNL     1       2.914   6.449  18.460  0.00  0.00    +0.000 A 
ATOM      5  C   UNL     1       3.717   5.796  17.531  0.00  0.00    +0.000 A 
ATOM      6  C   UNL     1       3.929   4.402  17.690  0.00  0.00    +0.000 A 
ATOM      7  C   UNL     1       3.345   3.718  18.783  0.00  0.00    +0.000 A 
ATOM      8  C   UNL     1       2.555   4.379  19.723  0.00  0.00    +0.000 A 
ATOM      9  C   UNL     1       2.472   7.877  18.599  0.00  0.00    +0.000 C 
ATOM     10  O   UNL     1       2.812   8.765  17.837  0.00  0.00    +0.000 OA
ENDROOT
BRANCH   1  15
ATOM     11  C   UNL     1      -0.411  11.072  19.925  0.00  0.00    +0.000 A 
ATOM     12  C   UNL     1      -0.531  11.225  21.305  0.00  0.00    +0.000 A 
ATOM     13  C   UNL     1       0.067  10.299  22.179  0.00  0.00    +0.000 A 
ATOM     14  C   UNL     1       0.791   9.192  21.700  0.00  0.00    +0.000 A 
ATOM     15  C   UNL     1       0.937   9.003  20.332  0.00  0.00    +0.000 A 
ATOM     16  C   UNL     1       0.329   9.967  19.481  0.00  0.00    +0.000 A 
BRANCH  11  18
ATOM     17  C   UNL     1      -0.646  13.501  19.121  0.00  0.00    +0.000 C 
ATOM     18  C   UNL     1      -0.975  12.026  18.863  0.00  0.00    +0.000 C 
BRANCH  18  19
ATOM     19  C   UNL     1      -2.503  11.808  18.658  0.00  0.00    +0.000 C 
BRANCH  19  20
ATOM     20  C   UNL     1      -2.836  11.180  17.343  0.00  0.00    +0.000 A 
ATOM     21  N   UNL     1      -2.028  10.455  16.595  0.00  0.00    +0.000 NA
ATOM     22  N   UNL     1      -2.694  10.119  15.438  0.00  0.00    +0.000 NA
ATOM     23  C   UNL     1      -3.899  10.632  15.511  0.00  0.00    +0.000 A 
ATOM     24  N   UNL     1      -4.044  11.277  16.700  0.00  0.00    +0.000 N 
ATOM     25  C   UNL     1      -5.242  11.920  17.170  0.00  0.00    +0.000 C 
ENDBRANCH  19  20
ENDBRANCH  18  19
ENDBRANCH  11  18
ENDBRANCH   1  15
BRANCH   8  26
ATOM     26  C   UNL     1       1.962   3.642  20.898  0.00  0.00    +0.000 C 
ATOM     27  F   UNL     1       2.318   2.328  20.958  0.00  0.00    +0.000 F 
ATOM     28  F   UNL     1       2.331   4.178  22.090  0.00  0.00    +0.000 F 
ATOM     29  F   UNL     1       0.602   3.649  20.877  0.00  0.00    +0.000 F 
ENDBRANCH   8  26
BRANCH   6  30
ATOM     30  C   UNL     1       4.820   3.592  16.761  0.00  0.00    +0.000 C 
BRANCH  30  31
ATOM     31  N   UNL     1       5.523   4.423  15.765  0.00  0.00    +0.000 NA
ATOM     32  C   UNL     1       6.977   4.156  15.740  0.00  0.00    +0.000 C 
ATOM     33  C   UNL     1       7.440   4.431  14.307  0.00  0.00    +0.000 C 
ATOM     34  C   UNL     1       6.233   4.012  13.475  0.00  0.00    +0.000 C 
ATOM     35  F   UNL     1       6.349   2.712  13.108  0.00  0.00    +0.000 F 
ATOM     36  F   UNL     1       6.109   4.739  12.346  0.00  0.00    +0.000 F 
ATOM     37  C   UNL     1       5.024   4.178  14.391  0.00  0.00    +0.000 C 
BRANCH  33  38
ATOM     38  O   UNL     1       7.820   5.801  14.141  0.00  0.00    +0.000 OA
ATOM     39  H   UNL     1       7.902   6.197  15.027  0.00  0.00    +0.000 HD
ENDBRANCH  33  38
ENDBRANCH  30  31
ENDBRANCH   6  30
TORSDOF 8
ENDMDL
MODEL 7
REMARK VINA RESULT:      -9.6      3.767      9.578
REMARK  Name = 
REMARK  10 active torsions:
REMARK  status: ('A' for Active; 'I' for Inactive)
REMARK    1  A    between atoms: C_1  and  C_2
REMARK    2  A    between atoms: C_2  and  C_3
REMARK    3  A    between atoms: C_2  and  C_10
REMARK    4  A    between atoms: C_3  and  C_4
REMARK    5  A    between atoms: N_8  and  C_9
REMARK    6  A    between atoms: C_14  and  N_15
REMARK    7  A    between atoms: C_20  and  C_21
REMARK    8  A    between atoms: C_21  and  N_22
REMARK    9  A    between atoms: C_24  and  O_25
REMARK   10  A    between atoms: C_31  and  C_32
REMARK                            x       y       z     vdW  Elec       q    Type
REMARK                         _______ _______ _______ _____ _____    ______ ____
ROOT
ATOM      1  N   UNL     1       2.009   7.733  19.270  0.00  0.00    +0.000 N 
ATOM      2  C   UNL     1       1.414   8.039  20.549  0.00  0.00    +0.000 C 
ATOM      3  C   UNL     1       0.943   9.427  20.437  0.00  0.00    +0.000 A 
ATOM      4  C   UNL     1       1.244   9.936  19.178  0.00  0.00    +0.000 A 
ATOM      5  C   UNL     1       0.904  11.246  18.860  0.00  0.00    +0.000 A 
ATOM      6  C   UNL     1       0.266  12.033  19.853  0.00  0.00    +0.000 A 
ATOM      7  C   UNL     1      -0.027  11.474  21.119  0.00  0.00    +0.000 A 
ATOM      8  C   UNL     1       0.299  10.155  21.430  0.00  0.00    +0.000 A 
ATOM      9  C   UNL     1       1.921   8.842  18.405  0.00  0.00    +0.000 C 
ATOM     10  O   UNL     1       2.292   8.965  17.250  0.00  0.00    +0.000 OA
ENDROOT
BRANCH   1  15
ATOM     11  C   UNL     1       4.165   5.049  17.767  0.00  0.00    +0.000 A 
ATOM     12  C   UNL     1       3.801   3.952  18.547  0.00  0.00    +0.000 A 
ATOM     13  C   UNL     1       2.841   4.090  19.567  0.00  0.00    +0.000 A 
ATOM     14  C   UNL     1       2.227   5.325  19.841  0.00  0.00    +0.000 A 
ATOM     15  C   UNL     1       2.559   6.443  19.086  0.00  0.00    +0.000 A 
ATOM     16  C   UNL     1       3.523   6.261  18.057  0.00  0.00    +0.000 A 
BRANCH  11  18
ATOM     17  C   UNL     1       4.866   3.951  15.553  0.00  0.00    +0.000 C 
ATOM     18  C   UNL     1       5.163   5.029  16.602  0.00  0.00    +0.000 C 
BRANCH  18  19
ATOM     19  C   UNL     1       6.631   4.942  17.112  0.00  0.00    +0.000 C 
BRANCH  19  20
ATOM     20  C   UNL     1       7.202   6.272  17.489  0.00  0.00    +0.000 A 
ATOM     21  N   UNL     1       7.162   7.374  16.767  0.00  0.00    +0.000 NA
ATOM     22  N   UNL     1       7.854   8.356  17.438  0.00  0.00    +0.000 NA
ATOM     23  C   UNL     1       8.287   7.839  18.563  0.00  0.00    +0.000 A 
ATOM     24  N   UNL     1       7.875   6.546  18.653  0.00  0.00    +0.000 N 
ATOM     25  C   UNL     1       8.106   5.662  19.764  0.00  0.00    +0.000 C 
ENDBRANCH  19  20
ENDBRANCH  18  19
ENDBRANCH  11  18
ENDBRANCH   1  15
BRANCH   8  26
ATOM     26  C   UNL     1      -0.043   9.564  22.775  0.00  0.00    +0.000 C 
ATOM     27  F   UNL     1      -0.800   8.433  22.701  0.00  0.00    +0.000 F 
ATOM     28  F   UNL     1       1.059   9.223  23.491  0.00  0.00    +0.000 F 
ATOM     29  F   UNL     1      -0.755  10.427  23.549  0.00  0.00    +0.000 F 
ENDBRANCH   8  26
BRANCH   6  30
ATOM     30  C   UNL     1      -0.188  13.464  19.605  0.00  0.00    +0.000 C 
BRANCH  30  31
ATOM     31  N   UNL     1      -1.657  13.607  19.574  0.00  0.00    +0.000 NA
ATOM     32  C   UNL     1      -2.333  12.353  19.180  0.00  0.00    +0.000 C 
ATOM     33  C   UNL     1      -3.697  12.362  19.876  0.00  0.00    +0.000 C 
ATOM     34  C   UNL     1      -3.403  13.085  21.185  0.00  0.00    +0.000 C 
ATOM     35  F   UNL     1      -3.079  12.188  22.150  0.00  0.00    +0.000 F 
ATOM     36  F   UNL     1      -4.461  13.791  21.632  0.00  0.00    +0.000 F 
ATOM     37  C   UNL     1      -2.202  13.983  20.900  0.00  0.00    +0.000 C 
BRANCH  33  38
ATOM     38  O   UNL     1      -4.687  13.000  19.063  0.00  0.00    +0.000 OA
ATOM     39  H   UNL     1      -4.228  13.441  18.324  0.00  0.00    +0.000 HD
ENDBRANCH  33  38
ENDBRANCH  30  31
ENDBRANCH   6  30
TORSDOF 8
ENDMDL
MODEL 8
REMARK VINA RESULT:      -9.5      1.481      2.078
REMARK  Name = 
REMARK  10 active torsions:
REMARK  status: ('A' for Active; 'I' for Inactive)
REMARK    1  A    between atoms: C_1  and  C_2
REMARK    2  A    between atoms: C_2  and  C_3
REMARK    3  A    between atoms: C_2  and  C_10
REMARK    4  A    between atoms: C_3  and  C_4
REMARK    5  A    between atoms: N_8  and  C_9
REMARK    6  A    between atoms: C_14  and  N_15
REMARK    7  A    between atoms: C_20  and  C_21
REMARK    8  A    between atoms: C_21  and  N_22
REMARK    9  A    between atoms: C_24  and  O_25
REMARK   10  A    between atoms: C_31  and  C_32
REMARK                            x       y       z     vdW  Elec       q    Type
REMARK                         _______ _______ _______ _____ _____    ______ ____
ROOT
ATOM      1  N   UNL     1       1.516   7.644  20.195  0.00  0.00    +0.000 N 
ATOM      2  C   UNL     1       1.554   6.348  20.831  0.00  0.00    +0.000 C 
ATOM      3  C   UNL     1       2.246   5.467  19.880  0.00  0.00    +0.000 A 
ATOM      4  C   UNL     1       2.592   6.176  18.734  0.00  0.00    +0.000 A 
ATOM      5  C   UNL     1       3.242   5.529  17.688  0.00  0.00    +0.000 A 
ATOM      6  C   UNL     1       3.518   4.145  17.824  0.00  0.00    +0.000 A 
ATOM      7  C   UNL     1       3.153   3.463  19.010  0.00  0.00    +0.000 A 
ATOM      8  C   UNL     1       2.517   4.118  20.064  0.00  0.00    +0.000 A 
ATOM      9  C   UNL     1       2.139   7.593  18.932  0.00  0.00    +0.000 C 
ATOM     10  O   UNL     1       2.316   8.477  18.111  0.00  0.00    +0.000 OA
ENDROOT
BRANCH   1  15
ATOM     11  C   UNL     1      -0.580  10.720  20.702  0.00  0.00    +0.000 A 
ATOM     12  C   UNL     1      -0.451  10.902  22.078  0.00  0.00    +0.000 A 
ATOM     13  C   UNL     1       0.330  10.017  22.844  0.00  0.00    +0.000 A 
ATOM     14  C   UNL     1       0.995   8.923  22.259  0.00  0.00    +0.000 A 
ATOM     15  C   UNL     1       0.895   8.707  20.891  0.00  0.00    +0.000 A 
ATOM     16  C   UNL     1       0.107   9.629  20.149  0.00  0.00    +0.000 A 
BRANCH  11  18
ATOM     17  C   UNL     1      -0.547  12.101  18.535  0.00  0.00    +0.000 C 
ATOM     18  C   UNL     1      -1.362  11.630  19.746  0.00  0.00    +0.000 C 
BRANCH  18  19
ATOM     19  C   UNL     1      -2.006  12.829  20.502  0.00  0.00    +0.000 C 
BRANCH  19  20
ATOM     20  C   UNL     1      -3.487  12.695  20.665  0.00  0.00    +0.000 A 
ATOM     21  N   UNL     1      -4.373  12.579  19.695  0.00  0.00    +0.000 NA
ATOM     22  N   UNL     1      -5.628  12.546  20.258  0.00  0.00    +0.000 NA
ATOM     23  C   UNL     1      -5.481  12.624  21.559  0.00  0.00    +0.000 A 
ATOM     24  N   UNL     1      -4.157  12.686  21.862  0.00  0.00    +0.000 N 
ATOM     25  C   UNL     1      -3.594  12.727  23.185  0.00  0.00    +0.000 C 
ENDBRANCH  19  20
ENDBRANCH  18  19
ENDBRANCH  11  18
ENDBRANCH   1  15
BRANCH   8  26
ATOM     26  C   UNL     1       2.159   3.385  21.333  0.00  0.00    +0.000 C 
ATOM     27  F   UNL     1       2.450   4.078  22.468  0.00  0.00    +0.000 F 
ATOM     28  F   UNL     1       0.835   3.092  21.409  0.00  0.00    +0.000 F 
ATOM     29  F   UNL     1       2.822   2.202  21.448  0.00  0.00    +0.000 F 
ENDBRANCH   8  26
BRANCH   6  30
ATOM     30  C   UNL     1       4.259   3.343  16.765  0.00  0.00    +0.000 C 
BRANCH  30  31
ATOM     31  N   UNL     1       5.571   3.922  16.415  0.00  0.00    +0.000 NA
ATOM     32  C   UNL     1       5.487   4.842  15.261  0.00  0.00    +0.000 C 
ATOM     33  C   UNL     1       6.592   5.883  15.459  0.00  0.00    +0.000 C 
ATOM     34  C   UNL     1       6.651   6.027  16.975  0.00  0.00    +0.000 C 
ATOM     35  F   UNL     1       5.834   7.031  17.380  0.00  0.00    +0.000 F 
ATOM     36  F   UNL     1       7.893   6.317  17.416  0.00  0.00    +0.000 F 
ATOM     37  C   UNL     1       6.147   4.700  17.536  0.00  0.00    +0.000 C 
BRANCH  33  38
ATOM     38  O   UNL     1       7.819   5.452  14.862  0.00  0.00    +0.000 OA
ATOM     39  H   UNL     1       8.487   5.385  15.567  0.00  0.00    +0.000 HD
ENDBRANCH  33  38
ENDBRANCH  30  31
ENDBRANCH   6  30
TORSDOF 8
ENDMDL
MODEL 9
REMARK VINA RESULT:      -9.5      2.134      3.193
REMARK  Name = 
REMARK  10 active torsions:
REMARK  status: ('A' for Active; 'I' for Inactive)
REMARK    1  A    between atoms: C_1  and  C_2
REMARK    2  A    between atoms: C_2  and  C_3
REMARK    3  A    between atoms: C_2  and  C_10
REMARK    4  A    between atoms: C_3  and  C_4
REMARK    5  A    between atoms: N_8  and  C_9
REMARK    6  A    between atoms: C_14  and  N_15
REMARK    7  A    between atoms: C_20  and  C_21
REMARK    8  A    between atoms: C_21  and  N_22
REMARK    9  A    between atoms: C_24  and  O_25
REMARK   10  A    between atoms: C_31  and  C_32
REMARK                            x       y       z     vdW  Elec       q    Type
REMARK                         _______ _______ _______ _____ _____    ______ ____
ROOT
ATOM      1  N   UNL     1       1.534   7.684  20.185  0.00  0.00    +0.000 N 
ATOM      2  C   UNL     1       1.555   6.389  20.821  0.00  0.00    +0.000 C 
ATOM      3  C   UNL     1       2.231   5.497  19.868  0.00  0.00    +0.000 A 
ATOM      4  C   UNL     1       2.587   6.201  18.722  0.00  0.00    +0.000 A 
ATOM      5  C   UNL     1       3.225   5.545  17.675  0.00  0.00    +0.000 A 
ATOM      6  C   UNL     1       3.481   4.157  17.810  0.00  0.00    +0.000 A 
ATOM      7  C   UNL     1       3.107   3.480  18.996  0.00  0.00    +0.000 A 
ATOM      8  C   UNL     1       2.483   4.144  20.051  0.00  0.00    +0.000 A 
ATOM      9  C   UNL     1       2.155   7.625  18.921  0.00  0.00    +0.000 C 
ATOM     10  O   UNL     1       2.344   8.507  18.100  0.00  0.00    +0.000 OA
ENDROOT
BRANCH   1  15
ATOM     11  C   UNL     1       0.052  11.095  20.721  0.00  0.00    +0.000 A 
ATOM     12  C   UNL     1      -0.284  11.025  22.072  0.00  0.00    +0.000 A 
ATOM     13  C   UNL     1      -0.021   9.858  22.813  0.00  0.00    +0.000 A 
ATOM     14  C   UNL     1       0.577   8.728  22.225  0.00  0.00    +0.000 A 
ATOM     15  C   UNL     1       0.930   8.756  20.882  0.00  0.00    +0.000 A 
ATOM     16  C   UNL     1       0.660   9.957  20.169  0.00  0.00    +0.000 A 
BRANCH  11  18
ATOM     17  C   UNL     1      -1.065  12.053  18.615  0.00  0.00    +0.000 C 
ATOM     18  C   UNL     1      -0.140  12.314  19.810  0.00  0.00    +0.000 C 
BRANCH  18  19
ATOM     19  C   UNL     1       1.227  12.905  19.357  0.00  0.00    +0.000 C 
BRANCH  19  20
ATOM     20  C   UNL     1       1.853  13.794  20.383  0.00  0.00    +0.000 A 
ATOM     21  N   UNL     1       2.590  13.410  21.406  0.00  0.00    +0.000 NA
ATOM     22  N   UNL     1       2.918  14.525  22.145  0.00  0.00    +0.000 NA
ATOM     23  C   UNL     1       2.390  15.566  21.548  0.00  0.00    +0.000 A 
ATOM     24  N   UNL     1       1.741  15.161  20.423  0.00  0.00    +0.000 N 
ATOM     25  C   UNL     1       1.081  16.018  19.475  0.00  0.00    +0.000 C 
ENDBRANCH  19  20
ENDBRANCH  18  19
ENDBRANCH  11  18
ENDBRANCH   1  15
BRANCH   8  26
ATOM     26  C   UNL     1       2.115   3.416  21.320  0.00  0.00    +0.000 C 
ATOM     27  F   UNL     1       0.779   3.191  21.456  0.00  0.00    +0.000 F 
ATOM     28  F   UNL     1       2.705   2.196  21.411  0.00  0.00    +0.000 F 
ATOM     29  F   UNL     1       2.483   4.105  22.434  0.00  0.00    +0.000 F 
ENDBRANCH   8  26
BRANCH   6  30
ATOM     30  C   UNL     1       4.207   3.345  16.749  0.00  0.00    +0.000 C 
BRANCH  30  31
ATOM     31  N   UNL     1       5.535   3.894  16.409  0.00  0.00    +0.000 NA
ATOM     32  C   UNL     1       5.472   4.856  15.289  0.00  0.00    +0.000 C 
ATOM     33  C   UNL     1       6.611   5.855  15.516  0.00  0.00    +0.000 C 
ATOM     34  C   UNL     1       6.685   5.944  17.035  0.00  0.00    +0.000 C 
ATOM     35  F   UNL     1       5.903   6.957  17.482  0.00  0.00    +0.000 F 
ATOM     36  F   UNL     1       7.938   6.178  17.476  0.00  0.00    +0.000 F 
ATOM     37  C   UNL     1       6.143   4.614  17.553  0.00  0.00    +0.000 C 
BRANCH  33  38
ATOM     38  O   UNL     1       7.820   5.408  14.894  0.00  0.00    +0.000 OA
ATOM     39  H   UNL     1       8.015   6.009  14.153  0.00  0.00    +0.000 HD
ENDBRANCH  33  38
ENDBRANCH  30  31
ENDBRANCH   6  30
TORSDOF 8
ENDMDL
