MODEL 1
REMARK VINA RESULT:      -9.0      0.000      0.000
REMARK  Name = 
REMARK  6 active torsions:
REMARK  status: ('A' for Active; 'I' for Inactive)
REMARK    1  A    between atoms: C_1  and  N_2
REMARK    2  A    between atoms: N_12  and  C_13
REMARK    3  A    between atoms: C_17  and  C_18
REMARK    4  A    between atoms: C_18  and  C_19
REMARK    5  A    between atoms: C_19  and  C_20
REMARK    6  A    between atoms: N_24  and  C_25
REMARK                            x       y       z     vdW  Elec       q    Type
REMARK                         _______ _______ _______ _____ _____    ______ ____
ROOT
ATOM      1  C   UNL     1       7.485   4.381  16.556  0.00  0.00    +0.000 C 
ATOM      2  N   UNL     1       6.962   5.675  16.117  0.00  0.00    +0.000 NA
ATOM      3  C   UNL     1       5.612   5.562  15.552  0.00  0.00    +0.000 C 
ATOM      4  C   UNL     1       4.547   5.232  16.600  0.00  0.00    +0.000 C 
ATOM      5  C   UNL     1       4.579   6.229  17.773  0.00  0.00    +0.000 C 
ATOM      6  C   UNL     1       6.011   6.411  18.312  0.00  0.00    +0.000 C 
ATOM      7  C   UNL     1       7.008   6.682  17.183  0.00  0.00    +0.000 C 
ATOM      8  C   UNL     1       3.965   7.596  17.349  0.00  0.00    +0.000 C 
ATOM      9  N   UNL     1       2.805   7.820  18.205  0.00  0.00    +0.000 N 
ATOM     10  C   UNL     1       1.989   8.920  18.087  0.00  0.00    +0.000 C 
ATOM     11  O   UNL     1       2.179   9.779  17.227  0.00  0.00    +0.000 OA
ATOM     12  N   UNL     1       0.986   8.970  19.028  0.00  0.00    +0.000 N 
ATOM     13  C   UNL     1       2.653   6.757  19.086  0.00  0.00    +0.000 A 
ATOM     14  N   UNL     1       1.683   6.661  20.015  0.00  0.00    +0.000 NA
ATOM     15  C   UNL     1       1.684   5.538  20.756  0.00  0.00    +0.000 A 
ATOM     16  C   UNL     1       2.624   4.522  20.616  0.00  0.00    +0.000 A 
ATOM     17  C   UNL     1       3.628   4.666  19.656  0.00  0.00    +0.000 A 
ATOM     18  C   UNL     1       3.630   5.810  18.874  0.00  0.00    +0.000 A 
ATOM     19  H   UNL     1       1.204   8.454  19.875  0.00  0.00    +0.000 HD
ENDROOT
BRANCH  12  20
ATOM     20  C   UNL     1       0.054   9.992  19.123  0.00  0.00    +0.000 A 
ATOM     21  C   UNL     1      -0.930  10.158  18.158  0.00  0.00    +0.000 A 
ATOM     22  C   UNL     1      -1.907  11.126  18.351  0.00  0.00    +0.000 A 
ATOM     23  C   UNL     1      -1.829  11.975  19.458  0.00  0.00    +0.000 A 
ATOM     24  C   UNL     1      -0.775  11.891  20.396  0.00  0.00    +0.000 A 
ATOM     25  C   UNL     1       0.110  10.817  20.244  0.00  0.00    +0.000 A 
BRANCH  24  26
ATOM     26  C   UNL     1      -0.526  13.007  21.508  0.00  0.00    +0.000 C 
ATOM     27  C   UNL     1       0.825  13.796  21.508  0.00  0.00    +0.000 C 
ATOM     28  O   UNL     1       0.101  15.054  21.664  0.00  0.00    +0.000 OA
ATOM     29  C   UNL     1      -1.074  14.414  21.107  0.00  0.00    +0.000 C 
BRANCH  26  30
ATOM     30  C   UNL     1      -0.964  12.536  22.905  0.00  0.00    +0.000 C 
BRANCH  30  31
ATOM     31  C   UNL     1      -2.404  12.805  23.231  0.00  0.00    +0.000 A 
ATOM     32  N   UNL     1      -3.440  12.088  22.854  0.00  0.00    +0.000 NA
ATOM     33  N   UNL     1      -4.578  12.633  23.406  0.00  0.00    +0.000 NA
ATOM     34  C   UNL     1      -4.211  13.680  24.107  0.00  0.00    +0.000 A 
ATOM     35  N   UNL     1      -2.860  13.834  24.024  0.00  0.00    +0.000 N 
ATOM     36  C   UNL     1      -2.106  14.873  24.665  0.00  0.00    +0.000 C 
ENDBRANCH  30  31
ENDBRANCH  26  30
ENDBRANCH  24  26
ENDBRANCH  12  20
TORSDOF 4
ENDMDL
MODEL 2
REMARK VINA RESULT:      -8.9      2.221      3.492
REMARK  Name = 
REMARK  6 active torsions:
REMARK  status: ('A' for Active; 'I' for Inactive)
REMARK    1  A    between atoms: C_1  and  N_2
REMARK    2  A    between atoms: N_12  and  C_13
REMARK    3  A    between atoms: C_17  and  C_18
REMARK    4  A    between atoms: C_18  and  C_19
REMARK    5  A    between atoms: C_19  and  C_20
REMARK    6  A    between atoms: N_24  and  C_25
REMARK                            x       y       z     vdW  Elec       q    Type
REMARK                         _______ _______ _______ _____ _____    ______ ____
ROOT
ATOM      1  C   UNL     1       7.300   4.356  16.107  0.00  0.00    +0.000 C 
ATOM      2  N   UNL     1       6.785   5.700  15.842  0.00  0.00    +0.000 NA
ATOM      3  C   UNL     1       5.395   5.676  15.373  0.00  0.00    +0.000 C 
ATOM      4  C   UNL     1       4.400   5.264  16.461  0.00  0.00    +0.000 C 
ATOM      5  C   UNL     1       4.549   6.135  17.722  0.00  0.00    +0.000 C 
ATOM      6  C   UNL     1       6.021   6.228  18.166  0.00  0.00    +0.000 C 
ATOM      7  C   UNL     1       6.941   6.590  16.997  0.00  0.00    +0.000 C 
ATOM      8  C   UNL     1       3.948   7.552  17.486  0.00  0.00    +0.000 C 
ATOM      9  N   UNL     1       2.861   7.713  18.447  0.00  0.00    +0.000 N 
ATOM     10  C   UNL     1       2.072   8.838  18.503  0.00  0.00    +0.000 C 
ATOM     11  O   UNL     1       2.225   9.776  17.721  0.00  0.00    +0.000 OA
ATOM     12  N   UNL     1       1.143   8.814  19.518  0.00  0.00    +0.000 N 
ATOM     13  C   UNL     1       2.741   6.569  19.225  0.00  0.00    +0.000 A 
ATOM     14  N   UNL     1       1.840   6.400  20.211  0.00  0.00    +0.000 NA
ATOM     15  C   UNL     1       1.862   5.208  20.833  0.00  0.00    +0.000 A 
ATOM     16  C   UNL     1       2.758   4.190  20.519  0.00  0.00    +0.000 A 
ATOM     17  C   UNL     1       3.692   4.409  19.506  0.00  0.00    +0.000 A 
ATOM     18  C   UNL     1       3.672   5.627  18.845  0.00  0.00    +0.000 A 
ATOM     19  H   UNL     1       1.407   8.209  20.289  0.00  0.00    +0.000 HD
ENDROOT
BRANCH  12  20
ATOM     20  C   UNL     1       0.252   9.842  19.786  0.00  0.00    +0.000 A 
ATOM     21  C   UNL     1       0.352  10.591  20.951  0.00  0.00    +0.000 A 
ATOM     22  C   UNL     1      -0.493  11.680  21.125  0.00  0.00    +0.000 A 
ATOM     23  C   UNL     1      -1.486  11.943  20.178  0.00  0.00    +0.000 A 
ATOM     24  C   UNL     1      -1.672  11.127  19.040  0.00  0.00    +0.000 A 
ATOM     25  C   UNL     1      -0.716  10.126  18.827  0.00  0.00    +0.000 A 
BRANCH  24  26
ATOM     26  C   UNL     1      -2.951  11.252  18.095  0.00  0.00    +0.000 C 
ATOM     27  C   UNL     1      -2.768  11.137  16.545  0.00  0.00    +0.000 C 
ATOM     28  O   UNL     1      -3.897  10.214  16.471  0.00  0.00    +0.000 OA
ATOM     29  C   UNL     1      -3.690   9.894  17.870  0.00  0.00    +0.000 C 
BRANCH  26  30
ATOM     30  C   UNL     1      -3.872  12.406  18.522  0.00  0.00    +0.000 C 
BRANCH  30  31
ATOM     31  C   UNL     1      -5.090  11.981  19.290  0.00  0.00    +0.000 A 
ATOM     32  N   UNL     1      -5.145  11.684  20.571  0.00  0.00    +0.000 NA
ATOM     33  N   UNL     1      -6.451  11.400  20.901  0.00  0.00    +0.000 NA
ATOM     34  C   UNL     1      -7.169  11.524  19.808  0.00  0.00    +0.000 A 
ATOM     35  N   UNL     1      -6.361  11.880  18.771  0.00  0.00    +0.000 N 
ATOM     36  C   UNL     1      -6.799  12.106  17.423  0.00  0.00    +0.000 C 
ENDBRANCH  30  31
ENDBRANCH  26  30
ENDBRANCH  24  26
ENDBRANCH  12  20
TORSDOF 4
ENDMDL
MODEL 3
REMARK VINA RESULT:      -8.7      2.488      3.747
REMARK  Name = 
REMARK  6 active torsions:
REMARK  status: ('A' for Active; 'I' for Inactive)
REMARK    1  A    between atoms: C_1  and  N_2
REMARK    2  A    between atoms: N_12  and  C_13
REMARK    3  A    between atoms: C_17  and  C_18
REMARK    4  A    between atoms: C_18  and  C_19
REMARK    5  A    between atoms: C_19  and  C_20
REMARK    6  A    between atoms: N_24  and  C_25
REMARK                            x       y       z     vdW  Elec       q    Type
REMARK                         _______ _______ _______ _____ _____    ______ ____
ROOT
ATOM      1  C   UNL     1       7.626   4.349  16.551  0.00  0.00    +0.000 C 
ATOM      2  N   UNL     1       7.095   5.640  16.115  0.00  0.00    +0.000 NA
ATOM      3  C   UNL     1       5.752   5.519  15.536  0.00  0.00    +0.000 C 
ATOM      4  C   UNL     1       4.679   5.172  16.572  0.00  0.00    +0.000 C 
ATOM      5  C   UNL     1       4.690   6.162  17.750  0.00  0.00    +0.000 C 
ATOM      6  C   UNL     1       6.115   6.355  18.304  0.00  0.00    +0.000 C 
ATOM      7  C   UNL     1       7.121   6.641  17.187  0.00  0.00    +0.000 C 
ATOM      8  C   UNL     1       4.068   7.527  17.328  0.00  0.00    +0.000 C 
ATOM      9  N   UNL     1       2.897   7.734  18.174  0.00  0.00    +0.000 N 
ATOM     10  C   UNL     1       2.072   8.828  18.054  0.00  0.00    +0.000 C 
ATOM     11  O   UNL     1       2.263   9.693  17.201  0.00  0.00    +0.000 OA
ATOM     12  N   UNL     1       1.059   8.863  18.985  0.00  0.00    +0.000 N 
ATOM     13  C   UNL     1       2.746   6.664  19.047  0.00  0.00    +0.000 A 
ATOM     14  N   UNL     1       1.768   6.554  19.966  0.00  0.00    +0.000 NA
ATOM     15  C   UNL     1       1.773   5.427  20.700  0.00  0.00    +0.000 A 
ATOM     16  C   UNL     1       2.724   4.421  20.563  0.00  0.00    +0.000 A 
ATOM     17  C   UNL     1       3.735   4.580  19.614  0.00  0.00    +0.000 A 
ATOM     18  C   UNL     1       3.735   5.728  18.839  0.00  0.00    +0.000 A 
ATOM     19  H   UNL     1       1.274   8.343  19.832  0.00  0.00    +0.000 HD
ENDROOT
BRANCH  12  20
ATOM     20  C   UNL     1       0.117   9.875  19.077  0.00  0.00    +0.000 A 
ATOM     21  C   UNL     1       0.217  10.862  20.049  0.00  0.00    +0.000 A 
ATOM     22  C   UNL     1      -0.687  11.916  20.034  0.00  0.00    +0.000 A 
ATOM     23  C   UNL     1      -1.733  11.916  19.108  0.00  0.00    +0.000 A 
ATOM     24  C   UNL     1      -1.914  10.865  18.180  0.00  0.00    +0.000 A 
ATOM     25  C   UNL     1      -0.907   9.895  18.133  0.00  0.00    +0.000 A 
BRANCH  24  26
ATOM     26  C   UNL     1      -3.236  10.717  17.300  0.00  0.00    +0.000 C 
ATOM     27  C   UNL     1      -3.420  11.626  16.040  0.00  0.00    +0.000 C 
ATOM     28  O   UNL     1      -3.821  10.466  15.250  0.00  0.00    +0.000 OA
ATOM     29  C   UNL     1      -3.125   9.616  16.196  0.00  0.00    +0.000 C 
BRANCH  26  30
ATOM     30  C   UNL     1      -4.499  10.608  18.170  0.00  0.00    +0.000 C 
BRANCH  30  31
ATOM     31  C   UNL     1      -5.412  11.797  18.098  0.00  0.00    +0.000 A 
ATOM     32  N   UNL     1      -6.279  12.063  17.145  0.00  0.00    +0.000 NA
ATOM     33  N   UNL     1      -6.960  13.212  17.477  0.00  0.00    +0.000 NA
ATOM     34  C   UNL     1      -6.488  13.629  18.630  0.00  0.00    +0.000 A 
ATOM     35  N   UNL     1      -5.512  12.781  19.056  0.00  0.00    +0.000 N 
ATOM     36  C   UNL     1      -4.772  12.921  20.278  0.00  0.00    +0.000 C 
ENDBRANCH  30  31
ENDBRANCH  26  30
ENDBRANCH  24  26
ENDBRANCH  12  20
TORSDOF 4
ENDMDL
MODEL 4
REMARK VINA RESULT:      -8.7      0.853      1.206
REMARK  Name = 
REMARK  6 active torsions:
REMARK  status: ('A' for Active; 'I' for Inactive)
REMARK    1  A    between atoms: C_1  and  N_2
REMARK    2  A    between atoms: N_12  and  C_13
REMARK    3  A    between atoms: C_17  and  C_18
REMARK    4  A    between atoms: C_18  and  C_19
REMARK    5  A    between atoms: C_19  and  C_20
REMARK    6  A    between atoms: N_24  and  C_25
REMARK                            x       y       z     vdW  Elec       q    Type
REMARK                         _______ _______ _______ _____ _____    ______ ____
ROOT
ATOM      1  C   UNL     1       7.517   4.296  16.566  0.00  0.00    +0.000 C 
ATOM      2  N   UNL     1       7.019   5.593  16.108  0.00  0.00    +0.000 NA
ATOM      3  C   UNL     1       5.672   5.496  15.535  0.00  0.00    +0.000 C 
ATOM      4  C   UNL     1       4.594   5.196  16.578  0.00  0.00    +0.000 C 
ATOM      5  C   UNL     1       4.634   6.206  17.740  0.00  0.00    +0.000 C 
ATOM      6  C   UNL     1       6.064   6.370  18.287  0.00  0.00    +0.000 C 
ATOM      7  C   UNL     1       7.075   6.611  17.163  0.00  0.00    +0.000 C 
ATOM      8  C   UNL     1       4.046   7.579  17.295  0.00  0.00    +0.000 C 
ATOM      9  N   UNL     1       2.884   7.831  18.140  0.00  0.00    +0.000 N 
ATOM     10  C   UNL     1       2.087   8.944  18.003  0.00  0.00    +0.000 C 
ATOM     11  O   UNL     1       2.298   9.789  17.134  0.00  0.00    +0.000 OA
ATOM     12  N   UNL     1       1.078   9.022  18.936  0.00  0.00    +0.000 N 
ATOM     13  C   UNL     1       2.707   6.781  19.032  0.00  0.00    +0.000 A 
ATOM     14  N   UNL     1       1.729   6.713  19.955  0.00  0.00    +0.000 NA
ATOM     15  C   UNL     1       1.706   5.599  20.708  0.00  0.00    +0.000 A 
ATOM     16  C   UNL     1       2.630   4.566  20.587  0.00  0.00    +0.000 A 
ATOM     17  C   UNL     1       3.642   4.682  19.633  0.00  0.00    +0.000 A 
ATOM     18  C   UNL     1       3.670   5.816  18.838  0.00  0.00    +0.000 A 
ATOM     19  H   UNL     1       1.282   8.512  19.790  0.00  0.00    +0.000 HD
ENDROOT
BRANCH  12  20
ATOM     20  C   UNL     1       0.163  10.061  19.012  0.00  0.00    +0.000 A 
ATOM     21  C   UNL     1      -1.042  10.007  18.323  0.00  0.00    +0.000 A 
ATOM     22  C   UNL     1      -1.973  11.019  18.516  0.00  0.00    +0.000 A 
ATOM     23  C   UNL     1      -1.647  12.115  19.320  0.00  0.00    +0.000 A 
ATOM     24  C   UNL     1      -0.385  12.238  19.944  0.00  0.00    +0.000 A 
ATOM     25  C   UNL     1       0.473  11.137  19.840  0.00  0.00    +0.000 A 
BRANCH  24  26
ATOM     26  C   UNL     1       0.098  13.588  20.642  0.00  0.00    +0.000 C 
ATOM     27  C   UNL     1       1.378  14.310  20.105  0.00  0.00    +0.000 C 
ATOM     28  O   UNL     1       0.675  15.589  20.118  0.00  0.00    +0.000 OA
ATOM     29  C   UNL     1      -0.581  14.867  20.053  0.00  0.00    +0.000 C 
BRANCH  26  30
ATOM     30  C   UNL     1       0.040  13.497  22.176  0.00  0.00    +0.000 C 
BRANCH  30  31
ATOM     31  C   UNL     1      -1.327  13.231  22.735  0.00  0.00    +0.000 A 
ATOM     32  N   UNL     1      -2.292  14.110  22.897  0.00  0.00    +0.000 NA
ATOM     33  N   UNL     1      -3.404  13.459  23.383  0.00  0.00    +0.000 NA
ATOM     34  C   UNL     1      -3.091  12.190  23.512  0.00  0.00    +0.000 A 
ATOM     35  N   UNL     1      -1.799  11.998  23.126  0.00  0.00    +0.000 N 
ATOM     36  C   UNL     1      -1.114  10.737  23.131  0.00  0.00    +0.000 C 
ENDBRANCH  30  31
ENDBRANCH  26  30
ENDBRANCH  24  26
ENDBRANCH  12  20
TORSDOF 4
ENDMDL
MODEL 5
REMARK VINA RESULT:      -8.6      2.572      3.621
REMARK  Name = 
REMARK  6 active torsions:
REMARK  status: ('A' for Active; 'I' for Inactive)
REMARK    1  A    between atoms: C_1  and  N_2
REMARK    2  A    between atoms: N_12  and  C_13
REMARK    3  A    between atoms: C_17  and  C_18
REMARK    4  A    between atoms: C_18  and  C_19
REMARK    5  A    between atoms: C_19  and  C_20
REMARK    6  A    between atoms: N_24  and  C_25
REMARK                            x       y       z     vdW  Elec       q    Type
REMARK                         _______ _______ _______ _____ _____    ______ ____
ROOT
ATOM      1  C   UNL     1       7.411   4.260  16.407  0.00  0.00    +0.000 C 
ATOM      2  N   UNL     1       6.943   5.583  15.993  0.00  0.00    +0.000 NA
ATOM      3  C   UNL     1       5.578   5.544  15.456  0.00  0.00    +0.000 C 
ATOM      4  C   UNL     1       4.520   5.254  16.522  0.00  0.00    +0.000 C 
ATOM      5  C   UNL     1       4.625   6.233  17.705  0.00  0.00    +0.000 C 
ATOM      6  C   UNL     1       6.074   6.338  18.216  0.00  0.00    +0.000 C 
ATOM      7  C   UNL     1       7.061   6.573  17.069  0.00  0.00    +0.000 C 
ATOM      8  C   UNL     1       4.071   7.635  17.309  0.00  0.00    +0.000 C 
ATOM      9  N   UNL     1       2.941   7.904  18.192  0.00  0.00    +0.000 N 
ATOM     10  C   UNL     1       2.178   9.045  18.102  0.00  0.00    +0.000 C 
ATOM     11  O   UNL     1       2.393   9.904  17.248  0.00  0.00    +0.000 OA
ATOM     12  N   UNL     1       1.198   9.133  19.065  0.00  0.00    +0.000 N 
ATOM     13  C   UNL     1       2.754   6.840  19.063  0.00  0.00    +0.000 A 
ATOM     14  N   UNL     1       1.799   6.781  20.012  0.00  0.00    +0.000 NA
ATOM     15  C   UNL     1       1.760   5.650  20.740  0.00  0.00    +0.000 A 
ATOM     16  C   UNL     1       2.646   4.591  20.568  0.00  0.00    +0.000 A 
ATOM     17  C   UNL     1       3.636   4.697  19.590  0.00  0.00    +0.000 A 
ATOM     18  C   UNL     1       3.679   5.849  18.821  0.00  0.00    +0.000 A 
ATOM     19  H   UNL     1       1.407   8.597  19.901  0.00  0.00    +0.000 HD
ENDROOT
BRANCH  12  20
ATOM     20  C   UNL     1       0.320  10.199  19.191  0.00  0.00    +0.000 A 
ATOM     21  C   UNL     1      -0.966  10.134  18.669  0.00  0.00    +0.000 A 
ATOM     22  C   UNL     1      -1.845  11.181  18.915  0.00  0.00    +0.000 A 
ATOM     23  C   UNL     1      -1.396  12.316  19.595  0.00  0.00    +0.000 A 
ATOM     24  C   UNL     1      -0.060  12.445  20.040  0.00  0.00    +0.000 A 
ATOM     25  C   UNL     1       0.756  11.316  19.898  0.00  0.00    +0.000 A 
BRANCH  24  26
ATOM     26  C   UNL     1       0.534  13.823  20.578  0.00  0.00    +0.000 C 
ATOM     27  C   UNL     1       0.159  14.305  22.018  0.00  0.00    +0.000 C 
ATOM     28  O   UNL     1       1.560  14.607  22.293  0.00  0.00    +0.000 OA
ATOM     29  C   UNL     1       1.937  13.672  21.252  0.00  0.00    +0.000 C 
BRANCH  26  30
ATOM     30  C   UNL     1       0.463  14.935  19.519  0.00  0.00    +0.000 C 
BRANCH  30  31
ATOM     31  C   UNL     1       1.782  15.292  18.899  0.00  0.00    +0.000 A 
ATOM     32  N   UNL     1       2.431  14.605  17.984  0.00  0.00    +0.000 NA
ATOM     33  N   UNL     1       3.570  15.296  17.638  0.00  0.00    +0.000 NA
ATOM     34  C   UNL     1       3.597  16.394  18.357  0.00  0.00    +0.000 A 
ATOM     35  N   UNL     1       2.502  16.435  19.167  0.00  0.00    +0.000 N 
ATOM     36  C   UNL     1       2.198  17.490  20.091  0.00  0.00    +0.000 C 
ENDBRANCH  30  31
ENDBRANCH  26  30
ENDBRANCH  24  26
ENDBRANCH  12  20
TORSDOF 4
ENDMDL
MODEL 6
REMARK VINA RESULT:      -8.6      3.038     10.459
REMARK  Name = 
REMARK  6 active torsions:
REMARK  status: ('A' for Active; 'I' for Inactive)
REMARK    1  A    between atoms: C_1  and  N_2
REMARK    2  A    between atoms: N_12  and  C_13
REMARK    3  A    between atoms: C_17  and  C_18
REMARK    4  A    between atoms: C_18  and  C_19
REMARK    5  A    between atoms: C_19  and  C_20
REMARK    6  A    between atoms: N_24  and  C_25
REMARK                            x       y       z     vdW  Elec       q    Type
REMARK                         _______ _______ _______ _____ _____    ______ ____
ROOT
ATOM      1  C   UNL     1      -0.350  15.105  19.975  0.00  0.00    +0.000 C 
ATOM      2  N   UNL     1       0.341  14.411  18.888  0.00  0.00    +0.000 NA
ATOM      3  C   UNL     1       1.644  13.884  19.309  0.00  0.00    +0.000 C 
ATOM      4  C   UNL     1       1.533  12.714  20.289  0.00  0.00    +0.000 C 
ATOM      5  C   UNL     1       0.632  11.595  19.735  0.00  0.00    +0.000 C 
ATOM      6  C   UNL     1      -0.704  12.160  19.216  0.00  0.00    +0.000 C 
ATOM      7  C   UNL     1      -0.488  13.358  18.289  0.00  0.00    +0.000 C 
ATOM      8  C   UNL     1       1.371  10.797  18.620  0.00  0.00    +0.000 C 
ATOM      9  N   UNL     1       1.474   9.419  19.088  0.00  0.00    +0.000 N 
ATOM     10  C   UNL     1       2.108   8.431  18.371  0.00  0.00    +0.000 C 
ATOM     11  O   UNL     1       2.651   8.661  17.291  0.00  0.00    +0.000 OA
ATOM     12  N   UNL     1       2.043   7.189  18.961  0.00  0.00    +0.000 N 
ATOM     13  C   UNL     1       0.889   9.298  20.342  0.00  0.00    +0.000 A 
ATOM     14  N   UNL     1       0.810   8.152  21.045  0.00  0.00    +0.000 NA
ATOM     15  C   UNL     1       0.230   8.243  22.256  0.00  0.00    +0.000 A 
ATOM     16  C   UNL     1      -0.286   9.425  22.778  0.00  0.00    +0.000 A 
ATOM     17  C   UNL     1      -0.204  10.588  22.010  0.00  0.00    +0.000 A 
ATOM     18  C   UNL     1       0.404  10.514  20.768  0.00  0.00    +0.000 A 
ATOM     19  H   UNL     1       1.250   7.083  19.587  0.00  0.00    +0.000 HD
ENDROOT
BRANCH  12  20
ATOM     20  C   UNL     1       2.588   6.036  18.418  0.00  0.00    +0.000 A 
ATOM     21  C   UNL     1       2.031   4.790  18.673  0.00  0.00    +0.000 A 
ATOM     22  C   UNL     1       2.544   3.677  18.020  0.00  0.00    +0.000 A 
ATOM     23  C   UNL     1       3.665   3.814  17.197  0.00  0.00    +0.000 A 
ATOM     24  C   UNL     1       4.311   5.057  17.009  0.00  0.00    +0.000 A 
ATOM     25  C   UNL     1       3.685   6.176  17.570  0.00  0.00    +0.000 A 
BRANCH  24  26
ATOM     26  C   UNL     1       5.730   5.185  16.293  0.00  0.00    +0.000 C 
ATOM     27  C   UNL     1       6.936   5.784  17.091  0.00  0.00    +0.000 C 
ATOM     28  O   UNL     1       7.791   4.691  16.638  0.00  0.00    +0.000 OA
ATOM     29  C   UNL     1       6.602   3.893  16.409  0.00  0.00    +0.000 C 
BRANCH  26  30
ATOM     30  C   UNL     1       5.607   5.733  14.862  0.00  0.00    +0.000 C 
BRANCH  30  31
ATOM     31  C   UNL     1       5.897   4.732  13.783  0.00  0.00    +0.000 A 
ATOM     32  N   UNL     1       5.085   3.795  13.343  0.00  0.00    +0.000 NA
ATOM     33  N   UNL     1       5.703   3.124  12.311  0.00  0.00    +0.000 NA
ATOM     34  C   UNL     1       6.888   3.665  12.147  0.00  0.00    +0.000 A 
ATOM     35  N   UNL     1       7.060   4.671  13.048  0.00  0.00    +0.000 N 
ATOM     36  C   UNL     1       8.235   5.486  13.162  0.00  0.00    +0.000 C 
ENDBRANCH  30  31
ENDBRANCH  26  30
ENDBRANCH  24  26
ENDBRANCH  12  20
TORSDOF 4
ENDMDL
MODEL 7
REMARK VINA RESULT:      -8.6      3.147      9.648
REMARK  Name = 
REMARK  6 active torsions:
REMARK  status: ('A' for Active; 'I' for Inactive)
REMARK    1  A    between atoms: C_1  and  N_2
REMARK    2  A    between atoms: N_12  and  C_13
REMARK    3  A    between atoms: C_17  and  C_18
REMARK    4  A    between atoms: C_18  and  C_19
REMARK    5  A    between atoms: C_19  and  C_20
REMARK    6  A    between atoms: N_24  and  C_25
REMARK                            x       y       z     vdW  Elec       q    Type
REMARK                         _______ _______ _______ _____ _____    ______ ____
ROOT
ATOM      1  C   UNL     1       0.235  15.262  19.829  0.00  0.00    +0.000 C 
ATOM      2  N   UNL     1       0.855  14.490  18.751  0.00  0.00    +0.000 NA
ATOM      3  C   UNL     1       2.119  13.874  19.169  0.00  0.00    +0.000 C 
ATOM      4  C   UNL     1       1.930  12.739  20.179  0.00  0.00    +0.000 C 
ATOM      5  C   UNL     1       0.938  11.681  19.663  0.00  0.00    +0.000 C 
ATOM      6  C   UNL     1      -0.357  12.336  19.145  0.00  0.00    +0.000 C 
ATOM      7  C   UNL     1      -0.061  13.492  18.187  0.00  0.00    +0.000 C 
ATOM      8  C   UNL     1       1.598  10.802  18.558  0.00  0.00    +0.000 C 
ATOM      9  N   UNL     1       1.600   9.432  19.058  0.00  0.00    +0.000 N 
ATOM     10  C   UNL     1       2.146   8.381  18.358  0.00  0.00    +0.000 C 
ATOM     11  O   UNL     1       2.690   8.542  17.267  0.00  0.00    +0.000 OA
ATOM     12  N   UNL     1       1.992   7.162  18.979  0.00  0.00    +0.000 N 
ATOM     13  C   UNL     1       1.024   9.385  20.321  0.00  0.00    +0.000 A 
ATOM     14  N   UNL     1       0.866   8.266  21.053  0.00  0.00    +0.000 NA
ATOM     15  C   UNL     1       0.311   8.430  22.268  0.00  0.00    +0.000 A 
ATOM     16  C   UNL     1      -0.104   9.660  22.767  0.00  0.00    +0.000 A 
ATOM     17  C   UNL     1       0.057  10.795  21.971  0.00  0.00    +0.000 A 
ATOM     18  C   UNL     1       0.641  10.645  20.723  0.00  0.00    +0.000 A 
ATOM     19  H   UNL     1       1.202   7.133  19.616  0.00  0.00    +0.000 HD
ENDROOT
BRANCH  12  20
ATOM     20  C   UNL     1       2.439   5.958  18.457  0.00  0.00    +0.000 A 
ATOM     21  C   UNL     1       1.864   4.753  18.840  0.00  0.00    +0.000 A 
ATOM     22  C   UNL     1       2.269   3.584  18.210  0.00  0.00    +0.000 A 
ATOM     23  C   UNL     1       3.308   3.625  17.277  0.00  0.00    +0.000 A 
ATOM     24  C   UNL     1       3.978   4.827  16.953  0.00  0.00    +0.000 A 
ATOM     25  C   UNL     1       3.451   6.002  17.502  0.00  0.00    +0.000 A 
BRANCH  24  26
ATOM     26  C   UNL     1       5.324   4.854  16.098  0.00  0.00    +0.000 C 
ATOM     27  C   UNL     1       6.145   3.534  15.925  0.00  0.00    +0.000 C 
ATOM     28  O   UNL     1       6.268   3.786  14.492  0.00  0.00    +0.000 OA
ATOM     29  C   UNL     1       5.091   4.629  14.569  0.00  0.00    +0.000 C 
BRANCH  26  30
ATOM     30  C   UNL     1       6.192   6.080  16.427  0.00  0.00    +0.000 C 
BRANCH  30  31
ATOM     31  C   UNL     1       6.985   5.961  17.696  0.00  0.00    +0.000 A 
ATOM     32  N   UNL     1       7.112   4.886  18.443  0.00  0.00    +0.000 NA
ATOM     33  N   UNL     1       7.966   5.171  19.485  0.00  0.00    +0.000 NA
ATOM     34  C   UNL     1       8.340   6.423  19.354  0.00  0.00    +0.000 A 
ATOM     35  N   UNL     1       7.748   6.962  18.252  0.00  0.00    +0.000 N 
ATOM     36  C   UNL     1       7.927   8.312  17.797  0.00  0.00    +0.000 C 
ENDBRANCH  30  31
ENDBRANCH  26  30
ENDBRANCH  24  26
ENDBRANCH  12  20
TORSDOF 4
ENDMDL
MODEL 8
REMARK VINA RESULT:      -8.5      3.120      9.656
REMARK  Name = 
REMARK  6 active torsions:
REMARK  status: ('A' for Active; 'I' for Inactive)
REMARK    1  A    between atoms: C_1  and  N_2
REMARK    2  A    between atoms: N_12  and  C_13
REMARK    3  A    between atoms: C_17  and  C_18
REMARK    4  A    between atoms: C_18  and  C_19
REMARK    5  A    between atoms: C_19  and  C_20
REMARK    6  A    between atoms: N_24  and  C_25
REMARK                            x       y       z     vdW  Elec       q    Type
REMARK                         _______ _______ _______ _____ _____    ______ ____
ROOT
ATOM      1  C   UNL     1      -0.522  14.780  19.193  0.00  0.00    +0.000 C 
ATOM      2  N   UNL     1       0.126  13.953  18.175  0.00  0.00    +0.000 NA
ATOM      3  C   UNL     1       1.485  13.559  18.566  0.00  0.00    +0.000 C 
ATOM      4  C   UNL     1       1.512  12.556  19.721  0.00  0.00    +0.000 C 
ATOM      5  C   UNL     1       0.639  11.324  19.421  0.00  0.00    +0.000 C 
ATOM      6  C   UNL     1      -0.761  11.738  18.930  0.00  0.00    +0.000 C 
ATOM      7  C   UNL     1      -0.682  12.783  17.814  0.00  0.00    +0.000 C 
ATOM      8  C   UNL     1       1.339  10.393  18.386  0.00  0.00    +0.000 C 
ATOM      9  N   UNL     1       1.554   9.112  19.052  0.00  0.00    +0.000 N 
ATOM     10  C   UNL     1       2.190   8.052  18.448  0.00  0.00    +0.000 C 
ATOM     11  O   UNL     1       2.639   8.132  17.305  0.00  0.00    +0.000 OA
ATOM     12  N   UNL     1       2.238   6.918  19.226  0.00  0.00    +0.000 N 
ATOM     13  C   UNL     1       1.069   9.165  20.352  0.00  0.00    +0.000 A 
ATOM     14  N   UNL     1       1.106   8.143  21.229  0.00  0.00    +0.000 NA
ATOM     15  C   UNL     1       0.611   8.398  22.453  0.00  0.00    +0.000 A 
ATOM     16  C   UNL     1       0.068   9.623  22.826  0.00  0.00    +0.000 A 
ATOM     17  C   UNL     1       0.028  10.653  21.884  0.00  0.00    +0.000 A 
ATOM     18  C   UNL     1       0.548  10.410  20.623  0.00  0.00    +0.000 A 
ATOM     19  H   UNL     1       1.500   6.877  19.922  0.00  0.00    +0.000 HD
ENDROOT
BRANCH  12  20
ATOM     20  C   UNL     1       2.807   5.719  18.825  0.00  0.00    +0.000 A 
ATOM     21  C   UNL     1       2.467   4.523  19.441  0.00  0.00    +0.000 A 
ATOM     22  C   UNL     1       2.979   3.335  18.934  0.00  0.00    +0.000 A 
ATOM     23  C   UNL     1       3.896   3.372  17.881  0.00  0.00    +0.000 A 
ATOM     24  C   UNL     1       4.336   4.588  17.311  0.00  0.00    +0.000 A 
ATOM     25  C   UNL     1       3.696   5.751  17.753  0.00  0.00    +0.000 A 
BRANCH  24  26
ATOM     26  C   UNL     1       5.566   4.664  16.298  0.00  0.00    +0.000 C 
ATOM     27  C   UNL     1       5.544   3.784  15.005  0.00  0.00    +0.000 C 
ATOM     28  O   UNL     1       5.949   4.935  14.203  0.00  0.00    +0.000 OA
ATOM     29  C   UNL     1       5.425   5.804  15.238  0.00  0.00    +0.000 C 
BRANCH  26  30
ATOM     30  C   UNL     1       6.918   4.650  17.030  0.00  0.00    +0.000 C 
BRANCH  30  31
ATOM     31  C   UNL     1       7.433   6.005  17.417  0.00  0.00    +0.000 A 
ATOM     32  N   UNL     1       7.498   7.069  16.646  0.00  0.00    +0.000 NA
ATOM     33  N   UNL     1       7.975   8.125  17.390  0.00  0.00    +0.000 NA
ATOM     34  C   UNL     1       8.197   7.679  18.605  0.00  0.00    +0.000 A 
ATOM     35  N   UNL     1       7.880   6.357  18.671  0.00  0.00    +0.000 N 
ATOM     36  C   UNL     1       7.994   5.537  19.844  0.00  0.00    +0.000 C 
ENDBRANCH  30  31
ENDBRANCH  26  30
ENDBRANCH  24  26
ENDBRANCH  12  20
TORSDOF 4
ENDMDL
MODEL 9
REMARK VINA RESULT:      -8.5      2.029      2.888
REMARK  Name = 
REMARK  6 active torsions:
REMARK  status: ('A' for Active; 'I' for Inactive)
REMARK    1  A    between atoms: C_1  and  N_2
REMARK    2  A    between atoms: N_12  and  C_13
REMARK    3  A    between atoms: C_17  and  C_18
REMARK    4  A    between atoms: C_18  and  C_19
REMARK    5  A    between atoms: C_19  and  C_20
REMARK    6  A    between atoms: N_24  and  C_25
REMARK                            x       y       z     vdW  Elec       q    Type
REMARK                         _______ _______ _______ _____ _____    ______ ____
ROOT
ATOM      1  C   UNL     1       7.537   4.381  16.702  0.00  0.00    +0.000 C 
ATOM      2  N   UNL     1       6.999   5.655  16.223  0.00  0.00    +0.000 NA
ATOM      3  C   UNL     1       5.663   5.505  15.636  0.00  0.00    +0.000 C 
ATOM      4  C   UNL     1       4.584   5.180  16.671  0.00  0.00    +0.000 C 
ATOM      5  C   UNL     1       4.575   6.204  17.821  0.00  0.00    +0.000 C 
ATOM      6  C   UNL     1       5.993   6.424  18.382  0.00  0.00    +0.000 C 
ATOM      7  C   UNL     1       7.007   6.687  17.266  0.00  0.00    +0.000 C 
ATOM      8  C   UNL     1       3.946   7.550  17.353  0.00  0.00    +0.000 C 
ATOM      9  N   UNL     1       2.766   7.772  18.182  0.00  0.00    +0.000 N 
ATOM     10  C   UNL     1       1.932   8.855  18.022  0.00  0.00    +0.000 C 
ATOM     11  O   UNL     1       2.125   9.697  17.146  0.00  0.00    +0.000 OA
ATOM     12  N   UNL     1       0.911   8.908  18.942  0.00  0.00    +0.000 N 
ATOM     13  C   UNL     1       2.615   6.727  19.084  0.00  0.00    +0.000 A 
ATOM     14  N   UNL     1       1.629   6.636  19.996  0.00  0.00    +0.000 NA
ATOM     15  C   UNL     1       1.636   5.530  20.763  0.00  0.00    +0.000 A 
ATOM     16  C   UNL     1       2.596   4.528  20.664  0.00  0.00    +0.000 A 
ATOM     17  C   UNL     1       3.615   4.668  19.721  0.00  0.00    +0.000 A 
ATOM     18  C   UNL     1       3.613   5.794  18.913  0.00  0.00    +0.000 A 
ATOM     19  H   UNL     1       1.122   8.416  19.806  0.00  0.00    +0.000 HD
ENDROOT
BRANCH  12  20
ATOM     20  C   UNL     1      -0.041   9.916  18.996  0.00  0.00    +0.000 A 
ATOM     21  C   UNL     1      -0.697  10.344  17.850  0.00  0.00    +0.000 A 
ATOM     22  C   UNL     1      -1.719  11.277  17.968  0.00  0.00    +0.000 A 
ATOM     23  C   UNL     1      -2.003  11.836  19.217  0.00  0.00    +0.000 A 
ATOM     24  C   UNL     1      -1.273  11.491  20.377  0.00  0.00    +0.000 A 
ATOM     25  C   UNL     1      -0.348  10.449  20.245  0.00  0.00    +0.000 A 
BRANCH  24  26
ATOM     26  C   UNL     1      -1.404  12.302  21.744  0.00  0.00    +0.000 C 
ATOM     27  C   UNL     1      -2.779  12.323  22.490  0.00  0.00    +0.000 C 
ATOM     28  O   UNL     1      -2.110  12.025  23.753  0.00  0.00    +0.000 OA
ATOM     29  C   UNL     1      -1.004  11.464  23.002  0.00  0.00    +0.000 C 
BRANCH  26  30
ATOM     30  C   UNL     1      -0.726  13.679  21.665  0.00  0.00    +0.000 C 
BRANCH  30  31
ATOM     31  C   UNL     1       0.600  13.683  20.962  0.00  0.00    +0.000 A 
ATOM     32  N   UNL     1       1.716  13.133  21.390  0.00  0.00    +0.000 NA
ATOM     33  N   UNL     1       2.689  13.307  20.431  0.00  0.00    +0.000 NA
ATOM     34  C   UNL     1       2.145  13.968  19.436  0.00  0.00    +0.000 A 
ATOM     35  N   UNL     1       0.840  14.232  19.723  0.00  0.00    +0.000 N 
ATOM     36  C   UNL     1      -0.068  14.938  18.864  0.00  0.00    +0.000 C 
ENDBRANCH  30  31
ENDBRANCH  26  30
ENDBRANCH  24  26
ENDBRANCH  12  20
TORSDOF 4
ENDMDL
