MODEL 1
REMARK VINA RESULT:      -9.8      0.000      0.000
REMARK  Name = 
REMARK  7 active torsions:
REMARK  status: ('A' for Active; 'I' for Inactive)
REMARK    1  A    between atoms: C_1  and  C_2
REMARK    2  A    between atoms: C_2  and  C_3
REMARK    3  A    between atoms: C_2  and  C_10
REMARK    4  A    between atoms: C_3  and  C_4
REMARK    5  A    between atoms: N_8  and  C_9
REMARK    6  A    between atoms: C_15  and  N_16
REMARK    7  A    between atoms: C_23  and  C_24
REMARK                            x       y       z     vdW  Elec       q    Type
REMARK                         _______ _______ _______ _____ _____    ______ ____
ROOT
ATOM      1  C   UNL     1       4.617   5.064  17.551  0.00  0.00    +0.000 A 
ATOM      2  C   UNL     1       3.960   3.860  17.820  0.00  0.00    +0.000 A 
ATOM      3  C   UNL     1       2.734   3.871  18.476  0.00  0.00    +0.000 A 
ATOM      4  F   UNL     1       2.112   2.709  18.719  0.00  0.00    +0.000 F 
ATOM      5  C   UNL     1       2.131   5.061  18.877  0.00  0.00    +0.000 A 
ATOM      6  C   UNL     1       2.753   6.283  18.617  0.00  0.00    +0.000 A 
ATOM      7  C   UNL     1       3.999   6.259  17.969  0.00  0.00    +0.000 A 
ENDROOT
BRANCH   6   8
ATOM      8  N   UNL     1       2.163   7.522  18.974  0.00  0.00    +0.000 N 
ATOM      9  C   UNL     1       1.569   7.756  20.287  0.00  0.00    +0.000 C 
ATOM     10  C   UNL     1       1.098   9.170  20.217  0.00  0.00    +0.000 A 
ATOM     11  C   UNL     1       1.400   9.691  18.960  0.00  0.00    +0.000 A 
ATOM     12  C   UNL     1       1.070  10.977  18.581  0.00  0.00    +0.000 A 
ATOM     13  C   UNL     1       0.403  11.769  19.513  0.00  0.00    +0.000 A 
ATOM     14  C   UNL     1       0.098  11.263  20.791  0.00  0.00    +0.000 A 
ATOM     15  C   UNL     1       0.447   9.952  21.168  0.00  0.00    +0.000 A 
ATOM     16  C   UNL     1       2.089   8.664  18.176  0.00  0.00    +0.000 C 
ATOM     17  O   UNL     1       2.476   8.873  17.041  0.00  0.00    +0.000 OA
BRANCH  15  18
ATOM     18  C   UNL     1       0.122   9.453  22.553  0.00  0.00    +0.000 C 
ATOM     19  F   UNL     1      -0.510  10.375  23.331  0.00  0.00    +0.000 F 
ATOM     20  F   UNL     1      -0.696   8.363  22.533  0.00  0.00    +0.000 F 
ATOM     21  F   UNL     1       1.232   9.078  23.246  0.00  0.00    +0.000 F 
ENDBRANCH  15  18
ENDBRANCH   6   8
BRANCH   1  23
ATOM     22  C   UNL     1       7.121   4.667  17.769  0.00  0.00    +0.000 C 
ATOM     23  C   UNL     1       5.964   5.063  16.834  0.00  0.00    +0.000 C 
BRANCH  23  24
ATOM     24  C   UNL     1       5.897   4.169  15.576  0.00  0.00    +0.000 C 
BRANCH  24  25
ATOM     25  C   UNL     1       6.780   4.655  14.474  0.00  0.00    +0.000 A 
ATOM     26  N   UNL     1       7.756   5.533  14.596  0.00  0.00    +0.000 NA
ATOM     27  N   UNL     1       8.311   5.735  13.355  0.00  0.00    +0.000 NA
ATOM     28  C   UNL     1       7.672   4.968  12.504  0.00  0.00    +0.000 A 
ATOM     29  N   UNL     1       6.708   4.268  13.162  0.00  0.00    +0.000 N 
ATOM     30  C   UNL     1       5.808   3.313  12.574  0.00  0.00    +0.000 C 
ENDBRANCH  24  25
ENDBRANCH  23  24
ENDBRANCH   1  23
TORSDOF 5
ENDMDL
MODEL 2
REMARK VINA RESULT:      -9.3      1.692      2.694
REMARK  Name = 
REMARK  7 active torsions:
REMARK  status: ('A' for Active; 'I' for Inactive)
REMARK    1  A    between atoms: C_1  and  C_2
REMARK    2  A    between atoms: C_2  and  C_3
REMARK    3  A    between atoms: C_2  and  C_10
REMARK    4  A    between atoms: C_3  and  C_4
REMARK    5  A    between atoms: N_8  and  C_9
REMARK    6  A    between atoms: C_15  and  N_16
REMARK    7  A    between atoms: C_23  and  C_24
REMARK                            x       y       z     vdW  Elec       q    Type
REMARK                         _______ _______ _______ _____ _____    ______ ____
ROOT
ATOM      1  C   UNL     1       4.578   4.751  17.660  0.00  0.00    +0.000 A 
ATOM      2  C   UNL     1       4.399   3.683  18.543  0.00  0.00    +0.000 A 
ATOM      3  C   UNL     1       3.553   3.823  19.638  0.00  0.00    +0.000 A 
ATOM      4  F   UNL     1       3.385   2.786  20.471  0.00  0.00    +0.000 F 
ATOM      5  C   UNL     1       2.868   5.010  19.884  0.00  0.00    +0.000 A 
ATOM      6  C   UNL     1       3.015   6.096  19.019  0.00  0.00    +0.000 A 
ATOM      7  C   UNL     1       3.885   5.949  17.925  0.00  0.00    +0.000 A 
ENDROOT
BRANCH   6   8
ATOM      8  N   UNL     1       2.312   7.313  19.207  0.00  0.00    +0.000 N 
ATOM      9  C   UNL     1       1.625   7.634  20.454  0.00  0.00    +0.000 C 
ATOM     10  C   UNL     1       1.052   8.989  20.206  0.00  0.00    +0.000 A 
ATOM     11  C   UNL     1       1.390   9.399  18.917  0.00  0.00    +0.000 A 
ATOM     12  C   UNL     1       0.987  10.607  18.383  0.00  0.00    +0.000 A 
ATOM     13  C   UNL     1       0.206  11.435  19.187  0.00  0.00    +0.000 A 
ATOM     14  C   UNL     1      -0.136  11.042  20.495  0.00  0.00    +0.000 A 
ATOM     15  C   UNL     1       0.288   9.810  21.031  0.00  0.00    +0.000 A 
ATOM     16  C   UNL     1       2.201   8.355  18.287  0.00  0.00    +0.000 C 
ATOM     17  O   UNL     1       2.639   8.475  17.157  0.00  0.00    +0.000 OA
BRANCH  15  18
ATOM     18  C   UNL     1      -0.082   9.434  22.443  0.00  0.00    +0.000 C 
ATOM     19  F   UNL     1       0.993   9.256  23.259  0.00  0.00    +0.000 F 
ATOM     20  F   UNL     1      -0.852  10.381  23.047  0.00  0.00    +0.000 F 
ATOM     21  F   UNL     1      -0.792   8.275  22.504  0.00  0.00    +0.000 F 
ENDBRANCH  15  18
ENDBRANCH   6   8
BRANCH   1  23
ATOM     22  C   UNL     1       5.208   5.651  15.363  0.00  0.00    +0.000 C 
ATOM     23  C   UNL     1       5.507   4.609  16.456  0.00  0.00    +0.000 C 
BRANCH  23  24
ATOM     24  C   UNL     1       6.981   4.648  16.914  0.00  0.00    +0.000 C 
BRANCH  24  25
ATOM     25  C   UNL     1       7.414   6.007  17.354  0.00  0.00    +0.000 A 
ATOM     26  N   UNL     1       7.486   7.081  16.590  0.00  0.00    +0.000 NA
ATOM     27  N   UNL     1       7.950   8.123  17.355  0.00  0.00    +0.000 NA
ATOM     28  C   UNL     1       8.141   7.669  18.572  0.00  0.00    +0.000 A 
ATOM     29  N   UNL     1       7.812   6.350  18.619  0.00  0.00    +0.000 N 
ATOM     30  C   UNL     1       7.874   5.505  19.781  0.00  0.00    +0.000 C 
ENDBRANCH  24  25
ENDBRANCH  23  24
ENDBRANCH   1  23
TORSDOF 5
ENDMDL
MODEL 3
REMARK VINA RESULT:      -8.9      2.073      2.582
REMARK  Name = 
REMARK  7 active torsions:
REMARK  status: ('A' for Active; 'I' for Inactive)
REMARK    1  A    between atoms: C_1  and  C_2
REMARK    2  A    between atoms: C_2  and  C_3
REMARK    3  A    between atoms: C_2  and  C_10
REMARK    4  A    between atoms: C_3  and  C_4
REMARK    5  A    between atoms: N_8  and  C_9
REMARK    6  A    between atoms: C_15  and  N_16
REMARK    7  A    between atoms: C_23  and  C_24
REMARK                            x       y       z     vdW  Elec       q    Type
REMARK                         _______ _______ _______ _____ _____    ______ ____
ROOT
ATOM      1  C   UNL     1       4.768   5.441  17.011  0.00  0.00    +0.000 A 
ATOM      2  C   UNL     1       4.141   4.217  16.761  0.00  0.00    +0.000 A 
ATOM      3  C   UNL     1       2.899   3.946  17.324  0.00  0.00    +0.000 A 
ATOM      4  F   UNL     1       2.307   2.771  17.068  0.00  0.00    +0.000 F 
ATOM      5  C   UNL     1       2.250   4.870  18.140  0.00  0.00    +0.000 A 
ATOM      6  C   UNL     1       2.842   6.106  18.405  0.00  0.00    +0.000 A 
ATOM      7  C   UNL     1       4.104   6.363  17.844  0.00  0.00    +0.000 A 
ENDROOT
BRANCH   6   8
ATOM      8  N   UNL     1       2.205   7.093  19.201  0.00  0.00    +0.000 N 
ATOM      9  C   UNL     1       1.907   8.430  18.698  0.00  0.00    +0.000 C 
ATOM     10  C   UNL     1       1.239   9.103  19.850  0.00  0.00    +0.000 A 
ATOM     11  C   UNL     1       1.169   8.213  20.921  0.00  0.00    +0.000 A 
ATOM     12  C   UNL     1       0.621   8.550  22.143  0.00  0.00    +0.000 A 
ATOM     13  C   UNL     1       0.125   9.843  22.288  0.00  0.00    +0.000 A 
ATOM     14  C   UNL     1       0.178  10.753  21.215  0.00  0.00    +0.000 A 
ATOM     15  C   UNL     1       0.733  10.394  19.971  0.00  0.00    +0.000 A 
ATOM     16  C   UNL     1       1.760   6.936  20.513  0.00  0.00    +0.000 C 
ATOM     17  O   UNL     1       1.808   5.981  21.267  0.00  0.00    +0.000 OA
BRANCH  15  18
ATOM     18  C   UNL     1       0.753  11.389  18.839  0.00  0.00    +0.000 C 
ATOM     19  F   UNL     1       1.989  11.576  18.298  0.00  0.00    +0.000 F 
ATOM     20  F   UNL     1      -0.050  11.014  17.804  0.00  0.00    +0.000 F 
ATOM     21  F   UNL     1       0.324  12.622  19.221  0.00  0.00    +0.000 F 
ENDBRANCH  15  18
ENDBRANCH   6   8
BRANCH   1  23
ATOM     22  C   UNL     1       7.131   6.282  17.443  0.00  0.00    +0.000 C 
ATOM     23  C   UNL     1       6.133   5.747  16.400  0.00  0.00    +0.000 C 
BRANCH  23  24
ATOM     24  C   UNL     1       6.673   4.506  15.656  0.00  0.00    +0.000 C 
BRANCH  24  25
ATOM     25  C   UNL     1       7.176   4.827  14.287  0.00  0.00    +0.000 A 
ATOM     26  N   UNL     1       8.171   5.644  14.000  0.00  0.00    +0.000 NA
ATOM     27  N   UNL     1       8.308   5.692  12.634  0.00  0.00    +0.000 NA
ATOM     28  C   UNL     1       7.403   4.896  12.115  0.00  0.00    +0.000 A 
ATOM     29  N   UNL     1       6.675   4.327  13.113  0.00  0.00    +0.000 N 
ATOM     30  C   UNL     1       5.601   3.387  12.945  0.00  0.00    +0.000 C 
ENDBRANCH  24  25
ENDBRANCH  23  24
ENDBRANCH   1  23
TORSDOF 5
ENDMDL
MODEL 4
REMARK VINA RESULT:      -8.9      3.155      8.629
REMARK  Name = 
REMARK  7 active torsions:
REMARK  status: ('A' for Active; 'I' for Inactive)
REMARK    1  A    between atoms: C_1  and  C_2
REMARK    2  A    between atoms: C_2  and  C_3
REMARK    3  A    between atoms: C_2  and  C_10
REMARK    4  A    between atoms: C_3  and  C_4
REMARK    5  A    between atoms: N_8  and  C_9
REMARK    6  A    between atoms: C_15  and  N_16
REMARK    7  A    between atoms: C_23  and  C_24
REMARK                            x       y       z     vdW  Elec       q    Type
REMARK                         _______ _______ _______ _____ _____    ______ ____
ROOT
ATOM      1  C   UNL     1      -0.024  10.312  20.119  0.00  0.00    +0.000 A 
ATOM      2  C   UNL     1       0.004  10.349  21.516  0.00  0.00    +0.000 A 
ATOM      3  C   UNL     1       0.721   9.388  22.220  0.00  0.00    +0.000 A 
ATOM      4  F   UNL     1       0.746   9.443  23.559  0.00  0.00    +0.000 F 
ATOM      5  C   UNL     1       1.422   8.377  21.569  0.00  0.00    +0.000 A 
ATOM      6  C   UNL     1       1.423   8.312  20.174  0.00  0.00    +0.000 A 
ATOM      7  C   UNL     1       0.682   9.278  19.473  0.00  0.00    +0.000 A 
ENDROOT
BRANCH   6   8
ATOM      8  N   UNL     1       2.149   7.322  19.464  0.00  0.00    +0.000 N 
ATOM      9  C   UNL     1       2.108   5.909  19.829  0.00  0.00    +0.000 C 
ATOM     10  C   UNL     1       2.992   5.255  18.820  0.00  0.00    +0.000 A 
ATOM     11  C   UNL     1       3.494   6.226  17.955  0.00  0.00    +0.000 A 
ATOM     12  C   UNL     1       4.361   5.934  16.921  0.00  0.00    +0.000 A 
ATOM     13  C   UNL     1       4.739   4.603  16.758  0.00  0.00    +0.000 A 
ATOM     14  C   UNL     1       4.235   3.608  17.616  0.00  0.00    +0.000 A 
ATOM     15  C   UNL     1       3.344   3.918  18.662  0.00  0.00    +0.000 A 
ATOM     16  C   UNL     1       2.952   7.530  18.343  0.00  0.00    +0.000 C 
ATOM     17  O   UNL     1       3.227   8.548  17.732  0.00  0.00    +0.000 OA
BRANCH  15  18
ATOM     18  C   UNL     1       2.809   2.821  19.548  0.00  0.00    +0.000 C 
ATOM     19  F   UNL     1       1.449   2.776  19.599  0.00  0.00    +0.000 F 
ATOM     20  F   UNL     1       3.205   1.584  19.137  0.00  0.00    +0.000 F 
ATOM     21  F   UNL     1       3.226   2.942  20.837  0.00  0.00    +0.000 F 
ENDBRANCH  15  18
ENDBRANCH   6   8
BRANCH   1  23
ATOM     22  C   UNL     1       0.026  12.622  19.051  0.00  0.00    +0.000 C 
ATOM     23  C   UNL     1      -0.810  11.361  19.336  0.00  0.00    +0.000 C 
BRANCH  23  24
ATOM     24  C   UNL     1      -1.389  10.739  18.046  0.00  0.00    +0.000 C 
BRANCH  24  25
ATOM     25  C   UNL     1      -2.791  11.175  17.773  0.00  0.00    +0.000 A 
ATOM     26  N   UNL     1      -3.615  11.720  18.647  0.00  0.00    +0.000 NA
ATOM     27  N   UNL     1      -4.814  11.954  18.019  0.00  0.00    +0.000 NA
ATOM     28  C   UNL     1      -4.695  11.560  16.773  0.00  0.00    +0.000 A 
ATOM     29  N   UNL     1      -3.441  11.070  16.572  0.00  0.00    +0.000 N 
ATOM     30  C   UNL     1      -2.924  10.556  15.333  0.00  0.00    +0.000 C 
ENDBRANCH  24  25
ENDBRANCH  23  24
ENDBRANCH   1  23
TORSDOF 5
ENDMDL
MODEL 5
REMARK VINA RESULT:      -8.9      1.789      2.808
REMARK  Name = 
REMARK  7 active torsions:
REMARK  status: ('A' for Active; 'I' for Inactive)
REMARK    1  A    between atoms: C_1  and  C_2
REMARK    2  A    between atoms: C_2  and  C_3
REMARK    3  A    between atoms: C_2  and  C_10
REMARK    4  A    between atoms: C_3  and  C_4
REMARK    5  A    between atoms: N_8  and  C_9
REMARK    6  A    between atoms: C_15  and  N_16
REMARK    7  A    between atoms: C_23  and  C_24
REMARK                            x       y       z     vdW  Elec       q    Type
REMARK                         _______ _______ _______ _____ _____    ______ ____
ROOT
ATOM      1  C   UNL     1       4.603   4.392  16.974  0.00  0.00    +0.000 A 
ATOM      2  C   UNL     1       4.081   3.243  17.575  0.00  0.00    +0.000 A 
ATOM      3  C   UNL     1       3.052   3.353  18.504  0.00  0.00    +0.000 A 
ATOM      4  F   UNL     1       2.556   2.242  19.065  0.00  0.00    +0.000 F 
ATOM      5  C   UNL     1       2.518   4.590  18.858  0.00  0.00    +0.000 A 
ATOM      6  C   UNL     1       3.008   5.758  18.273  0.00  0.00    +0.000 A 
ATOM      7  C   UNL     1       4.059   5.636  17.347  0.00  0.00    +0.000 A 
ENDROOT
BRANCH   6   8
ATOM      8  N   UNL     1       2.473   7.036  18.574  0.00  0.00    +0.000 N 
ATOM      9  C   UNL     1       1.757   7.312  19.816  0.00  0.00    +0.000 C 
ATOM     10  C   UNL     1       1.399   8.756  19.708  0.00  0.00    +0.000 A 
ATOM     11  C   UNL     1       1.875   9.255  18.496  0.00  0.00    +0.000 A 
ATOM     12  C   UNL     1       1.682  10.562  18.095  0.00  0.00    +0.000 A 
ATOM     13  C   UNL     1       0.976  11.399  18.955  0.00  0.00    +0.000 A 
ATOM     14  C   UNL     1       0.496  10.916  20.188  0.00  0.00    +0.000 A 
ATOM     15  C   UNL     1       0.706   9.582  20.589  0.00  0.00    +0.000 A 
ATOM     16  C   UNL     1       2.570   8.181  17.783  0.00  0.00    +0.000 C 
ATOM     17  O   UNL     1       3.094   8.363  16.699  0.00  0.00    +0.000 OA
BRANCH  15  18
ATOM     18  C   UNL     1       0.196   9.106  21.925  0.00  0.00    +0.000 C 
ATOM     19  F   UNL     1      -0.656   8.047  21.838  0.00  0.00    +0.000 F 
ATOM     20  F   UNL     1       1.201   8.706  22.751  0.00  0.00    +0.000 F 
ATOM     21  F   UNL     1      -0.483  10.075  22.598  0.00  0.00    +0.000 F 
ENDBRANCH  15  18
ENDBRANCH   6   8
BRANCH   1  23
ATOM     22  C   UNL     1       5.209   4.114  14.517  0.00  0.00    +0.000 C 
ATOM     23  C   UNL     1       5.734   4.282  15.955  0.00  0.00    +0.000 C 
BRANCH  23  24
ATOM     24  C   UNL     1       6.693   5.485  16.091  0.00  0.00    +0.000 C 
BRANCH  24  25
ATOM     25  C   UNL     1       7.311   5.581  17.447  0.00  0.00    +0.000 A 
ATOM     26  N   UNL     1       7.574   4.568  18.250  0.00  0.00    +0.000 NA
ATOM     27  N   UNL     1       8.115   5.067  19.410  0.00  0.00    +0.000 NA
ATOM     28  C   UNL     1       8.182   6.372  19.287  0.00  0.00    +0.000 A 
ATOM     29  N   UNL     1       7.696   6.738  18.071  0.00  0.00    +0.000 N 
ATOM     30  C   UNL     1       7.617   8.080  17.561  0.00  0.00    +0.000 C 
ENDBRANCH  24  25
ENDBRANCH  23  24
ENDBRANCH   1  23
TORSDOF 5
ENDMDL
MODEL 6
REMARK VINA RESULT:      -8.8      3.540      8.829
REMARK  Name = 
REMARK  7 active torsions:
REMARK  status: ('A' for Active; 'I' for Inactive)
REMARK    1  A    between atoms: C_1  and  C_2
REMARK    2  A    between atoms: C_2  and  C_3
REMARK    3  A    between atoms: C_2  and  C_10
REMARK    4  A    between atoms: C_3  and  C_4
REMARK    5  A    between atoms: N_8  and  C_9
REMARK    6  A    between atoms: C_15  and  N_16
REMARK    7  A    between atoms: C_23  and  C_24
REMARK                            x       y       z     vdW  Elec       q    Type
REMARK                         _______ _______ _______ _____ _____    ______ ____
ROOT
ATOM      1  C   UNL     1       0.435  10.358  19.993  0.00  0.00    +0.000 A 
ATOM      2  C   UNL     1       0.361  10.390  21.389  0.00  0.00    +0.000 A 
ATOM      3  C   UNL     1       0.882   9.338  22.134  0.00  0.00    +0.000 A 
ATOM      4  F   UNL     1       0.812   9.388  23.472  0.00  0.00    +0.000 F 
ATOM      5  C   UNL     1       1.485   8.240  21.526  0.00  0.00    +0.000 A 
ATOM      6  C   UNL     1       1.584   8.178  20.135  0.00  0.00    +0.000 A 
ATOM      7  C   UNL     1       1.040   9.238  19.390  0.00  0.00    +0.000 A 
ENDROOT
BRANCH   6   8
ATOM      8  N   UNL     1       2.219   7.098  19.470  0.00  0.00    +0.000 N 
ATOM      9  C   UNL     1       3.184   7.300  18.394  0.00  0.00    +0.000 C 
ATOM     10  C   UNL     1       3.591   5.915  18.015  0.00  0.00    +0.000 A 
ATOM     11  C   UNL     1       2.905   5.003  18.815  0.00  0.00    +0.000 A 
ATOM     12  C   UNL     1       3.052   3.636  18.691  0.00  0.00    +0.000 A 
ATOM     13  C   UNL     1       3.929   3.172  17.713  0.00  0.00    +0.000 A 
ATOM     14  C   UNL     1       4.638   4.078  16.902  0.00  0.00    +0.000 A 
ATOM     15  C   UNL     1       4.484   5.471  17.044  0.00  0.00    +0.000 A 
ATOM     16  C   UNL     1       2.051   5.741  19.749  0.00  0.00    +0.000 C 
ATOM     17  O   UNL     1       1.356   5.173  20.572  0.00  0.00    +0.000 OA
BRANCH  15  18
ATOM     18  C   UNL     1       5.276   6.411  16.171  0.00  0.00    +0.000 C 
ATOM     19  F   UNL     1       6.062   5.776  15.259  0.00  0.00    +0.000 F 
ATOM     20  F   UNL     1       4.476   7.247  15.452  0.00  0.00    +0.000 F 
ATOM     21  F   UNL     1       6.109   7.211  16.889  0.00  0.00    +0.000 F 
ENDBRANCH  15  18
ENDBRANCH   6   8
BRANCH   1  23
ATOM     22  C   UNL     1       0.942  12.534  18.773  0.00  0.00    +0.000 C 
ATOM     23  C   UNL     1      -0.136  11.507  19.165  0.00  0.00    +0.000 C 
BRANCH  23  24
ATOM     24  C   UNL     1      -0.892  10.954  17.938  0.00  0.00    +0.000 C 
BRANCH  24  25
ATOM     25  C   UNL     1      -2.361  11.214  17.998  0.00  0.00    +0.000 A 
ATOM     26  N   UNL     1      -2.989  11.891  18.941  0.00  0.00    +0.000 NA
ATOM     27  N   UNL     1      -4.332  11.886  18.653  0.00  0.00    +0.000 NA
ATOM     28  C   UNL     1      -4.497  11.218  17.535  0.00  0.00    +0.000 A 
ATOM     29  N   UNL     1      -3.288  10.784  17.085  0.00  0.00    +0.000 N 
ATOM     30  C   UNL     1      -3.055  10.029  15.885  0.00  0.00    +0.000 C 
ENDBRANCH  24  25
ENDBRANCH  23  24
ENDBRANCH   1  23
TORSDOF 5
ENDMDL
MODEL 7
REMARK VINA RESULT:      -8.7      3.717      9.594
REMARK  Name = 
REMARK  7 active torsions:
REMARK  status: ('A' for Active; 'I' for Inactive)
REMARK    1  A    between atoms: C_1  and  C_2
REMARK    2  A    between atoms: C_2  and  C_3
REMARK    3  A    between atoms: C_2  and  C_10
REMARK    4  A    between atoms: C_3  and  C_4
REMARK    5  A    between atoms: N_8  and  C_9
REMARK    6  A    between atoms: C_15  and  N_16
REMARK    7  A    between atoms: C_23  and  C_24
REMARK                            x       y       z     vdW  Elec       q    Type
REMARK                         _______ _______ _______ _____ _____    ______ ____
ROOT
ATOM      1  C   UNL     1       0.019  10.299  21.063  0.00  0.00    +0.000 A 
ATOM      2  C   UNL     1       0.151  11.398  20.209  0.00  0.00    +0.000 A 
ATOM      3  C   UNL     1       0.902  11.284  19.044  0.00  0.00    +0.000 A 
ATOM      4  F   UNL     1       1.012  12.344  18.231  0.00  0.00    +0.000 F 
ATOM      5  C   UNL     1       1.532  10.092  18.696  0.00  0.00    +0.000 A 
ATOM      6  C   UNL     1       1.416   8.971  19.519  0.00  0.00    +0.000 A 
ATOM      7  C   UNL     1       0.669   9.102  20.703  0.00  0.00    +0.000 A 
ENDROOT
BRANCH   6   8
ATOM      8  N   UNL     1       2.011   7.727  19.191  0.00  0.00    +0.000 N 
ATOM      9  C   UNL     1       1.808   6.526  19.995  0.00  0.00    +0.000 C 
ATOM     10  C   UNL     1       2.594   5.480  19.278  0.00  0.00    +0.000 A 
ATOM     11  C   UNL     1       3.197   6.049  18.157  0.00  0.00    +0.000 A 
ATOM     12  C   UNL     1       4.010   5.337  17.299  0.00  0.00    +0.000 A 
ATOM     13  C   UNL     1       4.226   3.992  17.588  0.00  0.00    +0.000 A 
ATOM     14  C   UNL     1       3.618   3.397  18.710  0.00  0.00    +0.000 A 
ATOM     15  C   UNL     1       2.784   4.133  19.575  0.00  0.00    +0.000 A 
ATOM     16  C   UNL     1       2.818   7.462  18.084  0.00  0.00    +0.000 C 
ATOM     17  O   UNL     1       3.203   8.185  17.183  0.00  0.00    +0.000 OA
BRANCH  15  18
ATOM     18  C   UNL     1       2.134   3.456  20.754  0.00  0.00    +0.000 C 
ATOM     19  F   UNL     1       0.773   3.483  20.717  0.00  0.00    +0.000 F 
ATOM     20  F   UNL     1       2.476   2.141  20.850  0.00  0.00    +0.000 F 
ATOM     21  F   UNL     1       2.486   4.024  21.940  0.00  0.00    +0.000 F 
ENDBRANCH  15  18
ENDBRANCH   6   8
BRANCH   1  23
ATOM     22  C   UNL     1      -0.167   9.637  23.514  0.00  0.00    +0.000 C 
ATOM     23  C   UNL     1      -0.801  10.415  22.346  0.00  0.00    +0.000 C 
BRANCH  23  24
ATOM     24  C   UNL     1      -1.039  11.900  22.693  0.00  0.00    +0.000 C 
BRANCH  24  25
ATOM     25  C   UNL     1      -2.489  12.247  22.782  0.00  0.00    +0.000 A 
ATOM     26  N   UNL     1      -3.316  11.876  23.740  0.00  0.00    +0.000 NA
ATOM     27  N   UNL     1      -4.563  12.373  23.448  0.00  0.00    +0.000 NA
ATOM     28  C   UNL     1      -4.470  13.047  22.327  0.00  0.00    +0.000 A 
ATOM     29  N   UNL     1      -3.188  13.001  21.876  0.00  0.00    +0.000 N 
ATOM     30  C   UNL     1      -2.687  13.631  20.684  0.00  0.00    +0.000 C 
ENDBRANCH  24  25
ENDBRANCH  23  24
ENDBRANCH   1  23
TORSDOF 5
ENDMDL
MODEL 8
REMARK VINA RESULT:      -8.7      2.705      3.817
REMARK  Name = 
REMARK  7 active torsions:
REMARK  status: ('A' for Active; 'I' for Inactive)
REMARK    1  A    between atoms: C_1  and  C_2
REMARK    2  A    between atoms: C_2  and  C_3
REMARK    3  A    between atoms: C_2  and  C_10
REMARK    4  A    between atoms: C_3  and  C_4
REMARK    5  A    between atoms: N_8  and  C_9
REMARK    6  A    between atoms: C_15  and  N_16
REMARK    7  A    between atoms: C_23  and  C_24
REMARK                            x       y       z     vdW  Elec       q    Type
REMARK                         _______ _______ _______ _____ _____    ______ ____
ROOT
ATOM      1  C   UNL     1       4.507   4.297  16.752  0.00  0.00    +0.000 A 
ATOM      2  C   UNL     1       3.810   3.085  16.758  0.00  0.00    +0.000 A 
ATOM      3  C   UNL     1       2.648   2.957  17.511  0.00  0.00    +0.000 A 
ATOM      4  F   UNL     1       1.986   1.792  17.498  0.00  0.00    +0.000 F 
ATOM      5  C   UNL     1       2.149   4.014  18.268  0.00  0.00    +0.000 A 
ATOM      6  C   UNL     1       2.813   5.242  18.281  0.00  0.00    +0.000 A 
ATOM      7  C   UNL     1       3.995   5.355  17.530  0.00  0.00    +0.000 A 
ENDROOT
BRANCH   6   8
ATOM      8  N   UNL     1       2.326   6.357  19.009  0.00  0.00    +0.000 N 
ATOM      9  C   UNL     1       2.089   7.655  18.385  0.00  0.00    +0.000 C 
ATOM     10  C   UNL     1       1.577   8.500  19.504  0.00  0.00    +0.000 A 
ATOM     11  C   UNL     1       1.532   7.736  20.669  0.00  0.00    +0.000 A 
ATOM     12  C   UNL     1       1.119   8.244  21.884  0.00  0.00    +0.000 A 
ATOM     13  C   UNL     1       0.738   9.583  21.923  0.00  0.00    +0.000 A 
ATOM     14  C   UNL     1       0.768  10.368  20.754  0.00  0.00    +0.000 A 
ATOM     15  C   UNL     1       1.185   9.835  19.519  0.00  0.00    +0.000 A 
ATOM     16  C   UNL     1       1.985   6.377  20.361  0.00  0.00    +0.000 C 
ATOM     17  O   UNL     1       2.025   5.505  21.210  0.00  0.00    +0.000 OA
BRANCH  15  18
ATOM     18  C   UNL     1       1.183  10.701  18.285  0.00  0.00    +0.000 C 
ATOM     19  F   UNL     1       2.380  10.729  17.637  0.00  0.00    +0.000 F 
ATOM     20  F   UNL     1       0.272  10.285  17.361  0.00  0.00    +0.000 F 
ATOM     21  F   UNL     1       0.877  11.998  18.559  0.00  0.00    +0.000 F 
ENDBRANCH  15  18
ENDBRANCH   6   8
BRANCH   1  23
ATOM     22  C   UNL     1       5.535   4.252  14.425  0.00  0.00    +0.000 C 
ATOM     23  C   UNL     1       5.785   4.447  15.931  0.00  0.00    +0.000 C 
BRANCH  23  24
ATOM     24  C   UNL     1       6.462   5.800  16.242  0.00  0.00    +0.000 C 
BRANCH  24  25
ATOM     25  C   UNL     1       7.208   5.789  17.536  0.00  0.00    +0.000 A 
ATOM     26  N   UNL     1       7.472   4.723  18.267  0.00  0.00    +0.000 NA
ATOM     27  N   UNL     1       8.151   5.129  19.390  0.00  0.00    +0.000 NA
ATOM     28  C   UNL     1       8.299   6.431  19.316  0.00  0.00    +0.000 A 
ATOM     29  N   UNL     1       7.730   6.887  18.168  0.00  0.00    +0.000 N 
ATOM     30  C   UNL     1       7.699   8.254  17.725  0.00  0.00    +0.000 C 
ENDBRANCH  24  25
ENDBRANCH  23  24
ENDBRANCH   1  23
TORSDOF 5
ENDMDL
MODEL 9
REMARK VINA RESULT:      -8.6      2.087      2.754
REMARK  Name = 
REMARK  7 active torsions:
REMARK  status: ('A' for Active; 'I' for Inactive)
REMARK    1  A    between atoms: C_1  and  C_2
REMARK    2  A    between atoms: C_2  and  C_3
REMARK    3  A    between atoms: C_2  and  C_10
REMARK    4  A    between atoms: C_3  and  C_4
REMARK    5  A    between atoms: N_8  and  C_9
REMARK    6  A    between atoms: C_15  and  N_16
REMARK    7  A    between atoms: C_23  and  C_24
REMARK                            x       y       z     vdW  Elec       q    Type
REMARK                         _______ _______ _______ _____ _____    ______ ____
ROOT
ATOM      1  C   UNL     1       3.375   3.440  19.313  0.00  0.00    +0.000 A 
ATOM      2  C   UNL     1       2.798   2.650  20.311  0.00  0.00    +0.000 A 
ATOM      3  C   UNL     1       1.922   3.221  21.228  0.00  0.00    +0.000 A 
ATOM      4  F   UNL     1       1.369   2.449  22.173  0.00  0.00    +0.000 F 
ATOM      5  C   UNL     1       1.596   4.575  21.181  0.00  0.00    +0.000 A 
ATOM      6  C   UNL     1       2.147   5.393  20.193  0.00  0.00    +0.000 A 
ATOM      7  C   UNL     1       3.044   4.809  19.282  0.00  0.00    +0.000 A 
ENDROOT
BRANCH   6   8
ATOM      8  N   UNL     1       1.820   6.769  20.083  0.00  0.00    +0.000 N 
ATOM      9  C   UNL     1       1.170   7.507  21.161  0.00  0.00    +0.000 C 
ATOM     10  C   UNL     1       1.038   8.890  20.617  0.00  0.00    +0.000 A 
ATOM     11  C   UNL     1       1.571   8.927  19.329  0.00  0.00    +0.000 A 
ATOM     12  C   UNL     1       1.578  10.068  18.552  0.00  0.00    +0.000 A 
ATOM     13  C   UNL     1       1.019  11.220  19.100  0.00  0.00    +0.000 A 
ATOM     14  C   UNL     1       0.485  11.205  20.402  0.00  0.00    +0.000 A 
ATOM     15  C   UNL     1       0.491  10.036  21.188  0.00  0.00    +0.000 A 
ATOM     16  C   UNL     1       2.083   7.597  18.992  0.00  0.00    +0.000 C 
ATOM     17  O   UNL     1       2.616   7.366  17.922  0.00  0.00    +0.000 OA
BRANCH  15  18
ATOM     18  C   UNL     1      -0.071  10.064  22.586  0.00  0.00    +0.000 C 
ATOM     19  F   UNL     1       0.815   9.663  23.539  0.00  0.00    +0.000 F 
ATOM     20  F   UNL     1      -0.475  11.310  22.958  0.00  0.00    +0.000 F 
ATOM     21  F   UNL     1      -1.159   9.258  22.727  0.00  0.00    +0.000 F 
ENDBRANCH  15  18
ENDBRANCH   6   8
BRANCH   1  23
ATOM     22  C   UNL     1       3.851   1.456  17.792  0.00  0.00    +0.000 C 
ATOM     23  C   UNL     1       4.340   2.823  18.304  0.00  0.00    +0.000 C 
BRANCH  23  24
ATOM     24  C   UNL     1       4.612   3.816  17.152  0.00  0.00    +0.000 C 
BRANCH  24  25
ATOM     25  C   UNL     1       5.794   4.691  17.412  0.00  0.00    +0.000 A 
ATOM     26  N   UNL     1       6.755   4.455  18.284  0.00  0.00    +0.000 NA
ATOM     27  N   UNL     1       7.642   5.503  18.243  0.00  0.00    +0.000 NA
ATOM     28  C   UNL     1       7.212   6.352  17.339  0.00  0.00    +0.000 A 
ATOM     29  N   UNL     1       6.061   5.882  16.788  0.00  0.00    +0.000 N 
ATOM     30  C   UNL     1       5.296   6.522  15.753  0.00  0.00    +0.000 C 
ENDBRANCH  24  25
ENDBRANCH  23  24
ENDBRANCH   1  23
TORSDOF 5
ENDMDL
