MODEL 1
REMARK VINA RESULT:      -8.4      0.000      0.000
REMARK  Name = 
REMARK  11 active torsions:
REMARK  status: ('A' for Active; 'I' for Inactive)
REMARK    1  A    between atoms: C_1  and  N_2
REMARK    2  A    between atoms: C_3  and  C_5
REMARK    3  A    between atoms: C_5  and  O_6
REMARK    4  A    between atoms: O_6  and  C_7
REMARK    5  A    between atoms: C_13  and  C_14
REMARK    6  A    between atoms: N_16  and  C_17
REMARK    7  A    between atoms: C_21  and  C_22
REMARK    8  A    between atoms: C_22  and  C_23
REMARK    9  A    between atoms: C_22  and  S_24
REMARK   10  A    between atoms: S_24  and  C_25
REMARK   11  A    between atoms: N_29  and  C_30
REMARK                            x       y       z     vdW  Elec       q    Type
REMARK                         _______ _______ _______ _____ _____    ______ ____
ROOT
ATOM      1  C   UNL     1       1.452   8.755  20.096  0.00  0.00    +0.000 C 
ATOM      2  O   UNL     1       1.353   9.153  21.258  0.00  0.00    +0.000 OA
ATOM      3  N   UNL     1       1.177   9.480  18.950  0.00  0.00    +0.000 N 
ATOM      4  H   UNL     1       1.222   8.957  18.081  0.00  0.00    +0.000 HD
ENDROOT
BRANCH   1  11
ATOM      5  C   UNL     1       4.383   4.163  17.278  0.00  0.00    +0.000 A 
ATOM      6  C   UNL     1       4.073   3.174  18.212  0.00  0.00    +0.000 A 
ATOM      7  C   UNL     1       3.242   3.458  19.301  0.00  0.00    +0.000 A 
ATOM      8  C   UNL     1       2.738   4.758  19.489  0.00  0.00    +0.000 A 
ATOM      9  C   UNL     1       1.921   5.141  20.566  0.00  0.00    +0.000 A 
ATOM     10  N   UNL     1       1.481   6.407  20.798  0.00  0.00    +0.000 NA
ATOM     11  C   UNL     1       1.848   7.334  19.873  0.00  0.00    +0.000 A 
ATOM     12  C   UNL     1       2.615   7.052  18.749  0.00  0.00    +0.000 A 
ATOM     13  C   UNL     1       3.081   5.757  18.560  0.00  0.00    +0.000 A 
ATOM     14  C   UNL     1       3.900   5.456  17.465  0.00  0.00    +0.000 A 
BRANCH   5  15
ATOM     15  O   UNL     1       5.175   3.778  16.233  0.00  0.00    +0.000 OA
BRANCH  15  16
ATOM     16  C   UNL     1       6.383   4.531  16.079  0.00  0.00    +0.000 C 
BRANCH  16  19
ATOM     17  C   UNL     1       6.507   3.565  12.407  0.00  0.00    +0.000 C 
ATOM     18  N   UNL     1       6.225   3.642  13.815  0.00  0.00    +0.000 N 
ATOM     19  C   UNL     1       6.827   4.576  14.620  0.00  0.00    +0.000 C 
ATOM     20  O   UNL     1       7.652   5.392  14.214  0.00  0.00    +0.000 OA
ATOM     21  H   UNL     1       5.554   3.011  14.242  0.00  0.00    +0.000 HD
ENDBRANCH  16  19
ENDBRANCH  15  16
ENDBRANCH   5  15
ENDBRANCH   1  11
BRANCH   3  22
ATOM     22  C   UNL     1       0.764  10.830  18.913  0.00  0.00    +0.000 A 
ATOM     23  C   UNL     1      -0.522  11.224  18.531  0.00  0.00    +0.000 A 
ATOM     24  C   UNL     1      -0.884  12.568  18.518  0.00  0.00    +0.000 A 
ATOM     25  C   UNL     1       0.033  13.544  18.894  0.00  0.00    +0.000 A 
ATOM     26  C   UNL     1       1.334  13.182  19.285  0.00  0.00    +0.000 A 
ATOM     27  C   UNL     1       1.687  11.818  19.283  0.00  0.00    +0.000 A 
BRANCH  26  28
ATOM     28  C   UNL     1       2.313  14.274  19.682  0.00  0.00    +0.000 C 
ATOM     29  C   UNL     1       1.996  14.813  21.082  0.00  0.00    +0.000 C 
BRANCH  28  30
ATOM     30  S   UNL     1       2.316  15.698  18.541  0.00  0.00    +0.000 S 
BRANCH  30  31
ATOM     31  C   UNL     1       3.771  16.518  18.968  0.00  0.00    +0.000 A 
ATOM     32  N   UNL     1       3.900  17.628  19.659  0.00  0.00    +0.000 NA
ATOM     33  N   UNL     1       5.245  17.939  19.696  0.00  0.00    +0.000 NA
ATOM     34  C   UNL     1       5.888  17.010  19.022  0.00  0.00    +0.000 A 
ATOM     35  N   UNL     1       4.999  16.087  18.562  0.00  0.00    +0.000 N 
ATOM     36  C   UNL     1       5.316  14.882  17.844  0.00  0.00    +0.000 C 
ENDBRANCH  30  31
ENDBRANCH  28  30
ENDBRANCH  26  28
ENDBRANCH   3  22
TORSDOF 8
ENDMDL
MODEL 2
REMARK VINA RESULT:      -8.4      3.753      5.615
REMARK  Name = 
REMARK  11 active torsions:
REMARK  status: ('A' for Active; 'I' for Inactive)
REMARK    1  A    between atoms: C_1  and  N_2
REMARK    2  A    between atoms: C_3  and  C_5
REMARK    3  A    between atoms: C_5  and  O_6
REMARK    4  A    between atoms: O_6  and  C_7
REMARK    5  A    between atoms: C_13  and  C_14
REMARK    6  A    between atoms: N_16  and  C_17
REMARK    7  A    between atoms: C_21  and  C_22
REMARK    8  A    between atoms: C_22  and  C_23
REMARK    9  A    between atoms: C_22  and  S_24
REMARK   10  A    between atoms: S_24  and  C_25
REMARK   11  A    between atoms: N_29  and  C_30
REMARK                            x       y       z     vdW  Elec       q    Type
REMARK                         _______ _______ _______ _____ _____    ______ ____
ROOT
ATOM      1  C   UNL     1       1.390   8.379  20.651  0.00  0.00    +0.000 C 
ATOM      2  O   UNL     1       1.353   8.582  21.866  0.00  0.00    +0.000 OA
ATOM      3  N   UNL     1       1.018   9.266  19.655  0.00  0.00    +0.000 N 
ATOM      4  H   UNL     1       1.023   8.891  18.712  0.00  0.00    +0.000 HD
ENDROOT
BRANCH   1  11
ATOM      5  C   UNL     1       4.298   4.423  16.975  0.00  0.00    +0.000 A 
ATOM      6  C   UNL     1       4.068   3.284  17.746  0.00  0.00    +0.000 A 
ATOM      7  C   UNL     1       3.289   3.355  18.906  0.00  0.00    +0.000 A 
ATOM      8  C   UNL     1       2.757   4.586  19.331  0.00  0.00    +0.000 A 
ATOM      9  C   UNL     1       1.988   4.757  20.494  0.00  0.00    +0.000 A 
ATOM     10  N   UNL     1       1.524   5.951  20.953  0.00  0.00    +0.000 NA
ATOM     11  C   UNL     1       1.814   7.029  20.177  0.00  0.00    +0.000 A 
ATOM     12  C   UNL     1       2.528   6.964  18.986  0.00  0.00    +0.000 A 
ATOM     13  C   UNL     1       3.021   5.736  18.564  0.00  0.00    +0.000 A 
ATOM     14  C   UNL     1       3.788   5.649  17.397  0.00  0.00    +0.000 A 
BRANCH   5  15
ATOM     15  O   UNL     1       5.044   4.245  15.844  0.00  0.00    +0.000 OA
BRANCH  15  16
ATOM     16  C   UNL     1       5.826   5.377  15.448  0.00  0.00    +0.000 C 
BRANCH  16  19
ATOM     17  C   UNL     1       7.925   7.384  17.897  0.00  0.00    +0.000 C 
ATOM     18  N   UNL     1       6.960   6.952  16.922  0.00  0.00    +0.000 N 
ATOM     19  C   UNL     1       6.938   5.663  16.452  0.00  0.00    +0.000 C 
ATOM     20  O   UNL     1       7.736   4.797  16.805  0.00  0.00    +0.000 OA
ATOM     21  H   UNL     1       6.257   7.595  16.572  0.00  0.00    +0.000 HD
ENDBRANCH  16  19
ENDBRANCH  15  16
ENDBRANCH   5  15
ENDBRANCH   1  11
BRANCH   3  22
ATOM     22  C   UNL     1       0.561  10.586  19.862  0.00  0.00    +0.000 A 
ATOM     23  C   UNL     1       1.360  11.713  19.647  0.00  0.00    +0.000 A 
ATOM     24  C   UNL     1       0.861  12.995  19.858  0.00  0.00    +0.000 A 
ATOM     25  C   UNL     1      -0.451  13.174  20.283  0.00  0.00    +0.000 A 
ATOM     26  C   UNL     1      -1.283  12.063  20.507  0.00  0.00    +0.000 A 
ATOM     27  C   UNL     1      -0.759  10.772  20.298  0.00  0.00    +0.000 A 
BRANCH  26  28
ATOM     28  C   UNL     1      -2.709  12.295  20.978  0.00  0.00    +0.000 C 
ATOM     29  C   UNL     1      -3.633  12.610  19.795  0.00  0.00    +0.000 C 
BRANCH  28  30
ATOM     30  S   UNL     1      -2.867  13.667  22.170  0.00  0.00    +0.000 S 
BRANCH  30  31
ATOM     31  C   UNL     1      -4.113  13.108  23.221  0.00  0.00    +0.000 A 
ATOM     32  N   UNL     1      -4.041  12.161  24.129  0.00  0.00    +0.000 NA
ATOM     33  N   UNL     1      -5.300  12.017  24.678  0.00  0.00    +0.000 NA
ATOM     34  C   UNL     1      -6.096  12.877  24.082  0.00  0.00    +0.000 A 
ATOM     35  N   UNL     1      -5.386  13.596  23.170  0.00  0.00    +0.000 N 
ATOM     36  C   UNL     1      -5.881  14.681  22.367  0.00  0.00    +0.000 C 
ENDBRANCH  30  31
ENDBRANCH  28  30
ENDBRANCH  26  28
ENDBRANCH   3  22
TORSDOF 8
ENDMDL
MODEL 3
REMARK VINA RESULT:      -8.4      1.688      2.197
REMARK  Name = 
REMARK  11 active torsions:
REMARK  status: ('A' for Active; 'I' for Inactive)
REMARK    1  A    between atoms: C_1  and  N_2
REMARK    2  A    between atoms: C_3  and  C_5
REMARK    3  A    between atoms: C_5  and  O_6
REMARK    4  A    between atoms: O_6  and  C_7
REMARK    5  A    between atoms: C_13  and  C_14
REMARK    6  A    between atoms: N_16  and  C_17
REMARK    7  A    between atoms: C_21  and  C_22
REMARK    8  A    between atoms: C_22  and  C_23
REMARK    9  A    between atoms: C_22  and  S_24
REMARK   10  A    between atoms: S_24  and  C_25
REMARK   11  A    between atoms: N_29  and  C_30
REMARK                            x       y       z     vdW  Elec       q    Type
REMARK                         _______ _______ _______ _____ _____    ______ ____
ROOT
ATOM      1  C   UNL     1       1.656   8.420  19.407  0.00  0.00    +0.000 C 
ATOM      2  O   UNL     1       1.223   8.417  20.561  0.00  0.00    +0.000 OA
ATOM      3  N   UNL     1       1.341   9.328  18.411  0.00  0.00    +0.000 N 
ATOM      4  H   UNL     1       1.718   9.117  17.492  0.00  0.00    +0.000 HD
ENDROOT
BRANCH   1  11
ATOM      5  C   UNL     1       5.798   5.642  15.838  0.00  0.00    +0.000 A 
ATOM      6  C   UNL     1       6.050   4.564  16.687  0.00  0.00    +0.000 A 
ATOM      7  C   UNL     1       5.331   4.414  17.878  0.00  0.00    +0.000 A 
ATOM      8  C   UNL     1       4.369   5.370  18.253  0.00  0.00    +0.000 A 
ATOM      9  C   UNL     1       3.621   5.315  19.441  0.00  0.00    +0.000 A 
ATOM     10  N   UNL     1       2.737   6.265  19.849  0.00  0.00    +0.000 NA
ATOM     11  C   UNL     1       2.564   7.310  18.995  0.00  0.00    +0.000 A 
ATOM     12  C   UNL     1       3.220   7.438  17.776  0.00  0.00    +0.000 A 
ATOM     13  C   UNL     1       4.145   6.470  17.406  0.00  0.00    +0.000 A 
ATOM     14  C   UNL     1       4.858   6.601  16.209  0.00  0.00    +0.000 A 
BRANCH   5  15
ATOM     15  O   UNL     1       6.529   5.682  14.684  0.00  0.00    +0.000 OA
BRANCH  15  16
ATOM     16  C   UNL     1       7.185   4.458  14.337  0.00  0.00    +0.000 C 
BRANCH  16  19
ATOM     17  C   UNL     1       5.475   2.494  11.572  0.00  0.00    +0.000 C 
ATOM     18  N   UNL     1       5.931   3.003  12.837  0.00  0.00    +0.000 N 
ATOM     19  C   UNL     1       6.843   4.026  12.915  0.00  0.00    +0.000 C 
ATOM     20  O   UNL     1       7.345   4.565  11.931  0.00  0.00    +0.000 OA
ATOM     21  H   UNL     1       5.570   2.624  13.707  0.00  0.00    +0.000 HD
ENDBRANCH  16  19
ENDBRANCH  15  16
ENDBRANCH   5  15
ENDBRANCH   1  11
BRANCH   3  22
ATOM     22  C   UNL     1       0.487  10.442  18.557  0.00  0.00    +0.000 A 
ATOM     23  C   UNL     1      -0.898  10.371  18.381  0.00  0.00    +0.000 A 
ATOM     24  C   UNL     1      -1.699  11.498  18.543  0.00  0.00    +0.000 A 
ATOM     25  C   UNL     1      -1.129  12.717  18.894  0.00  0.00    +0.000 A 
ATOM     26  C   UNL     1       0.261  12.825  19.080  0.00  0.00    +0.000 A 
ATOM     27  C   UNL     1       1.058  11.676  18.902  0.00  0.00    +0.000 A 
BRANCH  26  28
ATOM     28  C   UNL     1       0.851  14.173  19.455  0.00  0.00    +0.000 C 
ATOM     29  C   UNL     1       0.038  15.319  18.840  0.00  0.00    +0.000 C 
BRANCH  28  30
ATOM     30  S   UNL     1       2.581  14.384  18.914  0.00  0.00    +0.000 S 
BRANCH  30  31
ATOM     31  C   UNL     1       3.448  14.326  20.403  0.00  0.00    +0.000 A 
ATOM     32  N   UNL     1       3.101  13.721  21.517  0.00  0.00    +0.000 NA
ATOM     33  N   UNL     1       4.071  14.001  22.459  0.00  0.00    +0.000 NA
ATOM     34  C   UNL     1       4.972  14.770  21.889  0.00  0.00    +0.000 A 
ATOM     35  N   UNL     1       4.627  14.984  20.589  0.00  0.00    +0.000 N 
ATOM     36  C   UNL     1       5.392  15.713  19.613  0.00  0.00    +0.000 C 
ENDBRANCH  30  31
ENDBRANCH  28  30
ENDBRANCH  26  28
ENDBRANCH   3  22
TORSDOF 8
ENDMDL
MODEL 4
REMARK VINA RESULT:      -8.3      3.411      5.076
REMARK  Name = 
REMARK  11 active torsions:
REMARK  status: ('A' for Active; 'I' for Inactive)
REMARK    1  A    between atoms: C_1  and  N_2
REMARK    2  A    between atoms: C_3  and  C_5
REMARK    3  A    between atoms: C_5  and  O_6
REMARK    4  A    between atoms: O_6  and  C_7
REMARK    5  A    between atoms: C_13  and  C_14
REMARK    6  A    between atoms: N_16  and  C_17
REMARK    7  A    between atoms: C_21  and  C_22
REMARK    8  A    between atoms: C_22  and  C_23
REMARK    9  A    between atoms: C_22  and  S_24
REMARK   10  A    between atoms: S_24  and  C_25
REMARK   11  A    between atoms: N_29  and  C_30
REMARK                            x       y       z     vdW  Elec       q    Type
REMARK                         _______ _______ _______ _____ _____    ______ ____
ROOT
ATOM      1  C   UNL     1       1.218   8.685  20.400  0.00  0.00    +0.000 C 
ATOM      2  O   UNL     1       0.914   8.942  21.566  0.00  0.00    +0.000 OA
ATOM      3  N   UNL     1       0.975   9.476  19.290  0.00  0.00    +0.000 N 
ATOM      4  H   UNL     1       1.209   9.058  18.396  0.00  0.00    +0.000 HD
ENDROOT
BRANCH   1  11
ATOM      5  C   UNL     1       5.232   4.901  17.719  0.00  0.00    +0.000 A 
ATOM      6  C   UNL     1       4.933   3.775  18.486  0.00  0.00    +0.000 A 
ATOM      7  C   UNL     1       3.905   3.813  19.434  0.00  0.00    +0.000 A 
ATOM      8  C   UNL     1       3.183   5.000  19.653  0.00  0.00    +0.000 A 
ATOM      9  C   UNL     1       2.156   5.137  20.601  0.00  0.00    +0.000 A 
ATOM     10  N   UNL     1       1.495   6.295  20.871  0.00  0.00    +0.000 NA
ATOM     11  C   UNL     1       1.858   7.367  20.116  0.00  0.00    +0.000 A 
ATOM     12  C   UNL     1       2.829   7.328  19.122  0.00  0.00    +0.000 A 
ATOM     13  C   UNL     1       3.513   6.139  18.897  0.00  0.00    +0.000 A 
ATOM     14  C   UNL     1       4.532   6.085  17.939  0.00  0.00    +0.000 A 
BRANCH   5  15
ATOM     15  O   UNL     1       6.230   4.755  16.797  0.00  0.00    +0.000 OA
BRANCH  15  16
ATOM     16  C   UNL     1       5.956   3.819  15.749  0.00  0.00    +0.000 C 
BRANCH  16  19
ATOM     17  C   UNL     1       6.796   3.753  12.045  0.00  0.00    +0.000 C 
ATOM     18  N   UNL     1       6.266   3.486  13.354  0.00  0.00    +0.000 N 
ATOM     19  C   UNL     1       6.644   4.222  14.448  0.00  0.00    +0.000 C 
ATOM     20  O   UNL     1       7.462   5.139  14.401  0.00  0.00    +0.000 OA
ATOM     21  H   UNL     1       5.580   2.750  13.494  0.00  0.00    +0.000 HD
ENDBRANCH  16  19
ENDBRANCH  15  16
ENDBRANCH   5  15
ENDBRANCH   1  11
BRANCH   3  22
ATOM     22  C   UNL     1       0.361  10.747  19.308  0.00  0.00    +0.000 A 
ATOM     23  C   UNL     1       1.040  11.927  18.989  0.00  0.00    +0.000 A 
ATOM     24  C   UNL     1       0.388  13.157  19.015  0.00  0.00    +0.000 A 
ATOM     25  C   UNL     1      -0.959  13.228  19.354  0.00  0.00    +0.000 A 
ATOM     26  C   UNL     1      -1.672  12.061  19.679  0.00  0.00    +0.000 A 
ATOM     27  C   UNL     1      -0.994  10.826  19.658  0.00  0.00    +0.000 A 
BRANCH  26  28
ATOM     28  C   UNL     1      -3.140  12.176  20.053  0.00  0.00    +0.000 C 
ATOM     29  C   UNL     1      -4.030  12.123  18.805  0.00  0.00    +0.000 C 
BRANCH  28  30
ATOM     30  S   UNL     1      -3.545  13.717  20.943  0.00  0.00    +0.000 S 
BRANCH  30  31
ATOM     31  C   UNL     1      -4.115  13.134  22.461  0.00  0.00    +0.000 A 
ATOM     32  N   UNL     1      -5.253  12.531  22.720  0.00  0.00    +0.000 NA
ATOM     33  N   UNL     1      -5.303  12.305  24.081  0.00  0.00    +0.000 NA
ATOM     34  C   UNL     1      -4.195  12.783  24.605  0.00  0.00    +0.000 A 
ATOM     35  N   UNL     1      -3.412  13.298  23.618  0.00  0.00    +0.000 N 
ATOM     36  C   UNL     1      -2.093  13.847  23.776  0.00  0.00    +0.000 C 
ENDBRANCH  30  31
ENDBRANCH  28  30
ENDBRANCH  26  28
ENDBRANCH   3  22
TORSDOF 8
ENDMDL
MODEL 5
REMARK VINA RESULT:      -8.2      3.617      4.324
REMARK  Name = 
REMARK  11 active torsions:
REMARK  status: ('A' for Active; 'I' for Inactive)
REMARK    1  A    between atoms: C_1  and  N_2
REMARK    2  A    between atoms: C_3  and  C_5
REMARK    3  A    between atoms: C_5  and  O_6
REMARK    4  A    between atoms: O_6  and  C_7
REMARK    5  A    between atoms: C_13  and  C_14
REMARK    6  A    between atoms: N_16  and  C_17
REMARK    7  A    between atoms: C_21  and  C_22
REMARK    8  A    between atoms: C_22  and  C_23
REMARK    9  A    between atoms: C_22  and  S_24
REMARK   10  A    between atoms: S_24  and  C_25
REMARK   11  A    between atoms: N_29  and  C_30
REMARK                            x       y       z     vdW  Elec       q    Type
REMARK                         _______ _______ _______ _____ _____    ______ ____
ROOT
ATOM      1  C   UNL     1       1.524   9.149  18.856  0.00  0.00    +0.000 C 
ATOM      2  O   UNL     1       2.067   9.967  18.111  0.00  0.00    +0.000 OA
ATOM      3  N   UNL     1       0.413   9.370  19.653  0.00  0.00    +0.000 N 
ATOM      4  H   UNL     1       0.165   8.608  20.276  0.00  0.00    +0.000 HD
ENDROOT
BRANCH   1  11
ATOM      5  C   UNL     1       5.245   4.549  17.240  0.00  0.00    +0.000 A 
ATOM      6  C   UNL     1       5.044   3.768  18.378  0.00  0.00    +0.000 A 
ATOM      7  C   UNL     1       4.128   4.164  19.360  0.00  0.00    +0.000 A 
ATOM      8  C   UNL     1       3.425   5.375  19.229  0.00  0.00    +0.000 A 
ATOM      9  C   UNL     1       2.509   5.864  20.175  0.00  0.00    +0.000 A 
ATOM     10  N   UNL     1       1.872   7.064  20.096  0.00  0.00    +0.000 NA
ATOM     11  C   UNL     1       2.139   7.796  18.981  0.00  0.00    +0.000 A 
ATOM     12  C   UNL     1       2.993   7.385  17.964  0.00  0.00    +0.000 A 
ATOM     13  C   UNL     1       3.657   6.172  18.093  0.00  0.00    +0.000 A 
ATOM     14  C   UNL     1       4.564   5.758  17.110  0.00  0.00    +0.000 A 
BRANCH   5  15
ATOM     15  O   UNL     1       6.135   4.062  16.325  0.00  0.00    +0.000 OA
BRANCH  15  16
ATOM     16  C   UNL     1       6.987   5.044  15.725  0.00  0.00    +0.000 C 
BRANCH  16  19
ATOM     17  C   UNL     1       6.359   3.449  12.335  0.00  0.00    +0.000 C 
ATOM     18  N   UNL     1       6.368   3.782  13.733  0.00  0.00    +0.000 N 
ATOM     19  C   UNL     1       7.127   4.815  14.223  0.00  0.00    +0.000 C 
ATOM     20  O   UNL     1       7.859   5.512  13.523  0.00  0.00    +0.000 OA
ATOM     21  H   UNL     1       5.792   3.265  14.391  0.00  0.00    +0.000 HD
ENDBRANCH  16  19
ENDBRANCH  15  16
ENDBRANCH   5  15
ENDBRANCH   1  11
BRANCH   3  22
ATOM     22  C   UNL     1      -0.320  10.574  19.722  0.00  0.00    +0.000 A 
ATOM     23  C   UNL     1      -0.862  11.204  18.598  0.00  0.00    +0.000 A 
ATOM     24  C   UNL     1      -1.584  12.388  18.719  0.00  0.00    +0.000 A 
ATOM     25  C   UNL     1      -1.783  12.961  19.971  0.00  0.00    +0.000 A 
ATOM     26  C   UNL     1      -1.254  12.354  21.123  0.00  0.00    +0.000 A 
ATOM     27  C   UNL     1      -0.517  11.160  20.981  0.00  0.00    +0.000 A 
BRANCH  26  28
ATOM     28  C   UNL     1      -1.484  13.011  22.473  0.00  0.00    +0.000 C 
ATOM     29  C   UNL     1      -2.646  12.343  23.217  0.00  0.00    +0.000 C 
BRANCH  28  30
ATOM     30  S   UNL     1      -1.865  14.792  22.358  0.00  0.00    +0.000 S 
BRANCH  30  31
ATOM     31  C   UNL     1      -1.389  15.376  23.909  0.00  0.00    +0.000 A 
ATOM     32  N   UNL     1      -0.171  15.586  24.355  0.00  0.00    +0.000 NA
ATOM     33  N   UNL     1      -0.276  15.992  25.671  0.00  0.00    +0.000 NA
ATOM     34  C   UNL     1      -1.554  16.011  25.982  0.00  0.00    +0.000 A 
ATOM     35  N   UNL     1      -2.290  15.647  24.896  0.00  0.00    +0.000 N 
ATOM     36  C   UNL     1      -3.725  15.614  24.811  0.00  0.00    +0.000 C 
ENDBRANCH  30  31
ENDBRANCH  28  30
ENDBRANCH  26  28
ENDBRANCH   3  22
TORSDOF 8
ENDMDL
MODEL 6
REMARK VINA RESULT:      -8.2      4.156      5.130
REMARK  Name = 
REMARK  11 active torsions:
REMARK  status: ('A' for Active; 'I' for Inactive)
REMARK    1  A    between atoms: C_1  and  N_2
REMARK    2  A    between atoms: C_3  and  C_5
REMARK    3  A    between atoms: C_5  and  O_6
REMARK    4  A    between atoms: O_6  and  C_7
REMARK    5  A    between atoms: C_13  and  C_14
REMARK    6  A    between atoms: N_16  and  C_17
REMARK    7  A    between atoms: C_21  and  C_22
REMARK    8  A    between atoms: C_22  and  C_23
REMARK    9  A    between atoms: C_22  and  S_24
REMARK   10  A    between atoms: S_24  and  C_25
REMARK   11  A    between atoms: N_29  and  C_30
REMARK                            x       y       z     vdW  Elec       q    Type
REMARK                         _______ _______ _______ _____ _____    ______ ____
ROOT
ATOM      1  C   UNL     1       1.469   8.618  19.436  0.00  0.00    +0.000 C 
ATOM      2  O   UNL     1       1.219   9.432  18.545  0.00  0.00    +0.000 OA
ATOM      3  N   UNL     1       1.050   8.682  20.754  0.00  0.00    +0.000 N 
ATOM      4  H   UNL     1       1.435   7.973  21.370  0.00  0.00    +0.000 HD
ENDROOT
BRANCH   1  11
ATOM      5  C   UNL     1       6.154   5.830  16.625  0.00  0.00    +0.000 A 
ATOM      6  C   UNL     1       6.097   4.641  17.352  0.00  0.00    +0.000 A 
ATOM      7  C   UNL     1       5.090   4.435  18.302  0.00  0.00    +0.000 A 
ATOM      8  C   UNL     1       4.142   5.441  18.562  0.00  0.00    +0.000 A 
ATOM      9  C   UNL     1       3.114   5.333  19.514  0.00  0.00    +0.000 A 
ATOM     10  N   UNL     1       2.232   6.321  19.824  0.00  0.00    +0.000 NA
ATOM     11  C   UNL     1       2.364   7.470  19.106  0.00  0.00    +0.000 A 
ATOM     12  C   UNL     1       3.315   7.664  18.112  0.00  0.00    +0.000 A 
ATOM     13  C   UNL     1       4.226   6.649  17.846  0.00  0.00    +0.000 A 
ATOM     14  C   UNL     1       5.228   6.838  16.887  0.00  0.00    +0.000 A 
BRANCH   5  15
ATOM     15  O   UNL     1       7.154   5.923  15.699  0.00  0.00    +0.000 OA
BRANCH  15  16
ATOM     16  C   UNL     1       7.591   4.674  15.150  0.00  0.00    +0.000 C 
BRANCH  16  19
ATOM     17  C   UNL     1       5.780   3.304  12.105  0.00  0.00    +0.000 C 
ATOM     18  N   UNL     1       6.285   3.546  13.429  0.00  0.00    +0.000 N 
ATOM     19  C   UNL     1       7.193   4.543  13.683  0.00  0.00    +0.000 C 
ATOM     20  O   UNL     1       7.652   5.281  12.815  0.00  0.00    +0.000 OA
ATOM     21  H   UNL     1       5.961   2.990  14.215  0.00  0.00    +0.000 HD
ENDBRANCH  16  19
ENDBRANCH  15  16
ENDBRANCH   5  15
ENDBRANCH   1  11
BRANCH   3  22
ATOM     22  C   UNL     1       0.222   9.685  21.303  0.00  0.00    +0.000 A 
ATOM     23  C   UNL     1      -0.051   9.786  22.670  0.00  0.00    +0.000 A 
ATOM     24  C   UNL     1      -0.869  10.799  23.164  0.00  0.00    +0.000 A 
ATOM     25  C   UNL     1      -1.423  11.736  22.298  0.00  0.00    +0.000 A 
ATOM     26  C   UNL     1      -1.167  11.666  20.917  0.00  0.00    +0.000 A 
ATOM     27  C   UNL     1      -0.345  10.628  20.433  0.00  0.00    +0.000 A 
BRANCH  26  28
ATOM     28  C   UNL     1      -1.795  12.701  19.999  0.00  0.00    +0.000 C 
ATOM     29  C   UNL     1      -1.802  14.085  20.657  0.00  0.00    +0.000 C 
BRANCH  28  30
ATOM     30  S   UNL     1      -3.516  12.311  19.534  0.00  0.00    +0.000 S 
BRANCH  30  31
ATOM     31  C   UNL     1      -3.330  11.601  17.975  0.00  0.00    +0.000 A 
ATOM     32  N   UNL     1      -2.261  11.030  17.469  0.00  0.00    +0.000 NA
ATOM     33  N   UNL     1      -2.560  10.666  16.170  0.00  0.00    +0.000 NA
ATOM     34  C   UNL     1      -3.799  11.034  15.929  0.00  0.00    +0.000 A 
ATOM     35  N   UNL     1      -4.326  11.610  17.044  0.00  0.00    +0.000 N 
ATOM     36  C   UNL     1      -5.677  12.077  17.204  0.00  0.00    +0.000 C 
ENDBRANCH  30  31
ENDBRANCH  28  30
ENDBRANCH  26  28
ENDBRANCH   3  22
TORSDOF 8
ENDMDL
MODEL 7
REMARK VINA RESULT:      -8.2      1.396      1.729
REMARK  Name = 
REMARK  11 active torsions:
REMARK  status: ('A' for Active; 'I' for Inactive)
REMARK    1  A    between atoms: C_1  and  N_2
REMARK    2  A    between atoms: C_3  and  C_5
REMARK    3  A    between atoms: C_5  and  O_6
REMARK    4  A    between atoms: O_6  and  C_7
REMARK    5  A    between atoms: C_13  and  C_14
REMARK    6  A    between atoms: N_16  and  C_17
REMARK    7  A    between atoms: C_21  and  C_22
REMARK    8  A    between atoms: C_22  and  C_23
REMARK    9  A    between atoms: C_22  and  S_24
REMARK   10  A    between atoms: S_24  and  C_25
REMARK   11  A    between atoms: N_29  and  C_30
REMARK                            x       y       z     vdW  Elec       q    Type
REMARK                         _______ _______ _______ _____ _____    ______ ____
ROOT
ATOM      1  C   UNL     1       1.697   9.357  18.602  0.00  0.00    +0.000 C 
ATOM      2  O   UNL     1       1.956   9.908  17.530  0.00  0.00    +0.000 OA
ATOM      3  N   UNL     1       1.038   9.921  19.681  0.00  0.00    +0.000 N 
ATOM      4  H   UNL     1       1.001   9.348  20.518  0.00  0.00    +0.000 HD
ENDROOT
BRANCH   1  11
ATOM      5  C   UNL     1       5.010   4.360  17.310  0.00  0.00    +0.000 A 
ATOM      6  C   UNL     1       4.720   3.663  18.483  0.00  0.00    +0.000 A 
ATOM      7  C   UNL     1       3.829   4.192  19.423  0.00  0.00    +0.000 A 
ATOM      8  C   UNL     1       3.241   5.453  19.214  0.00  0.00    +0.000 A 
ATOM      9  C   UNL     1       2.358   6.073  20.113  0.00  0.00    +0.000 A 
ATOM     10  N   UNL     1       1.834   7.319  19.957  0.00  0.00    +0.000 NA
ATOM     11  C   UNL     1       2.185   7.962  18.810  0.00  0.00    +0.000 A 
ATOM     12  C   UNL     1       3.014   7.422  17.835  0.00  0.00    +0.000 A 
ATOM     13  C   UNL     1       3.563   6.162  18.043  0.00  0.00    +0.000 A 
ATOM     14  C   UNL     1       4.444   5.615  17.102  0.00  0.00    +0.000 A 
BRANCH   5  15
ATOM     15  O   UNL     1       5.867   3.745  16.441  0.00  0.00    +0.000 OA
BRANCH  15  16
ATOM     16  C   UNL     1       6.973   4.546  16.011  0.00  0.00    +0.000 C 
BRANCH  16  19
ATOM     17  C   UNL     1       6.304   3.540  12.410  0.00  0.00    +0.000 C 
ATOM     18  N   UNL     1       6.352   3.619  13.844  0.00  0.00    +0.000 N 
ATOM     19  C   UNL     1       7.064   4.599  14.489  0.00  0.00    +0.000 C 
ATOM     20  O   UNL     1       7.719   5.459  13.904  0.00  0.00    +0.000 OA
ATOM     21  H   UNL     1       5.838   2.954  14.415  0.00  0.00    +0.000 HD
ENDBRANCH  16  19
ENDBRANCH  15  16
ENDBRANCH   5  15
ENDBRANCH   1  11
BRANCH   3  22
ATOM     22  C   UNL     1       0.510  11.229  19.726  0.00  0.00    +0.000 A 
ATOM     23  C   UNL     1      -0.632  11.617  19.019  0.00  0.00    +0.000 A 
ATOM     24  C   UNL     1      -1.118  12.918  19.102  0.00  0.00    +0.000 A 
ATOM     25  C   UNL     1      -0.474  13.856  19.901  0.00  0.00    +0.000 A 
ATOM     26  C   UNL     1       0.676  13.501  20.627  0.00  0.00    +0.000 A 
ATOM     27  C   UNL     1       1.161  12.181  20.524  0.00  0.00    +0.000 A 
BRANCH  26  28
ATOM     28  C   UNL     1       1.360  14.553  21.484  0.00  0.00    +0.000 C 
ATOM     29  C   UNL     1       0.859  15.958  21.133  0.00  0.00    +0.000 C 
BRANCH  28  30
ATOM     30  S   UNL     1       3.177  14.565  21.308  0.00  0.00    +0.000 S 
BRANCH  30  31
ATOM     31  C   UNL     1       3.393  15.165  19.707  0.00  0.00    +0.000 A 
ATOM     32  N   UNL     1       3.152  14.548  18.573  0.00  0.00    +0.000 NA
ATOM     33  N   UNL     1       3.536  15.394  17.551  0.00  0.00    +0.000 NA
ATOM     34  C   UNL     1       4.002  16.495  18.099  0.00  0.00    +0.000 A 
ATOM     35  N   UNL     1       3.915  16.399  19.454  0.00  0.00    +0.000 N 
ATOM     36  C   UNL     1       4.255  17.423  20.405  0.00  0.00    +0.000 C 
ENDBRANCH  30  31
ENDBRANCH  28  30
ENDBRANCH  26  28
ENDBRANCH   3  22
TORSDOF 8
ENDMDL
MODEL 8
REMARK VINA RESULT:      -8.1      1.380      1.422
REMARK  Name = 
REMARK  11 active torsions:
REMARK  status: ('A' for Active; 'I' for Inactive)
REMARK    1  A    between atoms: C_1  and  N_2
REMARK    2  A    between atoms: C_3  and  C_5
REMARK    3  A    between atoms: C_5  and  O_6
REMARK    4  A    between atoms: O_6  and  C_7
REMARK    5  A    between atoms: C_13  and  C_14
REMARK    6  A    between atoms: N_16  and  C_17
REMARK    7  A    between atoms: C_21  and  C_22
REMARK    8  A    between atoms: C_22  and  C_23
REMARK    9  A    between atoms: C_22  and  S_24
REMARK   10  A    between atoms: S_24  and  C_25
REMARK   11  A    between atoms: N_29  and  C_30
REMARK                            x       y       z     vdW  Elec       q    Type
REMARK                         _______ _______ _______ _____ _____    ______ ____
ROOT
ATOM      1  C   UNL     1       1.656   9.436  18.511  0.00  0.00    +0.000 C 
ATOM      2  O   UNL     1       1.911   9.956  17.424  0.00  0.00    +0.000 OA
ATOM      3  N   UNL     1       0.984  10.023  19.569  0.00  0.00    +0.000 N 
ATOM      4  H   UNL     1       0.952   9.476  20.424  0.00  0.00    +0.000 HD
ENDROOT
BRANCH   1  11
ATOM      5  C   UNL     1       4.926   4.389  17.301  0.00  0.00    +0.000 A 
ATOM      6  C   UNL     1       4.707   3.755  18.524  0.00  0.00    +0.000 A 
ATOM      7  C   UNL     1       3.866   4.330  19.483  0.00  0.00    +0.000 A 
ATOM      8  C   UNL     1       3.259   5.576  19.241  0.00  0.00    +0.000 A 
ATOM      9  C   UNL     1       2.423   6.239  20.155  0.00  0.00    +0.000 A 
ATOM     10  N   UNL     1       1.883   7.473  19.962  0.00  0.00    +0.000 NA
ATOM     11  C   UNL     1       2.165   8.056  18.766  0.00  0.00    +0.000 A 
ATOM     12  C   UNL     1       2.942   7.467  17.775  0.00  0.00    +0.000 A 
ATOM     13  C   UNL     1       3.510   6.223  18.018  0.00  0.00    +0.000 A 
ATOM     14  C   UNL     1       4.340   5.630  17.059  0.00  0.00    +0.000 A 
BRANCH   5  15
ATOM     15  O   UNL     1       5.737   3.733  16.418  0.00  0.00    +0.000 OA
BRANCH  15  16
ATOM     16  C   UNL     1       6.920   4.443  16.037  0.00  0.00    +0.000 C 
BRANCH  16  19
ATOM     17  C   UNL     1       6.349   3.561  12.387  0.00  0.00    +0.000 C 
ATOM     18  N   UNL     1       6.370   3.582  13.825  0.00  0.00    +0.000 N 
ATOM     19  C   UNL     1       7.034   4.561  14.521  0.00  0.00    +0.000 C 
ATOM     20  O   UNL     1       7.667   5.467  13.983  0.00  0.00    +0.000 OA
ATOM     21  H   UNL     1       5.872   2.877  14.359  0.00  0.00    +0.000 HD
ENDBRANCH  16  19
ENDBRANCH  15  16
ENDBRANCH   5  15
ENDBRANCH   1  11
BRANCH   3  22
ATOM     22  C   UNL     1       0.436  11.324  19.571  0.00  0.00    +0.000 A 
ATOM     23  C   UNL     1      -0.934  11.575  19.692  0.00  0.00    +0.000 A 
ATOM     24  C   UNL     1      -1.426  12.877  19.695  0.00  0.00    +0.000 A 
ATOM     25  C   UNL     1      -0.553  13.954  19.587  0.00  0.00    +0.000 A 
ATOM     26  C   UNL     1       0.830  13.739  19.466  0.00  0.00    +0.000 A 
ATOM     27  C   UNL     1       1.310  12.414  19.454  0.00  0.00    +0.000 A 
BRANCH  26  28
ATOM     28  C   UNL     1       1.754  14.938  19.342  0.00  0.00    +0.000 C 
ATOM     29  C   UNL     1       1.026  16.129  18.708  0.00  0.00    +0.000 C 
BRANCH  28  30
ATOM     30  S   UNL     1       3.239  14.611  18.332  0.00  0.00    +0.000 S 
BRANCH  30  31
ATOM     31  C   UNL     1       4.517  15.129  19.366  0.00  0.00    +0.000 A 
ATOM     32  N   UNL     1       4.422  15.661  20.563  0.00  0.00    +0.000 NA
ATOM     33  N   UNL     1       5.701  15.975  20.980  0.00  0.00    +0.000 NA
ATOM     34  C   UNL     1       6.530  15.627  20.020  0.00  0.00    +0.000 A 
ATOM     35  N   UNL     1       5.827  15.074  18.993  0.00  0.00    +0.000 N 
ATOM     36  C   UNL     1       6.377  14.505  17.792  0.00  0.00    +0.000 C 
ENDBRANCH  30  31
ENDBRANCH  28  30
ENDBRANCH  26  28
ENDBRANCH   3  22
TORSDOF 8
ENDMDL
MODEL 9
REMARK VINA RESULT:      -8.1      1.925      2.620
REMARK  Name = 
REMARK  11 active torsions:
REMARK  status: ('A' for Active; 'I' for Inactive)
REMARK    1  A    between atoms: C_1  and  N_2
REMARK    2  A    between atoms: C_3  and  C_5
REMARK    3  A    between atoms: C_5  and  O_6
REMARK    4  A    between atoms: O_6  and  C_7
REMARK    5  A    between atoms: C_13  and  C_14
REMARK    6  A    between atoms: N_16  and  C_17
REMARK    7  A    between atoms: C_21  and  C_22
REMARK    8  A    between atoms: C_22  and  C_23
REMARK    9  A    between atoms: C_22  and  S_24
REMARK   10  A    between atoms: S_24  and  C_25
REMARK   11  A    between atoms: N_29  and  C_30
REMARK                            x       y       z     vdW  Elec       q    Type
REMARK                         _______ _______ _______ _____ _____    ______ ____
ROOT
ATOM      1  C   UNL     1       1.833   8.282  19.519  0.00  0.00    +0.000 C 
ATOM      2  O   UNL     1       1.550   8.287  20.718  0.00  0.00    +0.000 OA
ATOM      3  N   UNL     1       1.454   9.226  18.579  0.00  0.00    +0.000 N 
ATOM      4  H   UNL     1       1.697   9.007  17.618  0.00  0.00    +0.000 HD
ENDROOT
BRANCH   1  11
ATOM      5  C   UNL     1       5.681   5.449  15.674  0.00  0.00    +0.000 A 
ATOM      6  C   UNL     1       5.778   4.255  16.390  0.00  0.00    +0.000 A 
ATOM      7  C   UNL     1       5.019   4.057  17.548  0.00  0.00    +0.000 A 
ATOM      8  C   UNL     1       4.175   5.074  18.028  0.00  0.00    +0.000 A 
ATOM      9  C   UNL     1       3.398   4.974  19.194  0.00  0.00    +0.000 A 
ATOM     10  N   UNL     1       2.629   5.972  19.707  0.00  0.00    +0.000 NA
ATOM     11  C   UNL     1       2.606   7.124  18.983  0.00  0.00    +0.000 A 
ATOM     12  C   UNL     1       3.300   7.312  17.794  0.00  0.00    +0.000 A 
ATOM     13  C   UNL     1       4.107   6.286  17.317  0.00  0.00    +0.000 A 
ATOM     14  C   UNL     1       4.858   6.468  16.150  0.00  0.00    +0.000 A 
BRANCH   5  15
ATOM     15  O   UNL     1       6.437   5.534  14.539  0.00  0.00    +0.000 OA
BRANCH  15  16
ATOM     16  C   UNL     1       6.952   4.288  14.058  0.00  0.00    +0.000 C 
BRANCH  16  19
ATOM     17  C   UNL     1       5.810   1.916  11.320  0.00  0.00    +0.000 C 
ATOM     18  N   UNL     1       6.570   2.646  12.299  0.00  0.00    +0.000 N 
ATOM     19  C   UNL     1       6.006   3.647  13.048  0.00  0.00    +0.000 C 
ATOM     20  O   UNL     1       4.835   4.005  12.934  0.00  0.00    +0.000 OA
ATOM     21  H   UNL     1       7.545   2.420  12.468  0.00  0.00    +0.000 HD
ENDBRANCH  16  19
ENDBRANCH  15  16
ENDBRANCH   5  15
ENDBRANCH   1  11
BRANCH   3  22
ATOM     22  C   UNL     1       0.701  10.390  18.844  0.00  0.00    +0.000 A 
ATOM     23  C   UNL     1      -0.690  10.385  18.978  0.00  0.00    +0.000 A 
ATOM     24  C   UNL     1      -1.388  11.560  19.246  0.00  0.00    +0.000 A 
ATOM     25  C   UNL     1      -0.704  12.762  19.394  0.00  0.00    +0.000 A 
ATOM     26  C   UNL     1       0.695  12.803  19.268  0.00  0.00    +0.000 A 
ATOM     27  C   UNL     1       1.385  11.607  18.986  0.00  0.00    +0.000 A 
BRANCH  26  28
ATOM     28  C   UNL     1       1.410  14.134  19.427  0.00  0.00    +0.000 C 
ATOM     29  C   UNL     1       2.367  14.104  20.625  0.00  0.00    +0.000 C 
BRANCH  28  30
ATOM     30  S   UNL     1       0.275  15.542  19.676  0.00  0.00    +0.000 S 
BRANCH  30  31
ATOM     31  C   UNL     1       0.847  16.691  18.526  0.00  0.00    +0.000 A 
ATOM     32  N   UNL     1       2.060  16.805  18.032  0.00  0.00    +0.000 NA
ATOM     33  N   UNL     1       2.065  17.906  17.197  0.00  0.00    +0.000 NA
ATOM     34  C   UNL     1       0.857  18.426  17.216  0.00  0.00    +0.000 A 
ATOM     35  N   UNL     1       0.056  17.682  18.026  0.00  0.00    +0.000 N 
ATOM     36  C   UNL     1      -1.350  17.884  18.252  0.00  0.00    +0.000 C 
ENDBRANCH  30  31
ENDBRANCH  28  30
ENDBRANCH  26  28
ENDBRANCH   3  22
TORSDOF 8
ENDMDL
