MODEL 1
REMARK VINA RESULT:      -8.9      0.000      0.000
REMARK  Name = 
REMARK  10 active torsions:
REMARK  status: ('A' for Active; 'I' for Inactive)
REMARK    1  A    between atoms: C_1  and  N_2
REMARK    2  A    between atoms: C_6  and  C_7
REMARK    3  A    between atoms: C_7  and  C_8
REMARK    4  A    between atoms: C_8  and  C_9
REMARK    5  A    between atoms: C_13  and  N_14
REMARK    6  A    between atoms: C_15  and  C_17
REMARK    7  A    between atoms: C_19  and  C_20
REMARK    8  A    between atoms: C_20  and  N_21
REMARK    9  A    between atoms: C_24  and  O_25
REMARK   10  A    between atoms: C_28  and  C_29
REMARK                            x       y       z     vdW  Elec       q    Type
REMARK                         _______ _______ _______ _____ _____    ______ ____
ROOT
ATOM      1  N   UNL     1       1.065   8.966  19.154  0.00  0.00    +0.000 N 
ATOM      2  C   UNL     1       2.030   8.391  18.353  0.00  0.00    +0.000 C 
ATOM      3  O   UNL     1       2.509   8.882  17.329  0.00  0.00    +0.000 OA
ATOM      4  H   UNL     1       0.832   8.449  20.006  0.00  0.00    +0.000 HD
ENDROOT
BRANCH   1   9
ATOM      5  C   UNL     1       0.343  12.610  19.308  0.00  0.00    +0.000 A 
ATOM      6  C   UNL     1      -0.892  12.647  18.627  0.00  0.00    +0.000 A 
ATOM      7  C   UNL     1      -1.451  11.503  18.075  0.00  0.00    +0.000 A 
ATOM      8  C   UNL     1      -0.801  10.279  18.230  0.00  0.00    +0.000 A 
ATOM      9  C   UNL     1       0.413  10.188  18.905  0.00  0.00    +0.000 A 
ATOM     10  C   UNL     1       0.987  11.354  19.409  0.00  0.00    +0.000 A 
BRANCH   5  11
ATOM     11  C   UNL     1       0.968  13.914  19.985  0.00  0.00    +0.000 C 
ATOM     12  C   UNL     1       2.218  13.678  20.889  0.00  0.00    +0.000 C 
ATOM     13  O   UNL     1       1.554  14.210  22.052  0.00  0.00    +0.000 OA
ATOM     14  C   UNL     1       0.334  14.420  21.311  0.00  0.00    +0.000 C 
BRANCH  11  15
ATOM     15  C   UNL     1       1.209  14.991  18.905  0.00  0.00    +0.000 C 
BRANCH  15  21
ATOM     16  C   UNL     1       2.886  17.485  20.161  0.00  0.00    +0.000 C 
ATOM     17  N   UNL     1       3.302  16.500  19.198  0.00  0.00    +0.000 N 
ATOM     18  C   UNL     1       4.520  16.523  18.581  0.00  0.00    +0.000 A 
ATOM     19  N   UNL     1       4.622  15.503  17.765  0.00  0.00    +0.000 NA
ATOM     20  N   UNL     1       3.446  14.799  17.836  0.00  0.00    +0.000 NA
ATOM     21  C   UNL     1       2.636  15.407  18.685  0.00  0.00    +0.000 A 
ENDBRANCH  15  21
ENDBRANCH  11  15
ENDBRANCH   5  11
ENDBRANCH   1   9
BRANCH   2  22
ATOM     22  C   UNL     1       2.556   7.085  18.810  0.00  0.00    +0.000 A 
ATOM     23  C   UNL     1       3.788   6.694  18.337  0.00  0.00    +0.000 A 
ATOM     24  C   UNL     1       4.363   5.635  18.992  0.00  0.00    +0.000 A 
ATOM     25  N   UNL     1       3.655   4.890  19.874  0.00  0.00    +0.000 NA
ATOM     26  C   UNL     1       2.379   5.256  20.155  0.00  0.00    +0.000 A 
ATOM     27  N   UNL     1       1.828   6.400  19.712  0.00  0.00    +0.000 NA
BRANCH  26  28
ATOM     28  C   UNL     1       1.486   4.299  20.907  0.00  0.00    +0.000 C 
ATOM     29  C   UNL     1       1.080   3.009  20.222  0.00  0.00    +0.000 C 
ATOM     30  C   UNL     1       2.023   2.968  21.385  0.00  0.00    +0.000 C 
ENDBRANCH  26  28
BRANCH  24  31
ATOM     31  C   UNL     1       5.826   5.301  18.745  0.00  0.00    +0.000 C 
BRANCH  31  32
ATOM     32  N   UNL     1       6.048   4.279  17.689  0.00  0.00    +0.000 NA
ATOM     33  C   UNL     1       4.936   4.189  16.725  0.00  0.00    +0.000 C 
ATOM     34  C   UNL     1       5.403   4.757  15.388  0.00  0.00    +0.000 C 
ATOM     35  C   UNL     1       6.752   5.387  15.683  0.00  0.00    +0.000 C 
ATOM     36  C   UNL     1       7.245   4.584  16.880  0.00  0.00    +0.000 C 
BRANCH  35  37
ATOM     37  O   UNL     1       7.637   5.329  14.574  0.00  0.00    +0.000 OA
ATOM     38  H   UNL     1       7.194   5.696  13.790  0.00  0.00    +0.000 HD
ENDBRANCH  35  37
ENDBRANCH  31  32
ENDBRANCH  24  31
ENDBRANCH   2  22
TORSDOF 9
ENDMDL
MODEL 2
REMARK VINA RESULT:      -8.8      1.884      2.802
REMARK  Name = 
REMARK  10 active torsions:
REMARK  status: ('A' for Active; 'I' for Inactive)
REMARK    1  A    between atoms: C_1  and  N_2
REMARK    2  A    between atoms: C_6  and  C_7
REMARK    3  A    between atoms: C_7  and  C_8
REMARK    4  A    between atoms: C_8  and  C_9
REMARK    5  A    between atoms: C_13  and  N_14
REMARK    6  A    between atoms: C_15  and  C_17
REMARK    7  A    between atoms: C_19  and  C_20
REMARK    8  A    between atoms: C_20  and  N_21
REMARK    9  A    between atoms: C_24  and  O_25
REMARK   10  A    between atoms: C_28  and  C_29
REMARK                            x       y       z     vdW  Elec       q    Type
REMARK                         _______ _______ _______ _____ _____    ______ ____
ROOT
ATOM      1  N   UNL     1       1.072   9.008  19.034  0.00  0.00    +0.000 N 
ATOM      2  C   UNL     1       2.031   8.402  18.250  0.00  0.00    +0.000 C 
ATOM      3  O   UNL     1       2.512   8.858  17.210  0.00  0.00    +0.000 OA
ATOM      4  H   UNL     1       0.837   8.520  19.903  0.00  0.00    +0.000 HD
ENDROOT
BRANCH   1   9
ATOM      5  C   UNL     1       0.444  12.672  18.968  0.00  0.00    +0.000 A 
ATOM      6  C   UNL     1      -0.844  12.693  18.393  0.00  0.00    +0.000 A 
ATOM      7  C   UNL     1      -1.473  11.527  17.979  0.00  0.00    +0.000 A 
ATOM      8  C   UNL     1      -0.838  10.300  18.172  0.00  0.00    +0.000 A 
ATOM      9  C   UNL     1       0.427  10.226  18.748  0.00  0.00    +0.000 A 
ATOM     10  C   UNL     1       1.067  11.410  19.112  0.00  0.00    +0.000 A 
BRANCH   5  11
ATOM     11  C   UNL     1       1.152  14.006  19.489  0.00  0.00    +0.000 C 
ATOM     12  C   UNL     1       0.329  15.321  19.324  0.00  0.00    +0.000 C 
ATOM     13  O   UNL     1       1.334  15.918  18.481  0.00  0.00    +0.000 OA
ATOM     14  C   UNL     1       2.144  14.724  18.533  0.00  0.00    +0.000 C 
BRANCH  11  15
ATOM     15  C   UNL     1       1.650  13.793  20.935  0.00  0.00    +0.000 C 
BRANCH  15  21
ATOM     16  C   UNL     1      -0.995  12.306  22.121  0.00  0.00    +0.000 C 
ATOM     17  N   UNL     1      -0.428  13.580  22.477  0.00  0.00    +0.000 N 
ATOM     18  C   UNL     1      -1.006  14.433  23.374  0.00  0.00    +0.000 A 
ATOM     19  N   UNL     1      -0.266  15.507  23.503  0.00  0.00    +0.000 NA
ATOM     20  N   UNL     1       0.814  15.365  22.669  0.00  0.00    +0.000 NA
ATOM     21  C   UNL     1       0.713  14.213  22.032  0.00  0.00    +0.000 A 
ENDBRANCH  15  21
ENDBRANCH  11  15
ENDBRANCH   5  11
ENDBRANCH   1   9
BRANCH   2  22
ATOM     22  C   UNL     1       2.550   7.107  18.747  0.00  0.00    +0.000 A 
ATOM     23  C   UNL     1       3.794   6.711  18.312  0.00  0.00    +0.000 A 
ATOM     24  C   UNL     1       4.357   5.668  19.003  0.00  0.00    +0.000 A 
ATOM     25  N   UNL     1       3.629   4.940  19.883  0.00  0.00    +0.000 NA
ATOM     26  C   UNL     1       2.346   5.307  20.126  0.00  0.00    +0.000 A 
ATOM     27  N   UNL     1       1.802   6.440  19.646  0.00  0.00    +0.000 NA
BRANCH  26  28
ATOM     28  C   UNL     1       1.438   4.363  20.877  0.00  0.00    +0.000 C 
ATOM     29  C   UNL     1       1.186   2.990  20.286  0.00  0.00    +0.000 C 
ATOM     30  C   UNL     1       2.000   3.123  21.536  0.00  0.00    +0.000 C 
ENDBRANCH  26  28
BRANCH  24  31
ATOM     31  C   UNL     1       5.826   5.334  18.799  0.00  0.00    +0.000 C 
BRANCH  31  32
ATOM     32  N   UNL     1       6.076   4.291  17.771  0.00  0.00    +0.000 NA
ATOM     33  C   UNL     1       4.974   4.155  16.800  0.00  0.00    +0.000 C 
ATOM     34  C   UNL     1       5.442   4.699  15.453  0.00  0.00    +0.000 C 
ATOM     35  C   UNL     1       6.777   5.361  15.744  0.00  0.00    +0.000 C 
ATOM     36  C   UNL     1       7.274   4.598  16.964  0.00  0.00    +0.000 C 
BRANCH  35  37
ATOM     37  O   UNL     1       7.672   5.293  14.643  0.00  0.00    +0.000 OA
ATOM     38  H   UNL     1       7.849   6.191  14.317  0.00  0.00    +0.000 HD
ENDBRANCH  35  37
ENDBRANCH  31  32
ENDBRANCH  24  31
ENDBRANCH   2  22
TORSDOF 9
ENDMDL
MODEL 3
REMARK VINA RESULT:      -8.8      2.257      3.187
REMARK  Name = 
REMARK  10 active torsions:
REMARK  status: ('A' for Active; 'I' for Inactive)
REMARK    1  A    between atoms: C_1  and  N_2
REMARK    2  A    between atoms: C_6  and  C_7
REMARK    3  A    between atoms: C_7  and  C_8
REMARK    4  A    between atoms: C_8  and  C_9
REMARK    5  A    between atoms: C_13  and  N_14
REMARK    6  A    between atoms: C_15  and  C_17
REMARK    7  A    between atoms: C_19  and  C_20
REMARK    8  A    between atoms: C_20  and  N_21
REMARK    9  A    between atoms: C_24  and  O_25
REMARK   10  A    between atoms: C_28  and  C_29
REMARK                            x       y       z     vdW  Elec       q    Type
REMARK                         _______ _______ _______ _____ _____    ______ ____
ROOT
ATOM      1  N   UNL     1       1.057   8.951  19.144  0.00  0.00    +0.000 N 
ATOM      2  C   UNL     1       1.997   8.379  18.313  0.00  0.00    +0.000 C 
ATOM      3  O   UNL     1       2.415   8.855  17.255  0.00  0.00    +0.000 OA
ATOM      4  H   UNL     1       0.876   8.451  20.019  0.00  0.00    +0.000 HD
ENDROOT
BRANCH   1   9
ATOM      5  C   UNL     1       0.198  12.564  19.320  0.00  0.00    +0.000 A 
ATOM      6  C   UNL     1      -1.027  12.563  18.620  0.00  0.00    +0.000 A 
ATOM      7  C   UNL     1      -1.535  11.405  18.049  0.00  0.00    +0.000 A 
ATOM      8  C   UNL     1      -0.842  10.204  18.203  0.00  0.00    +0.000 A 
ATOM      9  C   UNL     1       0.363  10.151  18.896  0.00  0.00    +0.000 A 
ATOM     10  C   UNL     1       0.885  11.332  19.420  0.00  0.00    +0.000 A 
BRANCH   5  11
ATOM     11  C   UNL     1       0.763  13.884  20.020  0.00  0.00    +0.000 C 
ATOM     12  C   UNL     1       0.194  15.234  19.483  0.00  0.00    +0.000 C 
ATOM     13  O   UNL     1       1.499  15.697  19.084  0.00  0.00    +0.000 OA
ATOM     14  C   UNL     1       2.111  14.460  19.506  0.00  0.00    +0.000 C 
BRANCH  11  15
ATOM     15  C   UNL     1       0.632  13.750  21.553  0.00  0.00    +0.000 C 
BRANCH  15  21
ATOM     16  C   UNL     1      -2.548  14.458  21.552  0.00  0.00    +0.000 C 
ATOM     17  N   UNL     1      -1.871  13.304  22.083  0.00  0.00    +0.000 N 
ATOM     18  C   UNL     1      -2.508  12.312  22.772  0.00  0.00    +0.000 A 
ATOM     19  N   UNL     1      -1.643  11.392  23.125  0.00  0.00    +0.000 NA
ATOM     20  N   UNL     1      -0.412  11.789  22.668  0.00  0.00    +0.000 NA
ATOM     21  C   UNL     1      -0.538  12.952  22.055  0.00  0.00    +0.000 A 
ENDBRANCH  15  21
ENDBRANCH  11  15
ENDBRANCH   5  11
ENDBRANCH   1   9
BRANCH   2  22
ATOM     22  C   UNL     1       2.576   7.097  18.776  0.00  0.00    +0.000 A 
ATOM     23  C   UNL     1       3.800   6.730  18.265  0.00  0.00    +0.000 A 
ATOM     24  C   UNL     1       4.429   5.702  18.920  0.00  0.00    +0.000 A 
ATOM     25  N   UNL     1       3.774   4.957  19.843  0.00  0.00    +0.000 NA
ATOM     26  C   UNL     1       2.500   5.294  20.164  0.00  0.00    +0.000 A 
ATOM     27  N   UNL     1       1.900   6.413  19.718  0.00  0.00    +0.000 NA
BRANCH  26  28
ATOM     28  C   UNL     1       1.662   4.329  20.968  0.00  0.00    +0.000 C 
ATOM     29  C   UNL     1       0.968   3.199  20.234  0.00  0.00    +0.000 C 
ATOM     30  C   UNL     1       2.111   2.896  21.153  0.00  0.00    +0.000 C 
ENDBRANCH  26  28
BRANCH  24  31
ATOM     31  C   UNL     1       5.890   5.402  18.625  0.00  0.00    +0.000 C 
BRANCH  31  32
ATOM     32  N   UNL     1       6.102   4.327  17.622  0.00  0.00    +0.000 NA
ATOM     33  C   UNL     1       4.983   4.192  16.671  0.00  0.00    +0.000 C 
ATOM     34  C   UNL     1       5.443   4.690  15.304  0.00  0.00    +0.000 C 
ATOM     35  C   UNL     1       6.797   5.328  15.558  0.00  0.00    +0.000 C 
ATOM     36  C   UNL     1       7.295   4.586  16.791  0.00  0.00    +0.000 C 
BRANCH  35  37
ATOM     37  O   UNL     1       7.674   5.211  14.447  0.00  0.00    +0.000 OA
ATOM     38  H   UNL     1       7.966   6.096  14.174  0.00  0.00    +0.000 HD
ENDBRANCH  35  37
ENDBRANCH  31  32
ENDBRANCH  24  31
ENDBRANCH   2  22
TORSDOF 9
ENDMDL
MODEL 4
REMARK VINA RESULT:      -8.8      2.989      5.163
REMARK  Name = 
REMARK  10 active torsions:
REMARK  status: ('A' for Active; 'I' for Inactive)
REMARK    1  A    between atoms: C_1  and  N_2
REMARK    2  A    between atoms: C_6  and  C_7
REMARK    3  A    between atoms: C_7  and  C_8
REMARK    4  A    between atoms: C_8  and  C_9
REMARK    5  A    between atoms: C_13  and  N_14
REMARK    6  A    between atoms: C_15  and  C_17
REMARK    7  A    between atoms: C_19  and  C_20
REMARK    8  A    between atoms: C_20  and  N_21
REMARK    9  A    between atoms: C_24  and  O_25
REMARK   10  A    between atoms: C_28  and  C_29
REMARK                            x       y       z     vdW  Elec       q    Type
REMARK                         _______ _______ _______ _____ _____    ______ ____
ROOT
ATOM      1  N   UNL     1       1.249   8.887  19.492  0.00  0.00    +0.000 N 
ATOM      2  C   UNL     1       2.035   8.260  18.549  0.00  0.00    +0.000 C 
ATOM      3  O   UNL     1       2.290   8.684  17.419  0.00  0.00    +0.000 OA
ATOM      4  H   UNL     1       1.200   8.426  20.405  0.00  0.00    +0.000 HD
ENDROOT
BRANCH   1   9
ATOM      5  C   UNL     1      -1.427  11.208  18.364  0.00  0.00    +0.000 A 
ATOM      6  C   UNL     1      -0.853  12.444  18.725  0.00  0.00    +0.000 A 
ATOM      7  C   UNL     1       0.368  12.513  19.382  0.00  0.00    +0.000 A 
ATOM      8  C   UNL     1       1.065  11.337  19.656  0.00  0.00    +0.000 A 
ATOM      9  C   UNL     1       0.547  10.093  19.307  0.00  0.00    +0.000 A 
ATOM     10  C   UNL     1      -0.703  10.039  18.694  0.00  0.00    +0.000 A 
BRANCH   5  11
ATOM     11  C   UNL     1      -2.809  11.126  17.566  0.00  0.00    +0.000 C 
ATOM     12  C   UNL     1      -3.480   9.718  17.513  0.00  0.00    +0.000 C 
ATOM     13  O   UNL     1      -3.419   9.676  16.073  0.00  0.00    +0.000 OA
ATOM     14  C   UNL     1      -2.749  10.952  16.023  0.00  0.00    +0.000 C 
BRANCH  11  15
ATOM     15  C   UNL     1      -3.767  12.223  18.080  0.00  0.00    +0.000 C 
BRANCH  15  21
ATOM     16  C   UNL     1      -5.067  12.483  21.056  0.00  0.00    +0.000 C 
ATOM     17  N   UNL     1      -5.596  11.840  19.883  0.00  0.00    +0.000 N 
ATOM     18  C   UNL     1      -6.769  11.139  19.877  0.00  0.00    +0.000 A 
ATOM     19  N   UNL     1      -7.000  10.674  18.674  0.00  0.00    +0.000 NA
ATOM     20  N   UNL     1      -5.958  11.067  17.873  0.00  0.00    +0.000 NA
ATOM     21  C   UNL     1      -5.097  11.756  18.600  0.00  0.00    +0.000 A 
ENDBRANCH  15  21
ENDBRANCH  11  15
ENDBRANCH   5  11
ENDBRANCH   1   9
BRANCH   2  22
ATOM     22  C   UNL     1       2.657   6.984  18.968  0.00  0.00    +0.000 A 
ATOM     23  C   UNL     1       3.855   6.638  18.387  0.00  0.00    +0.000 A 
ATOM     24  C   UNL     1       4.534   5.614  18.997  0.00  0.00    +0.000 A 
ATOM     25  N   UNL     1       3.943   4.853  19.949  0.00  0.00    +0.000 NA
ATOM     26  C   UNL     1       2.684   5.170  20.344  0.00  0.00    +0.000 A 
ATOM     27  N   UNL     1       2.045   6.283  19.942  0.00  0.00    +0.000 NA
BRANCH  26  28
ATOM     28  C   UNL     1       1.906   4.188  21.187  0.00  0.00    +0.000 C 
ATOM     29  C   UNL     1       1.288   2.986  20.500  0.00  0.00    +0.000 C 
ATOM     30  C   UNL     1       2.445   2.796  21.432  0.00  0.00    +0.000 C 
ENDBRANCH  26  28
BRANCH  24  31
ATOM     31  C   UNL     1       5.980   5.337  18.618  0.00  0.00    +0.000 C 
BRANCH  31  32
ATOM     32  N   UNL     1       6.148   4.293  17.574  0.00  0.00    +0.000 NA
ATOM     33  C   UNL     1       5.008   4.216  16.641  0.00  0.00    +0.000 C 
ATOM     34  C   UNL     1       5.454   4.750  15.283  0.00  0.00    +0.000 C 
ATOM     35  C   UNL     1       6.827   5.349  15.532  0.00  0.00    +0.000 C 
ATOM     36  C   UNL     1       7.330   4.553  16.729  0.00  0.00    +0.000 C 
BRANCH  35  37
ATOM     37  O   UNL     1       7.680   5.250  14.401  0.00  0.00    +0.000 OA
ATOM     38  H   UNL     1       7.180   4.884  13.653  0.00  0.00    +0.000 HD
ENDBRANCH  35  37
ENDBRANCH  31  32
ENDBRANCH  24  31
ENDBRANCH   2  22
TORSDOF 9
ENDMDL
MODEL 5
REMARK VINA RESULT:      -8.8      1.369      1.747
REMARK  Name = 
REMARK  10 active torsions:
REMARK  status: ('A' for Active; 'I' for Inactive)
REMARK    1  A    between atoms: C_1  and  N_2
REMARK    2  A    between atoms: C_6  and  C_7
REMARK    3  A    between atoms: C_7  and  C_8
REMARK    4  A    between atoms: C_8  and  C_9
REMARK    5  A    between atoms: C_13  and  N_14
REMARK    6  A    between atoms: C_15  and  C_17
REMARK    7  A    between atoms: C_19  and  C_20
REMARK    8  A    between atoms: C_20  and  N_21
REMARK    9  A    between atoms: C_24  and  O_25
REMARK   10  A    between atoms: C_28  and  C_29
REMARK                            x       y       z     vdW  Elec       q    Type
REMARK                         _______ _______ _______ _____ _____    ______ ____
ROOT
ATOM      1  N   UNL     1       1.181   9.040  19.090  0.00  0.00    +0.000 N 
ATOM      2  C   UNL     1       2.088   8.400  18.271  0.00  0.00    +0.000 C 
ATOM      3  O   UNL     1       2.529   8.829  17.202  0.00  0.00    +0.000 OA
ATOM      4  H   UNL     1       0.977   8.570  19.976  0.00  0.00    +0.000 HD
ENDROOT
BRANCH   1   9
ATOM      5  C   UNL     1       0.660  12.718  18.941  0.00  0.00    +0.000 A 
ATOM      6  C   UNL     1      -0.672  12.762  18.478  0.00  0.00    +0.000 A 
ATOM      7  C   UNL     1      -1.369  11.604  18.164  0.00  0.00    +0.000 A 
ATOM      8  C   UNL     1      -0.757  10.364  18.348  0.00  0.00    +0.000 A 
ATOM      9  C   UNL     1       0.551  10.268  18.815  0.00  0.00    +0.000 A 
ATOM     10  C   UNL     1       1.255  11.442  19.077  0.00  0.00    +0.000 A 
BRANCH   5  11
ATOM     11  C   UNL     1       1.451  14.045  19.348  0.00  0.00    +0.000 C 
ATOM     12  C   UNL     1       2.456  14.590  18.287  0.00  0.00    +0.000 C 
ATOM     13  O   UNL     1       3.575  14.452  19.185  0.00  0.00    +0.000 OA
ATOM     14  C   UNL     1       2.733  13.891  20.213  0.00  0.00    +0.000 C 
BRANCH  11  15
ATOM     15  C   UNL     1       0.447  15.118  19.823  0.00  0.00    +0.000 C 
BRANCH  15  21
ATOM     16  C   UNL     1       2.271  17.800  20.128  0.00  0.00    +0.000 C 
ATOM     17  N   UNL     1       1.178  17.537  19.229  0.00  0.00    +0.000 N 
ATOM     18  C   UNL     1       0.675  18.471  18.368  0.00  0.00    +0.000 A 
ATOM     19  N   UNL     1      -0.305  17.949  17.672  0.00  0.00    +0.000 NA
ATOM     20  N   UNL     1      -0.458  16.650  18.087  0.00  0.00    +0.000 NA
ATOM     21  C   UNL     1       0.422  16.400  19.040  0.00  0.00    +0.000 A 
ENDBRANCH  15  21
ENDBRANCH  11  15
ENDBRANCH   5  11
ENDBRANCH   1   9
BRANCH   2  22
ATOM     22  C   UNL     1       2.601   7.102  18.764  0.00  0.00    +0.000 A 
ATOM     23  C   UNL     1       3.847   6.705  18.334  0.00  0.00    +0.000 A 
ATOM     24  C   UNL     1       4.403   5.657  19.022  0.00  0.00    +0.000 A 
ATOM     25  N   UNL     1       3.668   4.925  19.894  0.00  0.00    +0.000 NA
ATOM     26  C   UNL     1       2.385   5.294  20.131  0.00  0.00    +0.000 A 
ATOM     27  N   UNL     1       1.846   6.431  19.654  0.00  0.00    +0.000 NA
BRANCH  26  28
ATOM     28  C   UNL     1       1.470   4.348  20.871  0.00  0.00    +0.000 C 
ATOM     29  C   UNL     1       1.054   3.065  20.179  0.00  0.00    +0.000 C 
ATOM     30  C   UNL     1       1.982   3.008  21.352  0.00  0.00    +0.000 C 
ENDBRANCH  26  28
BRANCH  24  31
ATOM     31  C   UNL     1       5.873   5.320  18.824  0.00  0.00    +0.000 C 
BRANCH  31  32
ATOM     32  N   UNL     1       6.126   4.280  17.794  0.00  0.00    +0.000 NA
ATOM     33  C   UNL     1       5.018   4.131  16.833  0.00  0.00    +0.000 C 
ATOM     34  C   UNL     1       5.468   4.680  15.482  0.00  0.00    +0.000 C 
ATOM     35  C   UNL     1       6.798   5.358  15.762  0.00  0.00    +0.000 C 
ATOM     36  C   UNL     1       7.314   4.600  16.978  0.00  0.00    +0.000 C 
BRANCH  35  37
ATOM     37  O   UNL     1       7.685   5.299  14.654  0.00  0.00    +0.000 OA
ATOM     38  H   UNL     1       7.212   4.944  13.883  0.00  0.00    +0.000 HD
ENDBRANCH  35  37
ENDBRANCH  31  32
ENDBRANCH  24  31
ENDBRANCH   2  22
TORSDOF 9
ENDMDL
MODEL 6
REMARK VINA RESULT:      -8.8      3.757      9.706
REMARK  Name = 
REMARK  10 active torsions:
REMARK  status: ('A' for Active; 'I' for Inactive)
REMARK    1  A    between atoms: C_1  and  N_2
REMARK    2  A    between atoms: C_6  and  C_7
REMARK    3  A    between atoms: C_7  and  C_8
REMARK    4  A    between atoms: C_8  and  C_9
REMARK    5  A    between atoms: C_13  and  N_14
REMARK    6  A    between atoms: C_15  and  C_17
REMARK    7  A    between atoms: C_19  and  C_20
REMARK    8  A    between atoms: C_20  and  N_21
REMARK    9  A    between atoms: C_24  and  O_25
REMARK   10  A    between atoms: C_28  and  C_29
REMARK                            x       y       z     vdW  Elec       q    Type
REMARK                         _______ _______ _______ _____ _____    ______ ____
ROOT
ATOM      1  N   UNL     1       1.830   6.836  18.621  0.00  0.00    +0.000 N 
ATOM      2  C   UNL     1       1.969   8.114  18.122  0.00  0.00    +0.000 C 
ATOM      3  O   UNL     1       2.668   8.446  17.161  0.00  0.00    +0.000 OA
ATOM      4  H   UNL     1       1.154   6.730  19.382  0.00  0.00    +0.000 HD
ENDROOT
BRANCH   1   9
ATOM      5  C   UNL     1       4.610   4.754  17.294  0.00  0.00    +0.000 A 
ATOM      6  C   UNL     1       3.925   3.543  17.065  0.00  0.00    +0.000 A 
ATOM      7  C   UNL     1       2.586   3.392  17.396  0.00  0.00    +0.000 A 
ATOM      8  C   UNL     1       1.886   4.475  17.928  0.00  0.00    +0.000 A 
ATOM      9  C   UNL     1       2.513   5.696  18.159  0.00  0.00    +0.000 A 
ATOM     10  C   UNL     1       3.871   5.815  17.869  0.00  0.00    +0.000 A 
BRANCH   5  11
ATOM     11  C   UNL     1       6.138   4.948  16.871  0.00  0.00    +0.000 C 
ATOM     12  C   UNL     1       7.177   4.883  18.034  0.00  0.00    +0.000 C 
ATOM     13  O   UNL     1       7.637   6.225  17.780  0.00  0.00    +0.000 OA
ATOM     14  C   UNL     1       6.674   6.399  16.720  0.00  0.00    +0.000 C 
BRANCH  11  15
ATOM     15  C   UNL     1       6.478   3.984  15.714  0.00  0.00    +0.000 C 
BRANCH  15  21
ATOM     16  C   UNL     1       5.751   3.344  12.603  0.00  0.00    +0.000 C 
ATOM     17  N   UNL     1       6.696   4.285  13.144  0.00  0.00    +0.000 N 
ATOM     18  C   UNL     1       7.529   5.041  12.368  0.00  0.00    +0.000 A 
ATOM     19  N   UNL     1       8.270   5.807  13.131  0.00  0.00    +0.000 NA
ATOM     20  N   UNL     1       7.927   5.546  14.433  0.00  0.00    +0.000 NA
ATOM     21  C   UNL     1       6.991   4.615  14.450  0.00  0.00    +0.000 A 
ENDBRANCH  15  21
ENDBRANCH  11  15
ENDBRANCH   5  11
ENDBRANCH   1   9
BRANCH   2  22
ATOM     22  C   UNL     1       1.160   9.161  18.787  0.00  0.00    +0.000 A 
ATOM     23  C   UNL     1       0.467  10.037  17.984  0.00  0.00    +0.000 A 
ATOM     24  C   UNL     1      -0.482  10.796  18.619  0.00  0.00    +0.000 A 
ATOM     25  N   UNL     1      -0.550  10.842  19.971  0.00  0.00    +0.000 NA
ATOM     26  C   UNL     1       0.295  10.062  20.691  0.00  0.00    +0.000 A 
ATOM     27  N   UNL     1       1.100   9.141  20.132  0.00  0.00    +0.000 NA
BRANCH  26  28
ATOM     28  C   UNL     1       0.432  10.298  22.176  0.00  0.00    +0.000 C 
ATOM     29  C   UNL     1      -0.799  10.723  22.951  0.00  0.00    +0.000 C 
ATOM     30  C   UNL     1      -0.223   9.357  23.163  0.00  0.00    +0.000 C 
ENDBRANCH  26  28
BRANCH  24  31
ATOM     31  C   UNL     1      -1.491  11.585  17.798  0.00  0.00    +0.000 C 
BRANCH  31  32
ATOM     32  N   UNL     1      -2.421  10.742  17.003  0.00  0.00    +0.000 NA
ATOM     33  C   UNL     1      -3.133   9.737  17.815  0.00  0.00    +0.000 C 
ATOM     34  C   UNL     1      -4.599  10.147  17.921  0.00  0.00    +0.000 C 
ATOM     35  C   UNL     1      -4.656  11.544  17.332  0.00  0.00    +0.000 C 
ATOM     36  C   UNL     1      -3.479  11.552  16.366  0.00  0.00    +0.000 C 
BRANCH  35  37
ATOM     37  O   UNL     1      -5.896  11.819  16.697  0.00  0.00    +0.000 OA
ATOM     38  H   UNL     1      -5.784  11.760  15.733  0.00  0.00    +0.000 HD
ENDBRANCH  35  37
ENDBRANCH  31  32
ENDBRANCH  24  31
ENDBRANCH   2  22
TORSDOF 9
ENDMDL
MODEL 7
REMARK VINA RESULT:      -8.7      1.316      1.599
REMARK  Name = 
REMARK  10 active torsions:
REMARK  status: ('A' for Active; 'I' for Inactive)
REMARK    1  A    between atoms: C_1  and  N_2
REMARK    2  A    between atoms: C_6  and  C_7
REMARK    3  A    between atoms: C_7  and  C_8
REMARK    4  A    between atoms: C_8  and  C_9
REMARK    5  A    between atoms: C_13  and  N_14
REMARK    6  A    between atoms: C_15  and  C_17
REMARK    7  A    between atoms: C_19  and  C_20
REMARK    8  A    between atoms: C_20  and  N_21
REMARK    9  A    between atoms: C_24  and  O_25
REMARK   10  A    between atoms: C_28  and  C_29
REMARK                            x       y       z     vdW  Elec       q    Type
REMARK                         _______ _______ _______ _____ _____    ______ ____
ROOT
ATOM      1  N   UNL     1       1.007   9.007  19.005  0.00  0.00    +0.000 N 
ATOM      2  C   UNL     1       2.009   8.435  18.251  0.00  0.00    +0.000 C 
ATOM      3  O   UNL     1       2.522   8.919  17.239  0.00  0.00    +0.000 OA
ATOM      4  H   UNL     1       0.747   8.498  19.855  0.00  0.00    +0.000 HD
ENDROOT
BRANCH   1   9
ATOM      5  C   UNL     1       0.329  12.662  18.938  0.00  0.00    +0.000 A 
ATOM      6  C   UNL     1      -0.953  12.666  18.349  0.00  0.00    +0.000 A 
ATOM      7  C   UNL     1      -1.561  11.493  17.926  0.00  0.00    +0.000 A 
ATOM      8  C   UNL     1      -0.911  10.275  18.124  0.00  0.00    +0.000 A 
ATOM      9  C   UNL     1       0.348  10.216  18.714  0.00  0.00    +0.000 A 
ATOM     10  C   UNL     1       0.967  11.409  19.086  0.00  0.00    +0.000 A 
BRANCH   5  11
ATOM     11  C   UNL     1       1.013  14.004  19.469  0.00  0.00    +0.000 C 
ATOM     12  C   UNL     1       0.429  14.586  20.794  0.00  0.00    +0.000 C 
ATOM     13  O   UNL     1       0.055  15.825  20.158  0.00  0.00    +0.000 OA
ATOM     14  C   UNL     1       0.522  15.355  18.876  0.00  0.00    +0.000 C 
BRANCH  11  15
ATOM     15  C   UNL     1       2.544  13.814  19.525  0.00  0.00    +0.000 C 
BRANCH  15  21
ATOM     16  C   UNL     1       3.648  16.796  20.239  0.00  0.00    +0.000 C 
ATOM     17  N   UNL     1       3.732  15.583  21.010  0.00  0.00    +0.000 N 
ATOM     18  C   UNL     1       4.398  15.496  22.199  0.00  0.00    +0.000 A 
ATOM     19  N   UNL     1       4.300  14.278  22.673  0.00  0.00    +0.000 NA
ATOM     20  N   UNL     1       3.563  13.546  21.777  0.00  0.00    +0.000 NA
ATOM     21  C   UNL     1       3.233  14.322  20.760  0.00  0.00    +0.000 A 
ENDBRANCH  15  21
ENDBRANCH  11  15
ENDBRANCH   5  11
ENDBRANCH   1   9
BRANCH   2  22
ATOM     22  C   UNL     1       2.535   7.143  18.745  0.00  0.00    +0.000 A 
ATOM     23  C   UNL     1       3.778   6.750  18.305  0.00  0.00    +0.000 A 
ATOM     24  C   UNL     1       4.347   5.710  18.994  0.00  0.00    +0.000 A 
ATOM     25  N   UNL     1       3.627   4.979  19.878  0.00  0.00    +0.000 NA
ATOM     26  C   UNL     1       2.344   5.343  20.127  0.00  0.00    +0.000 A 
ATOM     27  N   UNL     1       1.793   6.473  19.649  0.00  0.00    +0.000 NA
BRANCH  26  28
ATOM     28  C   UNL     1       1.442   4.396  20.883  0.00  0.00    +0.000 C 
ATOM     29  C   UNL     1       1.176   3.029  20.285  0.00  0.00    +0.000 C 
ATOM     30  C   UNL     1       2.009   3.149  21.524  0.00  0.00    +0.000 C 
ENDBRANCH  26  28
BRANCH  24  31
ATOM     31  C   UNL     1       5.817   5.380  18.782  0.00  0.00    +0.000 C 
BRANCH  31  32
ATOM     32  N   UNL     1       6.063   4.302  17.789  0.00  0.00    +0.000 NA
ATOM     33  C   UNL     1       4.952   4.126  16.835  0.00  0.00    +0.000 C 
ATOM     34  C   UNL     1       5.403   4.624  15.465  0.00  0.00    +0.000 C 
ATOM     35  C   UNL     1       6.737   5.303  15.719  0.00  0.00    +0.000 C 
ATOM     36  C   UNL     1       7.251   4.587  16.960  0.00  0.00    +0.000 C 
BRANCH  35  37
ATOM     37  O   UNL     1       7.621   5.200  14.612  0.00  0.00    +0.000 OA
ATOM     38  H   UNL     1       7.121   5.323  13.788  0.00  0.00    +0.000 HD
ENDBRANCH  35  37
ENDBRANCH  31  32
ENDBRANCH  24  31
ENDBRANCH   2  22
TORSDOF 9
ENDMDL
MODEL 8
REMARK VINA RESULT:      -8.7      3.143      4.360
REMARK  Name = 
REMARK  10 active torsions:
REMARK  status: ('A' for Active; 'I' for Inactive)
REMARK    1  A    between atoms: C_1  and  N_2
REMARK    2  A    between atoms: C_6  and  C_7
REMARK    3  A    between atoms: C_7  and  C_8
REMARK    4  A    between atoms: C_8  and  C_9
REMARK    5  A    between atoms: C_13  and  N_14
REMARK    6  A    between atoms: C_15  and  C_17
REMARK    7  A    between atoms: C_19  and  C_20
REMARK    8  A    between atoms: C_20  and  N_21
REMARK    9  A    between atoms: C_24  and  O_25
REMARK   10  A    between atoms: C_28  and  C_29
REMARK                            x       y       z     vdW  Elec       q    Type
REMARK                         _______ _______ _______ _____ _____    ______ ____
ROOT
ATOM      1  N   UNL     1       0.634   8.908  19.113  0.00  0.00    +0.000 N 
ATOM      2  C   UNL     1       1.740   8.676  18.322  0.00  0.00    +0.000 C 
ATOM      3  O   UNL     1       2.161   9.415  17.430  0.00  0.00    +0.000 OA
ATOM      4  H   UNL     1       0.467   8.221  19.853  0.00  0.00    +0.000 HD
ENDROOT
BRANCH   1   9
ATOM      5  C   UNL     1      -1.423  11.834  20.130  0.00  0.00    +0.000 A 
ATOM      6  C   UNL     1      -2.109  12.087  18.924  0.00  0.00    +0.000 A 
ATOM      7  C   UNL     1      -1.857  11.347  17.777  0.00  0.00    +0.000 A 
ATOM      8  C   UNL     1      -0.936  10.300  17.825  0.00  0.00    +0.000 A 
ATOM      9  C   UNL     1      -0.245  10.001  18.996  0.00  0.00    +0.000 A 
ATOM     10  C   UNL     1      -0.471  10.787  20.125  0.00  0.00    +0.000 A 
BRANCH   5  11
ATOM     11  C   UNL     1      -1.742  12.651  21.464  0.00  0.00    +0.000 C 
ATOM     12  C   UNL     1      -0.540  13.422  22.093  0.00  0.00    +0.000 C 
ATOM     13  O   UNL     1      -0.630  12.681  23.326  0.00  0.00    +0.000 OA
ATOM     14  C   UNL     1      -1.716  11.881  22.814  0.00  0.00    +0.000 C 
BRANCH  11  15
ATOM     15  C   UNL     1      -2.973  13.555  21.232  0.00  0.00    +0.000 C 
BRANCH  15  21
ATOM     16  C   UNL     1      -3.718  14.847  24.129  0.00  0.00    +0.000 C 
ATOM     17  N   UNL     1      -4.416  13.842  23.372  0.00  0.00    +0.000 N 
ATOM     18  C   UNL     1      -5.528  13.195  23.832  0.00  0.00    +0.000 A 
ATOM     19  N   UNL     1      -5.949  12.343  22.929  0.00  0.00    +0.000 NA
ATOM     20  N   UNL     1      -5.096  12.423  21.858  0.00  0.00    +0.000 NA
ATOM     21  C   UNL     1      -4.156  13.312  22.126  0.00  0.00    +0.000 A 
ENDBRANCH  15  21
ENDBRANCH  11  15
ENDBRANCH   5  11
ENDBRANCH   1   9
BRANCH   2  22
ATOM     22  C   UNL     1       2.501   7.442  18.621  0.00  0.00    +0.000 A 
ATOM     23  C   UNL     1       3.604   7.170  17.843  0.00  0.00    +0.000 A 
ATOM     24  C   UNL     1       4.438   6.192  18.322  0.00  0.00    +0.000 A 
ATOM     25  N   UNL     1       4.063   5.398  19.353  0.00  0.00    +0.000 NA
ATOM     26  C   UNL     1       2.872   5.635  19.956  0.00  0.00    +0.000 A 
ATOM     27  N   UNL     1       2.106   6.706  19.677  0.00  0.00    +0.000 NA
BRANCH  26  28
ATOM     28  C   UNL     1       2.309   4.608  20.909  0.00  0.00    +0.000 C 
ATOM     29  C   UNL     1       1.122   3.782  20.452  0.00  0.00    +0.000 C 
ATOM     30  C   UNL     1       2.461   3.131  20.617  0.00  0.00    +0.000 C 
ENDBRANCH  26  28
BRANCH  24  31
ATOM     31  C   UNL     1       5.815   6.006  17.704  0.00  0.00    +0.000 C 
BRANCH  31  32
ATOM     32  N   UNL     1       6.009   4.695  17.031  0.00  0.00    +0.000 NA
ATOM     33  C   UNL     1       4.847   4.279  16.224  0.00  0.00    +0.000 C 
ATOM     34  C   UNL     1       5.219   4.379  14.747  0.00  0.00    +0.000 C 
ATOM     35  C   UNL     1       6.562   5.085  14.732  0.00  0.00    +0.000 C 
ATOM     36  C   UNL     1       7.148   4.729  16.092  0.00  0.00    +0.000 C 
BRANCH  35  37
ATOM     37  O   UNL     1       7.384   4.674  13.649  0.00  0.00    +0.000 OA
ATOM     38  H   UNL     1       7.676   5.456  13.152  0.00  0.00    +0.000 HD
ENDBRANCH  35  37
ENDBRANCH  31  32
ENDBRANCH  24  31
ENDBRANCH   2  22
TORSDOF 9
ENDMDL
MODEL 9
REMARK VINA RESULT:      -8.7      2.582      9.865
REMARK  Name = 
REMARK  10 active torsions:
REMARK  status: ('A' for Active; 'I' for Inactive)
REMARK    1  A    between atoms: C_1  and  N_2
REMARK    2  A    between atoms: C_6  and  C_7
REMARK    3  A    between atoms: C_7  and  C_8
REMARK    4  A    between atoms: C_8  and  C_9
REMARK    5  A    between atoms: C_13  and  N_14
REMARK    6  A    between atoms: C_15  and  C_17
REMARK    7  A    between atoms: C_19  and  C_20
REMARK    8  A    between atoms: C_20  and  N_21
REMARK    9  A    between atoms: C_24  and  O_25
REMARK   10  A    between atoms: C_28  and  C_29
REMARK                            x       y       z     vdW  Elec       q    Type
REMARK                         _______ _______ _______ _____ _____    ______ ____
ROOT
ATOM      1  N   UNL     1       2.252   7.345  18.966  0.00  0.00    +0.000 N 
ATOM      2  C   UNL     1       2.046   8.535  18.301  0.00  0.00    +0.000 C 
ATOM      3  O   UNL     1       2.191   8.724  17.091  0.00  0.00    +0.000 OA
ATOM      4  H   UNL     1       2.016   7.348  19.963  0.00  0.00    +0.000 HD
ENDROOT
BRANCH   1   9
ATOM      5  C   UNL     1       4.612   4.966  17.354  0.00  0.00    +0.000 A 
ATOM      6  C   UNL     1       3.734   3.900  17.070  0.00  0.00    +0.000 A 
ATOM      7  C   UNL     1       2.401   3.935  17.453  0.00  0.00    +0.000 A 
ATOM      8  C   UNL     1       1.903   5.067  18.098  0.00  0.00    +0.000 A 
ATOM      9  C   UNL     1       2.725   6.152  18.388  0.00  0.00    +0.000 A 
ATOM     10  C   UNL     1       4.074   6.079  18.042  0.00  0.00    +0.000 A 
BRANCH   5  11
ATOM     11  C   UNL     1       6.135   4.951  16.874  0.00  0.00    +0.000 C 
ATOM     12  C   UNL     1       7.194   4.661  17.982  0.00  0.00    +0.000 C 
ATOM     13  O   UNL     1       7.844   5.931  17.779  0.00  0.00    +0.000 OA
ATOM     14  C   UNL     1       6.881   6.310  16.774  0.00  0.00    +0.000 C 
BRANCH  11  15
ATOM     15  C   UNL     1       6.280   4.016  15.653  0.00  0.00    +0.000 C 
BRANCH  15  21
ATOM     16  C   UNL     1       5.760   3.362  12.504  0.00  0.00    +0.000 C 
ATOM     17  N   UNL     1       6.691   4.281  13.102  0.00  0.00    +0.000 N 
ATOM     18  C   UNL     1       7.600   5.003  12.382  0.00  0.00    +0.000 A 
ATOM     19  N   UNL     1       8.307   5.756  13.189  0.00  0.00    +0.000 NA
ATOM     20  N   UNL     1       7.863   5.521  14.466  0.00  0.00    +0.000 NA
ATOM     21  C   UNL     1       6.901   4.617  14.424  0.00  0.00    +0.000 A 
ENDBRANCH  15  21
ENDBRANCH  11  15
ENDBRANCH   5  11
ENDBRANCH   1   9
BRANCH   2  22
ATOM     22  C   UNL     1       1.563   9.664  19.128  0.00  0.00    +0.000 A 
ATOM     23  C   UNL     1       1.575  10.918  18.562  0.00  0.00    +0.000 A 
ATOM     24  C   UNL     1       0.865  11.878  19.237  0.00  0.00    +0.000 A 
ATOM     25  N   UNL     1       0.397  11.650  20.488  0.00  0.00    +0.000 NA
ATOM     26  C   UNL     1       0.581  10.423  21.037  0.00  0.00    +0.000 A 
ATOM     27  N   UNL     1       1.078   9.378  20.351  0.00  0.00    +0.000 NA
BRANCH  26  28
ATOM     28  C   UNL     1       0.325  10.228  22.512  0.00  0.00    +0.000 C 
ATOM     29  C   UNL     1      -1.049  10.572  23.052  0.00  0.00    +0.000 C 
ATOM     30  C   UNL     1      -0.613   9.141  22.988  0.00  0.00    +0.000 C 
ENDBRANCH  26  28
BRANCH  24  31
ATOM     31  C   UNL     1       0.576  13.213  18.568  0.00  0.00    +0.000 C 
BRANCH  31  32
ATOM     32  N   UNL     1       0.733  14.389  19.462  0.00  0.00    +0.000 NA
ATOM     33  C   UNL     1       1.792  15.316  19.022  0.00  0.00    +0.000 C 
ATOM     34  C   UNL     1       1.137  16.593  18.503  0.00  0.00    +0.000 C 
ATOM     35  C   UNL     1      -0.346  16.274  18.449  0.00  0.00    +0.000 C 
ATOM     36  C   UNL     1      -0.501  15.200  19.517  0.00  0.00    +0.000 C 
BRANCH  35  37
ATOM     37  O   UNL     1      -1.158  17.415  18.688  0.00  0.00    +0.000 OA
ATOM     38  H   UNL     1      -1.819  17.201  19.367  0.00  0.00    +0.000 HD
ENDBRANCH  35  37
ENDBRANCH  31  32
ENDBRANCH  24  31
ENDBRANCH   2  22
TORSDOF 9
ENDMDL
