MODEL 1
REMARK VINA RESULT:      -8.5      0.000      0.000
REMARK  Name = 
REMARK  9 active torsions:
REMARK  status: ('A' for Active; 'I' for Inactive)
REMARK    1  A    between atoms: C_1  and  C_2
REMARK    2  A    between atoms: C_5  and  C_6
REMARK    3  A    between atoms: N_8  and  C_9
REMARK    4  A    between atoms: C_13  and  C_14
REMARK    5  A    between atoms: C_14  and  C_15
REMARK    6  A    between atoms: C_14  and  S_16
REMARK    7  A    between atoms: S_16  and  C_17
REMARK    8  A    between atoms: N_21  and  C_22
REMARK    9  A    between atoms: C_25  and  C_26
REMARK                            x       y       z     vdW  Elec       q    Type
REMARK                         _______ _______ _______ _____ _____    ______ ____
ROOT
ATOM      1  C   UNL     1       1.917   8.394  18.390  0.00  0.00    +0.000 C 
ATOM      2  O   UNL     1       2.128   8.692  17.217  0.00  0.00    +0.000 OA
ATOM      3  N   UNL     1       2.075   7.140  18.963  0.00  0.00    +0.000 N 
ATOM      4  H   UNL     1       1.738   7.052  19.916  0.00  0.00    +0.000 HD
ENDROOT
BRANCH   1   9
ATOM      5  C   UNL     1      -0.080  12.573  21.798  0.00  0.00    +0.000 C 
ATOM      6  C   UNL     1       0.419  11.428  20.966  0.00  0.00    +0.000 A 
ATOM      7  C   UNL     1       1.032  11.688  19.734  0.00  0.00    +0.000 A 
ATOM      8  N   UNL     1       1.532  10.749  18.898  0.00  0.00    +0.000 NA
ATOM      9  C   UNL     1       1.398   9.462  19.302  0.00  0.00    +0.000 A 
ATOM     10  C   UNL     1       0.806   9.095  20.509  0.00  0.00    +0.000 A 
ATOM     11  C   UNL     1       0.307  10.086  21.369  0.00  0.00    +0.000 A 
BRANCH  11  12
ATOM     12  C   UNL     1      -0.321   9.627  22.667  0.00  0.00    +0.000 C 
ATOM     13  F   UNL     1       0.537   9.517  23.716  0.00  0.00    +0.000 F 
ATOM     14  F   UNL     1      -1.305  10.471  23.086  0.00  0.00    +0.000 F 
ATOM     15  F   UNL     1      -0.908   8.403  22.546  0.00  0.00    +0.000 F 
ENDBRANCH  11  12
ENDBRANCH   1   9
BRANCH   3  16
ATOM     16  C   UNL     1       2.554   5.981  18.302  0.00  0.00    +0.000 A 
ATOM     17  C   UNL     1       1.919   4.741  18.413  0.00  0.00    +0.000 A 
ATOM     18  C   UNL     1       2.430   3.616  17.770  0.00  0.00    +0.000 A 
ATOM     19  C   UNL     1       3.587   3.712  17.005  0.00  0.00    +0.000 A 
ATOM     20  C   UNL     1       4.251   4.941  16.864  0.00  0.00    +0.000 A 
ATOM     21  C   UNL     1       3.706   6.079  17.502  0.00  0.00    +0.000 A 
BRANCH  20  22
ATOM     22  C   UNL     1       5.522   5.052  16.016  0.00  0.00    +0.000 C 
ATOM     23  C   UNL     1       5.438   4.115  14.806  0.00  0.00    +0.000 C 
BRANCH  22  24
ATOM     24  S   UNL     1       7.026   4.667  17.015  0.00  0.00    +0.000 S 
BRANCH  24  25
ATOM     25  C   UNL     1       7.551   6.245  17.486  0.00  0.00    +0.000 A 
ATOM     26  N   UNL     1       7.593   7.317  16.729  0.00  0.00    +0.000 NA
ATOM     27  N   UNL     1       8.074   8.357  17.496  0.00  0.00    +0.000 NA
ATOM     28  C   UNL     1       8.305   7.886  18.700  0.00  0.00    +0.000 A 
ATOM     29  N   UNL     1       7.991   6.559  18.741  0.00  0.00    +0.000 N 
ATOM     30  C   UNL     1       8.140   5.700  19.885  0.00  0.00    +0.000 C 
ENDBRANCH  24  25
ENDBRANCH  22  24
ENDBRANCH  20  22
ENDBRANCH   3  16
TORSDOF 6
ENDMDL
MODEL 2
REMARK VINA RESULT:      -8.2      5.557      7.924
REMARK  Name = 
REMARK  9 active torsions:
REMARK  status: ('A' for Active; 'I' for Inactive)
REMARK    1  A    between atoms: C_1  and  C_2
REMARK    2  A    between atoms: C_5  and  C_6
REMARK    3  A    between atoms: N_8  and  C_9
REMARK    4  A    between atoms: C_13  and  C_14
REMARK    5  A    between atoms: C_14  and  C_15
REMARK    6  A    between atoms: C_14  and  S_16
REMARK    7  A    between atoms: S_16  and  C_17
REMARK    8  A    between atoms: N_21  and  C_22
REMARK    9  A    between atoms: C_25  and  C_26
REMARK                            x       y       z     vdW  Elec       q    Type
REMARK                         _______ _______ _______ _____ _____    ______ ____
ROOT
ATOM      1  C   UNL     1       8.189   8.739  18.159  0.00  0.00    +0.000 C 
ATOM      2  O   UNL     1       8.775   8.002  18.947  0.00  0.00    +0.000 OA
ATOM      3  N   UNL     1       7.191   8.367  17.269  0.00  0.00    +0.000 N 
ATOM      4  H   UNL     1       6.906   9.084  16.611  0.00  0.00    +0.000 HD
ENDROOT
BRANCH   1   9
ATOM      5  C   UNL     1       9.648  14.297  17.926  0.00  0.00    +0.000 C 
ATOM      6  C   UNL     1       9.336  12.832  18.028  0.00  0.00    +0.000 A 
ATOM      7  C   UNL     1       8.178  12.331  17.423  0.00  0.00    +0.000 A 
ATOM      8  N   UNL     1       7.791  11.034  17.433  0.00  0.00    +0.000 NA
ATOM      9  C   UNL     1       8.599  10.178  18.105  0.00  0.00    +0.000 A 
ATOM     10  C   UNL     1       9.775  10.573  18.740  0.00  0.00    +0.000 A 
ATOM     11  C   UNL     1      10.165  11.921  18.705  0.00  0.00    +0.000 A 
BRANCH  11  12
ATOM     12  C   UNL     1      11.454  12.289  19.409  0.00  0.00    +0.000 C 
ATOM     13  F   UNL     1      11.311  13.113  20.482  0.00  0.00    +0.000 F 
ATOM     14  F   UNL     1      12.114  11.193  19.875  0.00  0.00    +0.000 F 
ATOM     15  F   UNL     1      12.327  12.923  18.577  0.00  0.00    +0.000 F 
ENDBRANCH  11  12
ENDBRANCH   1   9
BRANCH   3  16
ATOM     16  C   UNL     1       6.637   7.069  17.140  0.00  0.00    +0.000 A 
ATOM     17  C   UNL     1       7.378   5.983  16.667  0.00  0.00    +0.000 A 
ATOM     18  C   UNL     1       6.797   4.725  16.530  0.00  0.00    +0.000 A 
ATOM     19  C   UNL     1       5.460   4.531  16.864  0.00  0.00    +0.000 A 
ATOM     20  C   UNL     1       4.684   5.595  17.348  0.00  0.00    +0.000 A 
ATOM     21  C   UNL     1       5.295   6.859  17.506  0.00  0.00    +0.000 A 
BRANCH  20  22
ATOM     22  C   UNL     1       3.213   5.384  17.724  0.00  0.00    +0.000 C 
ATOM     23  C   UNL     1       2.940   5.928  19.131  0.00  0.00    +0.000 C 
BRANCH  22  24
ATOM     24  S   UNL     1       2.751   3.600  17.631  0.00  0.00    +0.000 S 
BRANCH  24  25
ATOM     25  C   UNL     1       3.073   3.066  19.243  0.00  0.00    +0.000 A 
ATOM     26  N   UNL     1       4.236   2.705  19.734  0.00  0.00    +0.000 NA
ATOM     27  N   UNL     1       4.047   2.352  21.053  0.00  0.00    +0.000 NA
ATOM     28  C   UNL     1       2.774   2.515  21.327  0.00  0.00    +0.000 A 
ATOM     29  N   UNL     1       2.119   2.964  20.217  0.00  0.00    +0.000 N 
ATOM     30  C   UNL     1       0.708   3.229  20.128  0.00  0.00    +0.000 C 
ENDBRANCH  24  25
ENDBRANCH  22  24
ENDBRANCH  20  22
ENDBRANCH   3  16
TORSDOF 6
ENDMDL
MODEL 3
REMARK VINA RESULT:      -8.1      4.432      8.984
REMARK  Name = 
REMARK  9 active torsions:
REMARK  status: ('A' for Active; 'I' for Inactive)
REMARK    1  A    between atoms: C_1  and  C_2
REMARK    2  A    between atoms: C_5  and  C_6
REMARK    3  A    between atoms: N_8  and  C_9
REMARK    4  A    between atoms: C_13  and  C_14
REMARK    5  A    between atoms: C_14  and  C_15
REMARK    6  A    between atoms: C_14  and  S_16
REMARK    7  A    between atoms: S_16  and  C_17
REMARK    8  A    between atoms: N_21  and  C_22
REMARK    9  A    between atoms: C_25  and  C_26
REMARK                            x       y       z     vdW  Elec       q    Type
REMARK                         _______ _______ _______ _____ _____    ______ ____
ROOT
ATOM      1  C   UNL     1       2.380   8.174  18.300  0.00  0.00    +0.000 C 
ATOM      2  O   UNL     1       2.352   9.181  17.596  0.00  0.00    +0.000 OA
ATOM      3  N   UNL     1       1.817   8.033  19.561  0.00  0.00    +0.000 N 
ATOM      4  H   UNL     1       2.043   7.171  20.043  0.00  0.00    +0.000 HD
ENDROOT
BRANCH   1   9
ATOM      5  C   UNL     1       5.340   3.661  16.316  0.00  0.00    +0.000 C 
ATOM      6  C   UNL     1       4.513   4.787  16.865  0.00  0.00    +0.000 A 
ATOM      7  C   UNL     1       4.896   6.109  16.613  0.00  0.00    +0.000 A 
ATOM      8  N   UNL     1       4.233   7.208  17.041  0.00  0.00    +0.000 NA
ATOM      9  C   UNL     1       3.124   6.981  17.787  0.00  0.00    +0.000 A 
ATOM     10  C   UNL     1       2.656   5.705  18.095  0.00  0.00    +0.000 A 
ATOM     11  C   UNL     1       3.351   4.578  17.629  0.00  0.00    +0.000 A 
BRANCH  11  12
ATOM     12  C   UNL     1       2.793   3.218  17.991  0.00  0.00    +0.000 C 
ATOM     13  F   UNL     1       1.668   3.242  18.755  0.00  0.00    +0.000 F 
ATOM     14  F   UNL     1       2.471   2.486  16.889  0.00  0.00    +0.000 F 
ATOM     15  F   UNL     1       3.691   2.466  18.687  0.00  0.00    +0.000 F 
ENDBRANCH  11  12
ENDBRANCH   1   9
BRANCH   3  16
ATOM     16  C   UNL     1       1.065   9.019  20.247  0.00  0.00    +0.000 A 
ATOM     17  C   UNL     1       0.865   8.979  21.629  0.00  0.00    +0.000 A 
ATOM     18  C   UNL     1       0.101   9.950  22.271  0.00  0.00    +0.000 A 
ATOM     19  C   UNL     1      -0.479  10.981  21.538  0.00  0.00    +0.000 A 
ATOM     20  C   UNL     1      -0.297  11.060  20.149  0.00  0.00    +0.000 A 
ATOM     21  C   UNL     1       0.503  10.081  19.516  0.00  0.00    +0.000 A 
BRANCH  20  22
ATOM     22  C   UNL     1      -0.928  12.198  19.340  0.00  0.00    +0.000 C 
ATOM     23  C   UNL     1      -0.601  13.552  19.981  0.00  0.00    +0.000 C 
BRANCH  22  24
ATOM     24  S   UNL     1      -2.756  11.984  19.202  0.00  0.00    +0.000 S 
BRANCH  24  25
ATOM     25  C   UNL     1      -2.917  11.335  17.608  0.00  0.00    +0.000 A 
ATOM     26  N   UNL     1      -1.977  10.753  16.899  0.00  0.00    +0.000 NA
ATOM     27  N   UNL     1      -2.528  10.387  15.689  0.00  0.00    +0.000 NA
ATOM     28  C   UNL     1      -3.790  10.752  15.702  0.00  0.00    +0.000 A 
ATOM     29  N   UNL     1      -4.080  11.355  16.891  0.00  0.00    +0.000 N 
ATOM     30  C   UNL     1      -5.355  11.912  17.257  0.00  0.00    +0.000 C 
ENDBRANCH  24  25
ENDBRANCH  22  24
ENDBRANCH  20  22
ENDBRANCH   3  16
TORSDOF 6
ENDMDL
MODEL 4
REMARK VINA RESULT:      -8.1      4.139      8.715
REMARK  Name = 
REMARK  9 active torsions:
REMARK  status: ('A' for Active; 'I' for Inactive)
REMARK    1  A    between atoms: C_1  and  C_2
REMARK    2  A    between atoms: C_5  and  C_6
REMARK    3  A    between atoms: N_8  and  C_9
REMARK    4  A    between atoms: C_13  and  C_14
REMARK    5  A    between atoms: C_14  and  C_15
REMARK    6  A    between atoms: C_14  and  S_16
REMARK    7  A    between atoms: S_16  and  C_17
REMARK    8  A    between atoms: N_21  and  C_22
REMARK    9  A    between atoms: C_25  and  C_26
REMARK                            x       y       z     vdW  Elec       q    Type
REMARK                         _______ _______ _______ _____ _____    ______ ____
ROOT
ATOM      1  C   UNL     1       1.952   7.575  19.994  0.00  0.00    +0.000 C 
ATOM      2  O   UNL     1       1.976   8.345  19.038  0.00  0.00    +0.000 OA
ATOM      3  N   UNL     1       1.402   7.828  21.243  0.00  0.00    +0.000 N 
ATOM      4  H   UNL     1       1.581   7.121  21.948  0.00  0.00    +0.000 HD
ENDROOT
BRANCH   1   9
ATOM      5  C   UNL     1       4.583   2.502  19.355  0.00  0.00    +0.000 C 
ATOM      6  C   UNL     1       3.839   3.788  19.566  0.00  0.00    +0.000 A 
ATOM      7  C   UNL     1       4.310   4.962  18.967  0.00  0.00    +0.000 A 
ATOM      8  N   UNL     1       3.726   6.179  19.071  0.00  0.00    +0.000 NA
ATOM      9  C   UNL     1       2.609   6.239  19.836  0.00  0.00    +0.000 A 
ATOM     10  C   UNL     1       2.057   5.131  20.474  0.00  0.00    +0.000 A 
ATOM     11  C   UNL     1       2.670   3.875  20.342  0.00  0.00    +0.000 A 
BRANCH  11  12
ATOM     12  C   UNL     1       2.022   2.707  21.054  0.00  0.00    +0.000 C 
ATOM     13  F   UNL     1       2.798   2.100  21.992  0.00  0.00    +0.000 F 
ATOM     14  F   UNL     1       0.882   3.072  21.704  0.00  0.00    +0.000 F 
ATOM     15  F   UNL     1       1.656   1.720  20.189  0.00  0.00    +0.000 F 
ENDBRANCH  11  12
ENDBRANCH   1   9
BRANCH   3  16
ATOM     16  C   UNL     1       0.727   9.014  21.627  0.00  0.00    +0.000 A 
ATOM     17  C   UNL     1       0.034   9.123  22.835  0.00  0.00    +0.000 A 
ATOM     18  C   UNL     1      -0.639  10.295  23.171  0.00  0.00    +0.000 A 
ATOM     19  C   UNL     1      -0.633  11.379  22.301  0.00  0.00    +0.000 A 
ATOM     20  C   UNL     1       0.056  11.312  21.080  0.00  0.00    +0.000 A 
ATOM     21  C   UNL     1       0.756  10.125  20.765  0.00  0.00    +0.000 A 
BRANCH  20  22
ATOM     22  C   UNL     1       0.071  12.508  20.122  0.00  0.00    +0.000 C 
ATOM     23  C   UNL     1       0.820  13.687  20.754  0.00  0.00    +0.000 C 
BRANCH  22  24
ATOM     24  S   UNL     1      -1.642  13.016  19.663  0.00  0.00    +0.000 S 
BRANCH  24  25
ATOM     25  C   UNL     1      -2.118  11.737  18.601  0.00  0.00    +0.000 A 
ATOM     26  N   UNL     1      -1.322  10.953  17.910  0.00  0.00    +0.000 NA
ATOM     27  N   UNL     1      -2.111  10.075  17.197  0.00  0.00    +0.000 NA
ATOM     28  C   UNL     1      -3.363  10.348  17.481  0.00  0.00    +0.000 A 
ATOM     29  N   UNL     1      -3.418  11.390  18.361  0.00  0.00    +0.000 N 
ATOM     30  C   UNL     1      -4.620  11.986  18.878  0.00  0.00    +0.000 C 
ENDBRANCH  24  25
ENDBRANCH  22  24
ENDBRANCH  20  22
ENDBRANCH   3  16
TORSDOF 6
ENDMDL
MODEL 5
REMARK VINA RESULT:      -8.0      4.223      9.253
REMARK  Name = 
REMARK  9 active torsions:
REMARK  status: ('A' for Active; 'I' for Inactive)
REMARK    1  A    between atoms: C_1  and  C_2
REMARK    2  A    between atoms: C_5  and  C_6
REMARK    3  A    between atoms: N_8  and  C_9
REMARK    4  A    between atoms: C_13  and  C_14
REMARK    5  A    between atoms: C_14  and  C_15
REMARK    6  A    between atoms: C_14  and  S_16
REMARK    7  A    between atoms: S_16  and  C_17
REMARK    8  A    between atoms: N_21  and  C_22
REMARK    9  A    between atoms: C_25  and  C_26
REMARK                            x       y       z     vdW  Elec       q    Type
REMARK                         _______ _______ _______ _____ _____    ______ ____
ROOT
ATOM      1  C   UNL     1       2.654   7.440  18.269  0.00  0.00    +0.000 C 
ATOM      2  O   UNL     1       3.411   8.160  17.623  0.00  0.00    +0.000 OA
ATOM      3  N   UNL     1       1.640   7.862  19.119  0.00  0.00    +0.000 N 
ATOM      4  H   UNL     1       1.195   7.129  19.661  0.00  0.00    +0.000 HD
ENDROOT
BRANCH   1   9
ATOM      5  C   UNL     1       3.521   1.767  17.899  0.00  0.00    +0.000 C 
ATOM      6  C   UNL     1       3.227   3.232  18.038  0.00  0.00    +0.000 A 
ATOM      7  C   UNL     1       4.071   4.165  17.426  0.00  0.00    +0.000 A 
ATOM      8  N   UNL     1       3.910   5.508  17.468  0.00  0.00    +0.000 NA
ATOM      9  C   UNL     1       2.848   5.958  18.180  0.00  0.00    +0.000 A 
ATOM     10  C   UNL     1       1.947   5.115  18.826  0.00  0.00    +0.000 A 
ATOM     11  C   UNL     1       2.124   3.724  18.759  0.00  0.00    +0.000 A 
BRANCH  11  12
ATOM     12  C   UNL     1       1.110   2.858  19.476  0.00  0.00    +0.000 C 
ATOM     13  F   UNL     1       0.313   2.111  18.666  0.00  0.00    +0.000 F 
ATOM     14  F   UNL     1       1.702   1.973  20.325  0.00  0.00    +0.000 F 
ATOM     15  F   UNL     1       0.260   3.597  20.243  0.00  0.00    +0.000 F 
ENDBRANCH  11  12
ENDBRANCH   1   9
BRANCH   3  16
ATOM     16  C   UNL     1       1.267   9.207  19.360  0.00  0.00    +0.000 A 
ATOM     17  C   UNL     1       1.476  10.221  18.421  0.00  0.00    +0.000 A 
ATOM     18  C   UNL     1       1.120  11.538  18.699  0.00  0.00    +0.000 A 
ATOM     19  C   UNL     1       0.550  11.865  19.925  0.00  0.00    +0.000 A 
ATOM     20  C   UNL     1       0.319  10.876  20.892  0.00  0.00    +0.000 A 
ATOM     21  C   UNL     1       0.662   9.539  20.585  0.00  0.00    +0.000 A 
BRANCH  20  22
ATOM     22  C   UNL     1      -0.316  11.231  22.241  0.00  0.00    +0.000 C 
ATOM     23  C   UNL     1      -0.661   9.956  23.019  0.00  0.00    +0.000 C 
BRANCH  22  24
ATOM     24  S   UNL     1      -1.827  12.266  22.015  0.00  0.00    +0.000 S 
BRANCH  24  25
ATOM     25  C   UNL     1      -1.560  13.536  23.157  0.00  0.00    +0.000 A 
ATOM     26  N   UNL     1      -0.477  14.269  23.277  0.00  0.00    +0.000 NA
ATOM     27  N   UNL     1      -0.684  15.160  24.309  0.00  0.00    +0.000 NA
ATOM     28  C   UNL     1      -1.890  14.945  24.782  0.00  0.00    +0.000 A 
ATOM     29  N   UNL     1      -2.481  13.930  24.087  0.00  0.00    +0.000 N 
ATOM     30  C   UNL     1      -3.792  13.396  24.339  0.00  0.00    +0.000 C 
ENDBRANCH  24  25
ENDBRANCH  22  24
ENDBRANCH  20  22
ENDBRANCH   3  16
TORSDOF 6
ENDMDL
MODEL 6
REMARK VINA RESULT:      -8.0      4.829      9.269
REMARK  Name = 
REMARK  9 active torsions:
REMARK  status: ('A' for Active; 'I' for Inactive)
REMARK    1  A    between atoms: C_1  and  C_2
REMARK    2  A    between atoms: C_5  and  C_6
REMARK    3  A    between atoms: N_8  and  C_9
REMARK    4  A    between atoms: C_13  and  C_14
REMARK    5  A    between atoms: C_14  and  C_15
REMARK    6  A    between atoms: C_14  and  S_16
REMARK    7  A    between atoms: S_16  and  C_17
REMARK    8  A    between atoms: N_21  and  C_22
REMARK    9  A    between atoms: C_25  and  C_26
REMARK                            x       y       z     vdW  Elec       q    Type
REMARK                         _______ _______ _______ _____ _____    ______ ____
ROOT
ATOM      1  C   UNL     1       2.574   6.308  19.450  0.00  0.00    +0.000 C 
ATOM      2  O   UNL     1       2.094   5.647  20.367  0.00  0.00    +0.000 OA
ATOM      3  N   UNL     1       2.314   7.644  19.173  0.00  0.00    +0.000 N 
ATOM      4  H   UNL     1       2.707   7.991  18.305  0.00  0.00    +0.000 HD
ENDROOT
BRANCH   1   9
ATOM      5  C   UNL     1       6.042   3.634  15.723  0.00  0.00    +0.000 C 
ATOM      6  C   UNL     1       5.202   4.370  16.726  0.00  0.00    +0.000 A 
ATOM      7  C   UNL     1       3.827   4.117  16.791  0.00  0.00    +0.000 A 
ATOM      8  N   UNL     1       2.966   4.705  17.654  0.00  0.00    +0.000 NA
ATOM      9  C   UNL     1       3.502   5.619  18.499  0.00  0.00    +0.000 A 
ATOM     10  C   UNL     1       4.857   5.944  18.517  0.00  0.00    +0.000 A 
ATOM     11  C   UNL     1       5.736   5.312  17.623  0.00  0.00    +0.000 A 
BRANCH  11  12
ATOM     12  C   UNL     1       7.197   5.702  17.693  0.00  0.00    +0.000 C 
ATOM     13  F   UNL     1       7.526   6.525  18.725  0.00  0.00    +0.000 F 
ATOM     14  F   UNL     1       8.011   4.617  17.817  0.00  0.00    +0.000 F 
ATOM     15  F   UNL     1       7.608   6.348  16.566  0.00  0.00    +0.000 F 
ENDBRANCH  11  12
ENDBRANCH   1   9
BRANCH   3  16
ATOM     16  C   UNL     1       1.477   8.499  19.931  0.00  0.00    +0.000 A 
ATOM     17  C   UNL     1       1.090   8.201  21.240  0.00  0.00    +0.000 A 
ATOM     18  C   UNL     1       0.246   9.051  21.949  0.00  0.00    +0.000 A 
ATOM     19  C   UNL     1      -0.228  10.218  21.359  0.00  0.00    +0.000 A 
ATOM     20  C   UNL     1       0.141  10.557  20.048  0.00  0.00    +0.000 A 
ATOM     21  C   UNL     1       1.019   9.696  19.351  0.00  0.00    +0.000 A 
BRANCH  20  22
ATOM     22  C   UNL     1      -0.375  11.845  19.397  0.00  0.00    +0.000 C 
ATOM     23  C   UNL     1       0.346  13.063  19.984  0.00  0.00    +0.000 C 
BRANCH  22  24
ATOM     24  S   UNL     1      -2.199  12.018  19.615  0.00  0.00    +0.000 S 
BRANCH  24  25
ATOM     25  C   UNL     1      -2.785  11.585  18.047  0.00  0.00    +0.000 A 
ATOM     26  N   UNL     1      -2.065  11.204  17.017  0.00  0.00    +0.000 NA
ATOM     27  N   UNL     1      -2.926  10.957  15.969  0.00  0.00    +0.000 NA
ATOM     28  C   UNL     1      -4.146  11.189  16.396  0.00  0.00    +0.000 A 
ATOM     29  N   UNL     1      -4.107  11.589  17.700  0.00  0.00    +0.000 N 
ATOM     30  C   UNL     1      -5.246  11.958  18.496  0.00  0.00    +0.000 C 
ENDBRANCH  24  25
ENDBRANCH  22  24
ENDBRANCH  20  22
ENDBRANCH   3  16
TORSDOF 6
ENDMDL
MODEL 7
REMARK VINA RESULT:      -8.0      2.604      3.472
REMARK  Name = 
REMARK  9 active torsions:
REMARK  status: ('A' for Active; 'I' for Inactive)
REMARK    1  A    between atoms: C_1  and  C_2
REMARK    2  A    between atoms: C_5  and  C_6
REMARK    3  A    between atoms: N_8  and  C_9
REMARK    4  A    between atoms: C_13  and  C_14
REMARK    5  A    between atoms: C_14  and  C_15
REMARK    6  A    between atoms: C_14  and  S_16
REMARK    7  A    between atoms: S_16  and  C_17
REMARK    8  A    between atoms: N_21  and  C_22
REMARK    9  A    between atoms: C_25  and  C_26
REMARK                            x       y       z     vdW  Elec       q    Type
REMARK                         _______ _______ _______ _____ _____    ______ ____
ROOT
ATOM      1  C   UNL     1       1.559   8.255  19.893  0.00  0.00    +0.000 C 
ATOM      2  O   UNL     1       1.795   8.532  18.720  0.00  0.00    +0.000 OA
ATOM      3  N   UNL     1       1.902   7.081  20.549  0.00  0.00    +0.000 N 
ATOM      4  H   UNL     1       1.520   6.977  21.482  0.00  0.00    +0.000 HD
ENDROOT
BRANCH   1   9
ATOM      5  C   UNL     1      -1.343  12.025  23.124  0.00  0.00    +0.000 C 
ATOM      6  C   UNL     1      -0.600  11.089  22.216  0.00  0.00    +0.000 A 
ATOM      7  C   UNL     1      -0.075   9.899  22.734  0.00  0.00    +0.000 A 
ATOM      8  N   UNL     1       0.603   8.970  22.020  0.00  0.00    +0.000 NA
ATOM      9  C   UNL     1       0.790   9.249  20.707  0.00  0.00    +0.000 A 
ATOM     10  C   UNL     1       0.308  10.403  20.093  0.00  0.00    +0.000 A 
ATOM     11  C   UNL     1      -0.406  11.347  20.848  0.00  0.00    +0.000 A 
BRANCH  11  12
ATOM     12  C   UNL     1      -0.909  12.578  20.124  0.00  0.00    +0.000 C 
ATOM     13  F   UNL     1      -2.248  12.796  20.219  0.00  0.00    +0.000 F 
ATOM     14  F   UNL     1      -0.319  13.717  20.583  0.00  0.00    +0.000 F 
ATOM     15  F   UNL     1      -0.640  12.532  18.790  0.00  0.00    +0.000 F 
ENDBRANCH  11  12
ENDBRANCH   1   9
BRANCH   3  16
ATOM     16  C   UNL     1       2.631   6.002  19.989  0.00  0.00    +0.000 A 
ATOM     17  C   UNL     1       2.506   4.692  20.458  0.00  0.00    +0.000 A 
ATOM     18  C   UNL     1       3.255   3.658  19.902  0.00  0.00    +0.000 A 
ATOM     19  C   UNL     1       4.145   3.918  18.865  0.00  0.00    +0.000 A 
ATOM     20  C   UNL     1       4.295   5.219  18.361  0.00  0.00    +0.000 A 
ATOM     21  C   UNL     1       3.509   6.253  18.919  0.00  0.00    +0.000 A 
BRANCH  20  22
ATOM     22  C   UNL     1       5.268   5.508  17.214  0.00  0.00    +0.000 C 
ATOM     23  C   UNL     1       4.756   6.674  16.361  0.00  0.00    +0.000 C 
BRANCH  22  24
ATOM     24  S   UNL     1       5.520   4.013  16.161  0.00  0.00    +0.000 S 
BRANCH  24  25
ATOM     25  C   UNL     1       6.600   4.611  14.951  0.00  0.00    +0.000 A 
ATOM     26  N   UNL     1       7.624   5.412  15.138  0.00  0.00    +0.000 NA
ATOM     27  N   UNL     1       8.211   5.640  13.912  0.00  0.00    +0.000 NA
ATOM     28  C   UNL     1       7.530   4.964  13.015  0.00  0.00    +0.000 A 
ATOM     29  N   UNL     1       6.504   4.301  13.623  0.00  0.00    +0.000 N 
ATOM     30  C   UNL     1       5.527   3.481  12.958  0.00  0.00    +0.000 C 
ENDBRANCH  24  25
ENDBRANCH  22  24
ENDBRANCH  20  22
ENDBRANCH   3  16
TORSDOF 6
ENDMDL
MODEL 8
REMARK VINA RESULT:      -8.0      4.589      9.528
REMARK  Name = 
REMARK  9 active torsions:
REMARK  status: ('A' for Active; 'I' for Inactive)
REMARK    1  A    between atoms: C_1  and  C_2
REMARK    2  A    between atoms: C_5  and  C_6
REMARK    3  A    between atoms: N_8  and  C_9
REMARK    4  A    between atoms: C_13  and  C_14
REMARK    5  A    between atoms: C_14  and  C_15
REMARK    6  A    between atoms: C_14  and  S_16
REMARK    7  A    between atoms: S_16  and  C_17
REMARK    8  A    between atoms: N_21  and  C_22
REMARK    9  A    between atoms: C_25  and  C_26
REMARK                            x       y       z     vdW  Elec       q    Type
REMARK                         _______ _______ _______ _____ _____    ______ ____
ROOT
ATOM      1  C   UNL     1       1.807   7.747  19.946  0.00  0.00    +0.000 C 
ATOM      2  O   UNL     1       2.008   8.619  19.104  0.00  0.00    +0.000 OA
ATOM      3  N   UNL     1       1.045   7.876  21.100  0.00  0.00    +0.000 N 
ATOM      4  H   UNL     1       1.089   7.089  21.739  0.00  0.00    +0.000 HD
ENDROOT
BRANCH   1   9
ATOM      5  C   UNL     1       4.460   2.705  19.170  0.00  0.00    +0.000 C 
ATOM      6  C   UNL     1       3.713   3.983  19.419  0.00  0.00    +0.000 A 
ATOM      7  C   UNL     1       4.141   5.163  18.800  0.00  0.00    +0.000 A 
ATOM      8  N   UNL     1       3.549   6.373  18.934  0.00  0.00    +0.000 NA
ATOM      9  C   UNL     1       2.471   6.419  19.754  0.00  0.00    +0.000 A 
ATOM     10  C   UNL     1       1.963   5.304  20.416  0.00  0.00    +0.000 A 
ATOM     11  C   UNL     1       2.583   4.055  20.252  0.00  0.00    +0.000 A 
BRANCH  11  12
ATOM     12  C   UNL     1       1.983   2.879  20.994  0.00  0.00    +0.000 C 
ATOM     13  F   UNL     1       1.628   1.825  20.212  0.00  0.00    +0.000 F 
ATOM     14  F   UNL     1       2.838   2.372  21.925  0.00  0.00    +0.000 F 
ATOM     15  F   UNL     1       0.855   3.226  21.674  0.00  0.00    +0.000 F 
ENDBRANCH  11  12
ENDBRANCH   1   9
BRANCH   3  16
ATOM     16  C   UNL     1       0.323   9.030  21.492  0.00  0.00    +0.000 A 
ATOM     17  C   UNL     1       0.079   9.339  22.832  0.00  0.00    +0.000 A 
ATOM     18  C   UNL     1      -0.656  10.469  23.184  0.00  0.00    +0.000 A 
ATOM     19  C   UNL     1      -1.161  11.310  22.197  0.00  0.00    +0.000 A 
ATOM     20  C   UNL     1      -0.933  11.037  20.840  0.00  0.00    +0.000 A 
ATOM     21  C   UNL     1      -0.164   9.901  20.500  0.00  0.00    +0.000 A 
BRANCH  20  22
ATOM     22  C   UNL     1      -1.481  11.965  19.751  0.00  0.00    +0.000 C 
ATOM     23  C   UNL     1      -0.334  12.538  18.912  0.00  0.00    +0.000 C 
BRANCH  22  24
ATOM     24  S   UNL     1      -2.480  13.333  20.482  0.00  0.00    +0.000 S 
BRANCH  24  25
ATOM     25  C   UNL     1      -4.089  12.720  20.324  0.00  0.00    +0.000 A 
ATOM     26  N   UNL     1      -4.655  12.272  19.227  0.00  0.00    +0.000 NA
ATOM     27  N   UNL     1      -5.939  11.883  19.543  0.00  0.00    +0.000 NA
ATOM     28  C   UNL     1      -6.114  12.100  20.826  0.00  0.00    +0.000 A 
ATOM     29  N   UNL     1      -4.975  12.628  21.361  0.00  0.00    +0.000 N 
ATOM     30  C   UNL     1      -4.800  13.022  22.733  0.00  0.00    +0.000 C 
ENDBRANCH  24  25
ENDBRANCH  22  24
ENDBRANCH  20  22
ENDBRANCH   3  16
TORSDOF 6
ENDMDL
MODEL 9
REMARK VINA RESULT:      -7.9      4.784      9.036
REMARK  Name = 
REMARK  9 active torsions:
REMARK  status: ('A' for Active; 'I' for Inactive)
REMARK    1  A    between atoms: C_1  and  C_2
REMARK    2  A    between atoms: C_5  and  C_6
REMARK    3  A    between atoms: N_8  and  C_9
REMARK    4  A    between atoms: C_13  and  C_14
REMARK    5  A    between atoms: C_14  and  C_15
REMARK    6  A    between atoms: C_14  and  S_16
REMARK    7  A    between atoms: S_16  and  C_17
REMARK    8  A    between atoms: N_21  and  C_22
REMARK    9  A    between atoms: C_25  and  C_26
REMARK                            x       y       z     vdW  Elec       q    Type
REMARK                         _______ _______ _______ _____ _____    ______ ____
ROOT
ATOM      1  C   UNL     1       2.066   8.096  18.813  0.00  0.00    +0.000 C 
ATOM      2  O   UNL     1       1.790   7.996  20.006  0.00  0.00    +0.000 OA
ATOM      3  N   UNL     1       1.684   9.124  17.962  0.00  0.00    +0.000 N 
ATOM      4  H   UNL     1       1.902   8.980  16.982  0.00  0.00    +0.000 HD
ENDROOT
BRANCH   1   9
ATOM      5  C   UNL     1       5.201   3.938  16.374  0.00  0.00    +0.000 C 
ATOM      6  C   UNL     1       4.333   4.965  17.039  0.00  0.00    +0.000 A 
ATOM      7  C   UNL     1       4.642   6.323  16.898  0.00  0.00    +0.000 A 
ATOM      8  N   UNL     1       3.934   7.344  17.437  0.00  0.00    +0.000 NA
ATOM      9  C   UNL     1       2.857   6.993  18.181  0.00  0.00    +0.000 A 
ATOM     10  C   UNL     1       2.462   5.673  18.383  0.00  0.00    +0.000 A 
ATOM     11  C   UNL     1       3.202   4.629  17.803  0.00  0.00    +0.000 A 
BRANCH  11  12
ATOM     12  C   UNL     1       2.722   3.215  18.053  0.00  0.00    +0.000 C 
ATOM     13  F   UNL     1       3.634   2.390  18.633  0.00  0.00    +0.000 F 
ATOM     14  F   UNL     1       1.629   3.182  18.866  0.00  0.00    +0.000 F 
ATOM     15  F   UNL     1       2.347   2.592  16.901  0.00  0.00    +0.000 F 
ENDBRANCH  11  12
ENDBRANCH   1   9
BRANCH   3  16
ATOM     16  C   UNL     1       0.940  10.272  18.332  0.00  0.00    +0.000 A 
ATOM     17  C   UNL     1      -0.457  10.277  18.368  0.00  0.00    +0.000 A 
ATOM     18  C   UNL     1      -1.159  11.430  18.712  0.00  0.00    +0.000 A 
ATOM     19  C   UNL     1      -0.475  12.599  19.025  0.00  0.00    +0.000 A 
ATOM     20  C   UNL     1       0.928  12.633  19.005  0.00  0.00    +0.000 A 
ATOM     21  C   UNL     1       1.627  11.449  18.679  0.00  0.00    +0.000 A 
BRANCH  20  22
ATOM     22  C   UNL     1       1.686  13.918  19.356  0.00  0.00    +0.000 C 
ATOM     23  C   UNL     1       2.511  13.718  20.632  0.00  0.00    +0.000 C 
BRANCH  22  24
ATOM     24  S   UNL     1       0.527  15.339  19.565  0.00  0.00    +0.000 S 
BRANCH  24  25
ATOM     25  C   UNL     1       1.160  16.481  18.432  0.00  0.00    +0.000 A 
ATOM     26  N   UNL     1       2.394  16.545  17.987  0.00  0.00    +0.000 NA
ATOM     27  N   UNL     1       2.470  17.600  17.104  0.00  0.00    +0.000 NA
ATOM     28  C   UNL     1       1.277  18.144  17.034  0.00  0.00    +0.000 A 
ATOM     29  N   UNL     1       0.418  17.473  17.855  0.00  0.00    +0.000 N 
ATOM     30  C   UNL     1      -0.967  17.799  18.062  0.00  0.00    +0.000 C 
ENDBRANCH  24  25
ENDBRANCH  22  24
ENDBRANCH  20  22
ENDBRANCH   3  16
TORSDOF 6
ENDMDL
