MODEL 1
REMARK VINA RESULT:      -9.9      0.000      0.000
REMARK  Name = 
REMARK  9 active torsions:
REMARK  status: ('A' for Active; 'I' for Inactive)
REMARK    1  A    between atoms: C_1  and  N_2
REMARK    2  A    between atoms: C_6  and  C_7
REMARK    3  A    between atoms: C_7  and  C_8
REMARK    4  A    between atoms: C_8  and  C_9
REMARK    5  A    between atoms: C_13  and  N_14
REMARK    6  A    between atoms: C_19  and  C_20
REMARK    7  A    between atoms: C_20  and  N_21
REMARK    8  A    between atoms: C_20  and  C_26
REMARK    9  A    between atoms: C_31  and  C_32
REMARK                            x       y       z     vdW  Elec       q    Type
REMARK                         _______ _______ _______ _____ _____    ______ ____
ROOT
ATOM      1  N   UNL     1       1.832   8.267  19.422  0.00  0.00    +0.000 N 
ATOM      2  C   UNL     1       2.030   6.885  19.810  0.00  0.00    +0.000 C 
ATOM      3  C   UNL     1       2.892   6.328  18.742  0.00  0.00    +0.000 A 
ATOM      4  C   UNL     1       3.260   7.344  17.865  0.00  0.00    +0.000 A 
ATOM      5  C   UNL     1       4.164   7.115  16.842  0.00  0.00    +0.000 A 
ATOM      6  C   UNL     1       4.735   5.829  16.725  0.00  0.00    +0.000 A 
ATOM      7  C   UNL     1       4.269   4.789  17.576  0.00  0.00    +0.000 A 
ATOM      8  C   UNL     1       3.338   5.024  18.598  0.00  0.00    +0.000 A 
ATOM      9  C   UNL     1       2.549   8.586  18.269  0.00  0.00    +0.000 C 
ATOM     10  O   UNL     1       2.625   9.624  17.642  0.00  0.00    +0.000 OA
ENDROOT
BRANCH   1  15
ATOM     11  C   UNL     1      -0.726  10.940  20.041  0.00  0.00    +0.000 A 
ATOM     12  C   UNL     1      -0.820  10.867  21.437  0.00  0.00    +0.000 A 
ATOM     13  C   UNL     1      -0.102   9.909  22.171  0.00  0.00    +0.000 A 
ATOM     14  C   UNL     1       0.765   9.012  21.534  0.00  0.00    +0.000 A 
ATOM     15  C   UNL     1       0.909   9.061  20.155  0.00  0.00    +0.000 A 
ATOM     16  C   UNL     1       0.126   9.994  19.449  0.00  0.00    +0.000 A 
BRANCH  11  17
ATOM     17  C   UNL     1      -1.505  12.012  19.115  0.00  0.00    +0.000 C 
ATOM     18  C   UNL     1      -3.050  12.016  19.248  0.00  0.00    +0.000 C 
ATOM     19  O   UNL     1      -3.242  11.683  17.860  0.00  0.00    +0.000 OA
ATOM     20  C   UNL     1      -1.818  11.605  17.642  0.00  0.00    +0.000 C 
BRANCH  17  21
ATOM     21  C   UNL     1      -0.877  13.425  19.234  0.00  0.00    +0.000 C 
BRANCH  21  27
ATOM     22  C   UNL     1       1.021  14.235  21.633  0.00  0.00    +0.000 C 
ATOM     23  N   UNL     1       1.418  13.798  20.324  0.00  0.00    +0.000 N 
ATOM     24  C   UNL     1       2.704  13.682  19.895  0.00  0.00    +0.000 A 
ATOM     25  N   UNL     1       2.722  13.298  18.642  0.00  0.00    +0.000 NA
ATOM     26  N   UNL     1       1.419  13.178  18.235  0.00  0.00    +0.000 NA
ATOM     27  C   UNL     1       0.624  13.445  19.251  0.00  0.00    +0.000 A 
ENDBRANCH  21  27
ENDBRANCH  17  21
ENDBRANCH  11  17
ENDBRANCH   1  15
BRANCH   8  28
ATOM     28  C   UNL     1       2.867   3.903  19.492  0.00  0.00    +0.000 C 
ATOM     29  F   UNL     1       1.555   3.583  19.335  0.00  0.00    +0.000 F 
ATOM     30  F   UNL     1       3.564   2.755  19.285  0.00  0.00    +0.000 F 
ATOM     31  F   UNL     1       3.014   4.203  20.811  0.00  0.00    +0.000 F 
ENDBRANCH   8  28
BRANCH   6  32
ATOM     32  C   UNL     1       5.902   5.525  15.770  0.00  0.00    +0.000 C 
BRANCH  32  33
ATOM     33  N   UNL     1       7.270   5.737  16.321  0.00  0.00    +0.000 NA
ATOM     34  C   UNL     1       7.803   4.655  17.146  0.00  0.00    +0.000 C 
ATOM     35  C   UNL     1       7.540   5.087  18.575  0.00  0.00    +0.000 C 
ATOM     36  C   UNL     1       7.613   6.604  18.531  0.00  0.00    +0.000 C 
ATOM     37  C   UNL     1       7.496   6.978  17.060  0.00  0.00    +0.000 C 
ENDBRANCH  32  33
BRANCH  32  38
ATOM     38  C   UNL     1       5.711   4.190  14.947  0.00  0.00    +0.000 C 
ATOM     39  F   UNL     1       5.602   3.086  15.722  0.00  0.00    +0.000 F 
ATOM     40  F   UNL     1       4.571   4.250  14.209  0.00  0.00    +0.000 F 
ATOM     41  F   UNL     1       6.729   3.959  14.084  0.00  0.00    +0.000 F 
ENDBRANCH  32  38
ENDBRANCH   6  32
TORSDOF 8
ENDMDL
MODEL 2
REMARK VINA RESULT:      -9.8      0.691      1.186
REMARK  Name = 
REMARK  9 active torsions:
REMARK  status: ('A' for Active; 'I' for Inactive)
REMARK    1  A    between atoms: C_1  and  N_2
REMARK    2  A    between atoms: C_6  and  C_7
REMARK    3  A    between atoms: C_7  and  C_8
REMARK    4  A    between atoms: C_8  and  C_9
REMARK    5  A    between atoms: C_13  and  N_14
REMARK    6  A    between atoms: C_19  and  C_20
REMARK    7  A    between atoms: C_20  and  N_21
REMARK    8  A    between atoms: C_20  and  C_26
REMARK    9  A    between atoms: C_31  and  C_32
REMARK                            x       y       z     vdW  Elec       q    Type
REMARK                         _______ _______ _______ _____ _____    ______ ____
ROOT
ATOM      1  N   UNL     1       1.844   8.321  19.359  0.00  0.00    +0.000 N 
ATOM      2  C   UNL     1       2.036   6.945  19.768  0.00  0.00    +0.000 C 
ATOM      3  C   UNL     1       2.900   6.370  18.712  0.00  0.00    +0.000 A 
ATOM      4  C   UNL     1       3.275   7.372  17.821  0.00  0.00    +0.000 A 
ATOM      5  C   UNL     1       4.182   7.126  16.805  0.00  0.00    +0.000 A 
ATOM      6  C   UNL     1       4.749   5.837  16.709  0.00  0.00    +0.000 A 
ATOM      7  C   UNL     1       4.277   4.810  17.573  0.00  0.00    +0.000 A 
ATOM      8  C   UNL     1       3.343   5.063  18.588  0.00  0.00    +0.000 A 
ATOM      9  C   UNL     1       2.566   8.622  18.204  0.00  0.00    +0.000 C 
ATOM     10  O   UNL     1       2.648   9.650  17.562  0.00  0.00    +0.000 OA
ENDROOT
BRANCH   1  15
ATOM     11  C   UNL     1      -0.847  10.879  19.900  0.00  0.00    +0.000 A 
ATOM     12  C   UNL     1      -0.838  10.948  21.300  0.00  0.00    +0.000 A 
ATOM     13  C   UNL     1      -0.004  10.120  22.069  0.00  0.00    +0.000 A 
ATOM     14  C   UNL     1       0.877   9.217  21.461  0.00  0.00    +0.000 A 
ATOM     15  C   UNL     1       0.921   9.129  20.077  0.00  0.00    +0.000 A 
ATOM     16  C   UNL     1       0.026   9.932  19.343  0.00  0.00    +0.000 A 
BRANCH  11  17
ATOM     17  C   UNL     1      -1.762  11.796  18.933  0.00  0.00    +0.000 C 
ATOM     18  C   UNL     1      -3.056  12.362  19.574  0.00  0.00    +0.000 C 
ATOM     19  O   UNL     1      -3.905  11.690  18.625  0.00  0.00    +0.000 OA
ATOM     20  C   UNL     1      -2.768  11.072  17.987  0.00  0.00    +0.000 C 
BRANCH  17  21
ATOM     21  C   UNL     1      -0.915  12.875  18.210  0.00  0.00    +0.000 C 
BRANCH  21  27
ATOM     22  C   UNL     1       2.196  12.883  18.784  0.00  0.00    +0.000 C 
ATOM     23  N   UNL     1       1.210  13.767  19.341  0.00  0.00    +0.000 N 
ATOM     24  C   UNL     1       1.465  14.756  20.240  0.00  0.00    +0.000 A 
ATOM     25  N   UNL     1       0.347  15.350  20.576  0.00  0.00    +0.000 NA
ATOM     26  N   UNL     1      -0.666  14.725  19.897  0.00  0.00    +0.000 NA
ATOM     27  C   UNL     1      -0.153  13.790  19.123  0.00  0.00    +0.000 A 
ENDBRANCH  21  27
ENDBRANCH  17  21
ENDBRANCH  11  17
ENDBRANCH   1  15
BRANCH   8  28
ATOM     28  C   UNL     1       2.865   3.956  19.497  0.00  0.00    +0.000 C 
ATOM     29  F   UNL     1       3.029   4.216  20.821  0.00  0.00    +0.000 F 
ATOM     30  F   UNL     1       1.544   3.687  19.324  0.00  0.00    +0.000 F 
ATOM     31  F   UNL     1       3.522   2.787  19.269  0.00  0.00    +0.000 F 
ENDBRANCH   8  28
BRANCH   6  32
ATOM     32  C   UNL     1       5.919   5.515  15.763  0.00  0.00    +0.000 C 
BRANCH  32  33
ATOM     33  N   UNL     1       7.286   5.719  16.320  0.00  0.00    +0.000 NA
ATOM     34  C   UNL     1       7.814   4.628  17.136  0.00  0.00    +0.000 C 
ATOM     35  C   UNL     1       7.547   5.047  18.569  0.00  0.00    +0.000 C 
ATOM     36  C   UNL     1       7.624   6.564  18.539  0.00  0.00    +0.000 C 
ATOM     37  C   UNL     1       7.513   6.952  17.071  0.00  0.00    +0.000 C 
ENDBRANCH  32  33
BRANCH  32  38
ATOM     38  C   UNL     1       5.721   4.176  14.948  0.00  0.00    +0.000 C 
ATOM     39  F   UNL     1       5.634   3.074  15.729  0.00  0.00    +0.000 F 
ATOM     40  F   UNL     1       4.567   4.226  14.232  0.00  0.00    +0.000 F 
ATOM     41  F   UNL     1       6.723   3.949  14.066  0.00  0.00    +0.000 F 
ENDBRANCH  32  38
ENDBRANCH   6  32
TORSDOF 8
ENDMDL
MODEL 3
REMARK VINA RESULT:      -9.7      1.158      1.454
REMARK  Name = 
REMARK  9 active torsions:
REMARK  status: ('A' for Active; 'I' for Inactive)
REMARK    1  A    between atoms: C_1  and  N_2
REMARK    2  A    between atoms: C_6  and  C_7
REMARK    3  A    between atoms: C_7  and  C_8
REMARK    4  A    between atoms: C_8  and  C_9
REMARK    5  A    between atoms: C_13  and  N_14
REMARK    6  A    between atoms: C_19  and  C_20
REMARK    7  A    between atoms: C_20  and  N_21
REMARK    8  A    between atoms: C_20  and  C_26
REMARK    9  A    between atoms: C_31  and  C_32
REMARK                            x       y       z     vdW  Elec       q    Type
REMARK                         _______ _______ _______ _____ _____    ______ ____
ROOT
ATOM      1  N   UNL     1       1.877   7.976  19.619  0.00  0.00    +0.000 N 
ATOM      2  C   UNL     1       2.062   6.563  19.882  0.00  0.00    +0.000 C 
ATOM      3  C   UNL     1       2.914   6.094  18.765  0.00  0.00    +0.000 A 
ATOM      4  C   UNL     1       3.290   7.180  17.979  0.00  0.00    +0.000 A 
ATOM      5  C   UNL     1       4.187   7.034  16.935  0.00  0.00    +0.000 A 
ATOM      6  C   UNL     1       4.743   5.757  16.702  0.00  0.00    +0.000 A 
ATOM      7  C   UNL     1       4.270   4.651  17.460  0.00  0.00    +0.000 A 
ATOM      8  C   UNL     1       3.346   4.804  18.504  0.00  0.00    +0.000 A 
ATOM      9  C   UNL     1       2.594   8.389  18.495  0.00  0.00    +0.000 C 
ATOM     10  O   UNL     1       2.678   9.477  17.962  0.00  0.00    +0.000 OA
ENDROOT
BRANCH   1  15
ATOM     11  C   UNL     1      -0.439  10.766  20.580  0.00  0.00    +0.000 A 
ATOM     12  C   UNL     1      -0.697  10.417  21.913  0.00  0.00    +0.000 A 
ATOM     13  C   UNL     1      -0.172   9.245  22.480  0.00  0.00    +0.000 A 
ATOM     14  C   UNL     1       0.663   8.396  21.740  0.00  0.00    +0.000 A 
ATOM     15  C   UNL     1       0.967   8.712  20.424  0.00  0.00    +0.000 A 
ATOM     16  C   UNL     1       0.370   9.862  19.874  0.00  0.00    +0.000 A 
BRANCH  11  17
ATOM     17  C   UNL     1      -0.991  12.095  19.846  0.00  0.00    +0.000 C 
ATOM     18  C   UNL     1      -2.141  11.872  18.830  0.00  0.00    +0.000 C 
ATOM     19  O   UNL     1      -1.370  12.397  17.733  0.00  0.00    +0.000 OA
ATOM     20  C   UNL     1      -0.223  12.599  18.585  0.00  0.00    +0.000 C 
BRANCH  17  21
ATOM     21  C   UNL     1      -1.288  13.223  20.868  0.00  0.00    +0.000 C 
BRANCH  21  27
ATOM     22  C   UNL     1      -0.612  16.171  19.940  0.00  0.00    +0.000 C 
ATOM     23  N   UNL     1       0.158  15.344  20.826  0.00  0.00    +0.000 N 
ATOM     24  C   UNL     1       1.337  15.703  21.402  0.00  0.00    +0.000 A 
ATOM     25  N   UNL     1       1.799  14.710  22.122  0.00  0.00    +0.000 NA
ATOM     26  N   UNL     1       0.913  13.671  22.001  0.00  0.00    +0.000 NA
ATOM     27  C   UNL     1      -0.098  14.055  21.248  0.00  0.00    +0.000 A 
ENDBRANCH  21  27
ENDBRANCH  17  21
ENDBRANCH  11  17
ENDBRANCH   1  15
BRANCH   8  28
ATOM     28  C   UNL     1       2.866   3.613  19.297  0.00  0.00    +0.000 C 
ATOM     29  F   UNL     1       1.514   3.472  19.323  0.00  0.00    +0.000 F 
ATOM     30  F   UNL     1       3.360   2.442  18.814  0.00  0.00    +0.000 F 
ATOM     31  F   UNL     1       3.252   3.676  20.600  0.00  0.00    +0.000 F 
ENDBRANCH   8  28
BRANCH   6  32
ATOM     32  C   UNL     1       5.903   5.526  15.718  0.00  0.00    +0.000 C 
BRANCH  32  33
ATOM     33  N   UNL     1       7.275   5.734  16.263  0.00  0.00    +0.000 NA
ATOM     34  C   UNL     1       7.795   4.664  17.111  0.00  0.00    +0.000 C 
ATOM     35  C   UNL     1       7.539   5.130  18.531  0.00  0.00    +0.000 C 
ATOM     36  C   UNL     1       7.630   6.644  18.454  0.00  0.00    +0.000 C 
ATOM     37  C   UNL     1       7.516   6.988  16.975  0.00  0.00    +0.000 C 
ENDBRANCH  32  33
BRANCH  32  38
ATOM     38  C   UNL     1       5.726   4.235  14.826  0.00  0.00    +0.000 C 
ATOM     39  F   UNL     1       4.566   4.212  14.128  0.00  0.00    +0.000 F 
ATOM     40  F   UNL     1       6.723   4.157  13.906  0.00  0.00    +0.000 F 
ATOM     41  F   UNL     1       5.766   3.091  15.550  0.00  0.00    +0.000 F 
ENDBRANCH  32  38
ENDBRANCH   6  32
TORSDOF 8
ENDMDL
MODEL 4
REMARK VINA RESULT:      -9.7      4.079      9.392
REMARK  Name = 
REMARK  9 active torsions:
REMARK  status: ('A' for Active; 'I' for Inactive)
REMARK    1  A    between atoms: C_1  and  N_2
REMARK    2  A    between atoms: C_6  and  C_7
REMARK    3  A    between atoms: C_7  and  C_8
REMARK    4  A    between atoms: C_8  and  C_9
REMARK    5  A    between atoms: C_13  and  N_14
REMARK    6  A    between atoms: C_19  and  C_20
REMARK    7  A    between atoms: C_20  and  N_21
REMARK    8  A    between atoms: C_20  and  C_26
REMARK    9  A    between atoms: C_31  and  C_32
REMARK                            x       y       z     vdW  Elec       q    Type
REMARK                         _______ _______ _______ _____ _____    ______ ____
ROOT
ATOM      1  N   UNL     1       2.376   7.282  19.336  0.00  0.00    +0.000 N 
ATOM      2  C   UNL     1       1.599   7.640  20.505  0.00  0.00    +0.000 C 
ATOM      3  C   UNL     1       1.019   8.960  20.165  0.00  0.00    +0.000 A 
ATOM      4  C   UNL     1       1.341   9.284  18.850  0.00  0.00    +0.000 A 
ATOM      5  C   UNL     1       0.821  10.413  18.241  0.00  0.00    +0.000 A 
ATOM      6  C   UNL     1      -0.078  11.218  18.975  0.00  0.00    +0.000 A 
ATOM      7  C   UNL     1      -0.314  10.913  20.344  0.00  0.00    +0.000 A 
ATOM      8  C   UNL     1       0.232   9.778  20.960  0.00  0.00    +0.000 A 
ATOM      9  C   UNL     1       2.250   8.231  18.322  0.00  0.00    +0.000 C 
ATOM     10  O   UNL     1       2.751   8.286  17.216  0.00  0.00    +0.000 OA
ENDROOT
BRANCH   1  15
ATOM     11  C   UNL     1       5.454   5.190  18.859  0.00  0.00    +0.000 A 
ATOM     12  C   UNL     1       4.950   3.933  19.222  0.00  0.00    +0.000 A 
ATOM     13  C   UNL     1       3.633   3.775  19.680  0.00  0.00    +0.000 A 
ATOM     14  C   UNL     1       2.759   4.867  19.759  0.00  0.00    +0.000 A 
ATOM     15  C   UNL     1       3.205   6.129  19.388  0.00  0.00    +0.000 A 
ATOM     16  C   UNL     1       4.550   6.256  18.993  0.00  0.00    +0.000 A 
BRANCH  11  17
ATOM     17  C   UNL     1       6.949   5.468  18.313  0.00  0.00    +0.000 C 
ATOM     18  C   UNL     1       8.006   5.809  19.396  0.00  0.00    +0.000 C 
ATOM     19  O   UNL     1       8.278   7.103  18.825  0.00  0.00    +0.000 OA
ATOM     20  C   UNL     1       7.280   6.904  17.803  0.00  0.00    +0.000 C 
BRANCH  17  21
ATOM     21  C   UNL     1       7.411   4.355  17.338  0.00  0.00    +0.000 C 
BRANCH  21  27
ATOM     22  C   UNL     1       4.779   3.336  15.908  0.00  0.00    +0.000 C 
ATOM     23  N   UNL     1       5.838   4.109  15.323  0.00  0.00    +0.000 N 
ATOM     24  C   UNL     1       5.885   4.516  14.025  0.00  0.00    +0.000 A 
ATOM     25  N   UNL     1       7.001   5.166  13.803  0.00  0.00    +0.000 NA
ATOM     26  N   UNL     1       7.710   5.170  14.976  0.00  0.00    +0.000 NA
ATOM     27  C   UNL     1       7.003   4.564  15.909  0.00  0.00    +0.000 A 
ENDBRANCH  21  27
ENDBRANCH  17  21
ENDBRANCH  11  17
ENDBRANCH   1  15
BRANCH   8  28
ATOM     28  C   UNL     1      -0.041   9.474  22.413  0.00  0.00    +0.000 C 
ATOM     29  F   UNL     1      -0.691  10.469  23.075  0.00  0.00    +0.000 F 
ATOM     30  F   UNL     1      -0.801   8.357  22.568  0.00  0.00    +0.000 F 
ATOM     31  F   UNL     1       1.103   9.254  23.115  0.00  0.00    +0.000 F 
ENDBRANCH   8  28
BRANCH   6  32
ATOM     32  C   UNL     1      -0.878  12.363  18.333  0.00  0.00    +0.000 C 
BRANCH  32  33
ATOM     33  N   UNL     1      -2.231  12.008  17.817  0.00  0.00    +0.000 NA
ATOM     34  C   UNL     1      -2.973  11.020  18.597  0.00  0.00    +0.000 C 
ATOM     35  C   UNL     1      -2.739   9.703  17.884  0.00  0.00    +0.000 C 
ATOM     36  C   UNL     1      -2.577  10.088  16.423  0.00  0.00    +0.000 C 
ATOM     37  C   UNL     1      -2.312  11.587  16.420  0.00  0.00    +0.000 C 
ENDBRANCH  32  33
BRANCH  32  38
ATOM     38  C   UNL     1      -0.805  13.717  19.145  0.00  0.00    +0.000 C 
ATOM     39  F   UNL     1      -0.701  14.815  18.360  0.00  0.00    +0.000 F 
ATOM     40  F   UNL     1      -1.934  13.884  19.883  0.00  0.00    +0.000 F 
ATOM     41  F   UNL     1       0.239  13.754  20.006  0.00  0.00    +0.000 F 
ENDBRANCH  32  38
ENDBRANCH   6  32
TORSDOF 8
ENDMDL
MODEL 5
REMARK VINA RESULT:      -9.6      0.506      1.257
REMARK  Name = 
REMARK  9 active torsions:
REMARK  status: ('A' for Active; 'I' for Inactive)
REMARK    1  A    between atoms: C_1  and  N_2
REMARK    2  A    between atoms: C_6  and  C_7
REMARK    3  A    between atoms: C_7  and  C_8
REMARK    4  A    between atoms: C_8  and  C_9
REMARK    5  A    between atoms: C_13  and  N_14
REMARK    6  A    between atoms: C_19  and  C_20
REMARK    7  A    between atoms: C_20  and  N_21
REMARK    8  A    between atoms: C_20  and  C_26
REMARK    9  A    between atoms: C_31  and  C_32
REMARK                            x       y       z     vdW  Elec       q    Type
REMARK                         _______ _______ _______ _____ _____    ______ ____
ROOT
ATOM      1  N   UNL     1       1.843   8.193  19.501  0.00  0.00    +0.000 N 
ATOM      2  C   UNL     1       2.068   6.812  19.879  0.00  0.00    +0.000 C 
ATOM      3  C   UNL     1       2.917   6.272  18.792  0.00  0.00    +0.000 A 
ATOM      4  C   UNL     1       3.254   7.298  17.913  0.00  0.00    +0.000 A 
ATOM      5  C   UNL     1       4.142   7.087  16.872  0.00  0.00    +0.000 A 
ATOM      6  C   UNL     1       4.728   5.809  16.738  0.00  0.00    +0.000 A 
ATOM      7  C   UNL     1       4.293   4.759  17.592  0.00  0.00    +0.000 A 
ATOM      8  C   UNL     1       3.379   4.976  18.633  0.00  0.00    +0.000 A 
ATOM      9  C   UNL     1       2.534   8.528  18.336  0.00  0.00    +0.000 C 
ATOM     10  O   UNL     1       2.583   9.569  17.713  0.00  0.00    +0.000 OA
ENDROOT
BRANCH   1  15
ATOM     11  C   UNL     1      -0.643  10.911  20.213  0.00  0.00    +0.000 A 
ATOM     12  C   UNL     1      -0.786  10.751  21.599  0.00  0.00    +0.000 A 
ATOM     13  C   UNL     1      -0.126   9.723  22.290  0.00  0.00    +0.000 A 
ATOM     14  C   UNL     1       0.731   8.838  21.623  0.00  0.00    +0.000 A 
ATOM     15  C   UNL     1       0.924   8.971  20.255  0.00  0.00    +0.000 A 
ATOM     16  C   UNL     1       0.196   9.975  19.588  0.00  0.00    +0.000 A 
BRANCH  11  17
ATOM     17  C   UNL     1      -1.354  12.066  19.335  0.00  0.00    +0.000 C 
ATOM     18  C   UNL     1      -2.897  11.964  19.215  0.00  0.00    +0.000 C 
ATOM     19  O   UNL     1      -2.848  11.837  17.781  0.00  0.00    +0.000 OA
ATOM     20  C   UNL     1      -1.406  11.873  17.789  0.00  0.00    +0.000 C 
BRANCH  17  21
ATOM     21  C   UNL     1      -0.866  13.477  19.756  0.00  0.00    +0.000 C 
BRANCH  21  27
ATOM     22  C   UNL     1       1.818  13.261  18.096  0.00  0.00    +0.000 C 
ATOM     23  N   UNL     1       1.690  13.434  19.515  0.00  0.00    +0.000 N 
ATOM     24  C   UNL     1       2.729  13.513  20.390  0.00  0.00    +0.000 A 
ATOM     25  N   UNL     1       2.271  13.630  21.613  0.00  0.00    +0.000 NA
ATOM     26  N   UNL     1       0.903  13.608  21.540  0.00  0.00    +0.000 NA
ATOM     27  C   UNL     1       0.541  13.524  20.276  0.00  0.00    +0.000 A 
ENDBRANCH  21  27
ENDBRANCH  17  21
ENDBRANCH  11  17
ENDBRANCH   1  15
BRANCH   8  28
ATOM     28  C   UNL     1       2.940   3.844  19.530  0.00  0.00    +0.000 C 
ATOM     29  F   UNL     1       3.026   4.124  20.858  0.00  0.00    +0.000 F 
ATOM     30  F   UNL     1       1.650   3.481  19.303  0.00  0.00    +0.000 F 
ATOM     31  F   UNL     1       3.687   2.723  19.344  0.00  0.00    +0.000 F 
ENDBRANCH   8  28
BRANCH   6  32
ATOM     32  C   UNL     1       5.880   5.526  15.759  0.00  0.00    +0.000 C 
BRANCH  32  33
ATOM     33  N   UNL     1       7.257   5.722  16.296  0.00  0.00    +0.000 NA
ATOM     34  C   UNL     1       7.747   4.682  17.198  0.00  0.00    +0.000 C 
ATOM     35  C   UNL     1       7.503   5.226  18.592  0.00  0.00    +0.000 C 
ATOM     36  C   UNL     1       7.637   6.731  18.438  0.00  0.00    +0.000 C 
ATOM     37  C   UNL     1       7.534   7.002  16.943  0.00  0.00    +0.000 C 
ENDBRANCH  32  33
BRANCH  32  38
ATOM     38  C   UNL     1       5.675   4.212  14.907  0.00  0.00    +0.000 C 
ATOM     39  F   UNL     1       6.761   3.865  14.176  0.00  0.00    +0.000 F 
ATOM     40  F   UNL     1       5.414   3.156  15.722  0.00  0.00    +0.000 F 
ATOM     41  F   UNL     1       4.639   4.307  14.040  0.00  0.00    +0.000 F 
ENDBRANCH  32  38
ENDBRANCH   6  32
TORSDOF 8
ENDMDL
MODEL 6
REMARK VINA RESULT:      -9.6      1.811      2.750
REMARK  Name = 
REMARK  9 active torsions:
REMARK  status: ('A' for Active; 'I' for Inactive)
REMARK    1  A    between atoms: C_1  and  N_2
REMARK    2  A    between atoms: C_6  and  C_7
REMARK    3  A    between atoms: C_7  and  C_8
REMARK    4  A    between atoms: C_8  and  C_9
REMARK    5  A    between atoms: C_13  and  N_14
REMARK    6  A    between atoms: C_19  and  C_20
REMARK    7  A    between atoms: C_20  and  N_21
REMARK    8  A    between atoms: C_20  and  C_26
REMARK    9  A    between atoms: C_31  and  C_32
REMARK                            x       y       z     vdW  Elec       q    Type
REMARK                         _______ _______ _______ _____ _____    ______ ____
ROOT
ATOM      1  N   UNL     1       1.849   8.136  19.465  0.00  0.00    +0.000 N 
ATOM      2  C   UNL     1       2.064   6.750  19.825  0.00  0.00    +0.000 C 
ATOM      3  C   UNL     1       2.925   6.222  18.742  0.00  0.00    +0.000 A 
ATOM      4  C   UNL     1       3.278   7.259  17.883  0.00  0.00    +0.000 A 
ATOM      5  C   UNL     1       4.179   7.059  16.851  0.00  0.00    +0.000 A 
ATOM      6  C   UNL     1       4.762   5.782  16.706  0.00  0.00    +0.000 A 
ATOM      7  C   UNL     1       4.313   4.721  17.539  0.00  0.00    +0.000 A 
ATOM      8  C   UNL     1       3.385   4.926  18.571  0.00  0.00    +0.000 A 
ATOM      9  C   UNL     1       2.556   8.485  18.314  0.00  0.00    +0.000 C 
ATOM     10  O   UNL     1       2.618   9.536  17.706  0.00  0.00    +0.000 OA
ENDROOT
BRANCH   1  15
ATOM     11  C   UNL     1      -0.250  11.100  20.407  0.00  0.00    +0.000 A 
ATOM     12  C   UNL     1      -0.733  10.669  21.650  0.00  0.00    +0.000 A 
ATOM     13  C   UNL     1      -0.430   9.394  22.152  0.00  0.00    +0.000 A 
ATOM     14  C   UNL     1       0.400   8.516  21.442  0.00  0.00    +0.000 A 
ATOM     15  C   UNL     1       0.922   8.907  20.217  0.00  0.00    +0.000 A 
ATOM     16  C   UNL     1       0.544  10.168  19.720  0.00  0.00    +0.000 A 
BRANCH  11  17
ATOM     17  C   UNL     1      -0.537  12.549  19.752  0.00  0.00    +0.000 C 
ATOM     18  C   UNL     1       0.646  13.552  19.798  0.00  0.00    +0.000 C 
ATOM     19  O   UNL     1      -0.098  14.503  20.583  0.00  0.00    +0.000 OA
ATOM     20  C   UNL     1      -1.238  13.621  20.643  0.00  0.00    +0.000 C 
BRANCH  17  21
ATOM     21  C   UNL     1      -1.173  12.418  18.344  0.00  0.00    +0.000 C 
BRANCH  21  27
ATOM     22  C   UNL     1      -2.112   9.899  16.676  0.00  0.00    +0.000 C 
ATOM     23  N   UNL     1      -2.902  10.676  17.589  0.00  0.00    +0.000 N 
ATOM     24  C   UNL     1      -4.215  10.456  17.870  0.00  0.00    +0.000 A 
ATOM     25  N   UNL     1      -4.648  11.364  18.711  0.00  0.00    +0.000 NA
ATOM     26  N   UNL     1      -3.601  12.209  18.973  0.00  0.00    +0.000 NA
ATOM     27  C   UNL     1      -2.533  11.784  18.328  0.00  0.00    +0.000 A 
ENDBRANCH  21  27
ENDBRANCH  17  21
ENDBRANCH  11  17
ENDBRANCH   1  15
BRANCH   8  28
ATOM     28  C   UNL     1       2.930   3.784  19.446  0.00  0.00    +0.000 C 
ATOM     29  F   UNL     1       1.622   3.449  19.286  0.00  0.00    +0.000 F 
ATOM     30  F   UNL     1       3.642   2.648  19.217  0.00  0.00    +0.000 F 
ATOM     31  F   UNL     1       3.077   4.062  20.770  0.00  0.00    +0.000 F 
ENDBRANCH   8  28
BRANCH   6  32
ATOM     32  C   UNL     1       5.927   5.508  15.739  0.00  0.00    +0.000 C 
BRANCH  32  33
ATOM     33  N   UNL     1       7.297   5.707  16.293  0.00  0.00    +0.000 NA
ATOM     34  C   UNL     1       7.809   4.628  17.135  0.00  0.00    +0.000 C 
ATOM     35  C   UNL     1       7.547   5.085  18.557  0.00  0.00    +0.000 C 
ATOM     36  C   UNL     1       7.645   6.599  18.491  0.00  0.00    +0.000 C 
ATOM     37  C   UNL     1       7.540   6.954  17.014  0.00  0.00    +0.000 C 
ENDBRANCH  32  33
BRANCH  32  38
ATOM     38  C   UNL     1       5.737   4.198  14.877  0.00  0.00    +0.000 C 
ATOM     39  F   UNL     1       5.738   3.061  15.611  0.00  0.00    +0.000 F 
ATOM     40  F   UNL     1       4.543   4.230  14.229  0.00  0.00    +0.000 F 
ATOM     41  F   UNL     1       6.695   4.051  13.932  0.00  0.00    +0.000 F 
ENDBRANCH  32  38
ENDBRANCH   6  32
TORSDOF 8
ENDMDL
MODEL 7
REMARK VINA RESULT:      -9.6      1.744      2.795
REMARK  Name = 
REMARK  9 active torsions:
REMARK  status: ('A' for Active; 'I' for Inactive)
REMARK    1  A    between atoms: C_1  and  N_2
REMARK    2  A    between atoms: C_6  and  C_7
REMARK    3  A    between atoms: C_7  and  C_8
REMARK    4  A    between atoms: C_8  and  C_9
REMARK    5  A    between atoms: C_13  and  N_14
REMARK    6  A    between atoms: C_19  and  C_20
REMARK    7  A    between atoms: C_20  and  N_21
REMARK    8  A    between atoms: C_20  and  C_26
REMARK    9  A    between atoms: C_31  and  C_32
REMARK                            x       y       z     vdW  Elec       q    Type
REMARK                         _______ _______ _______ _____ _____    ______ ____
ROOT
ATOM      1  N   UNL     1       1.894   7.986  19.635  0.00  0.00    +0.000 N 
ATOM      2  C   UNL     1       2.084   6.576  19.912  0.00  0.00    +0.000 C 
ATOM      3  C   UNL     1       2.927   6.096  18.793  0.00  0.00    +0.000 A 
ATOM      4  C   UNL     1       3.295   7.175  17.993  0.00  0.00    +0.000 A 
ATOM      5  C   UNL     1       4.184   7.018  16.943  0.00  0.00    +0.000 A 
ATOM      6  C   UNL     1       4.740   5.740  16.720  0.00  0.00    +0.000 A 
ATOM      7  C   UNL     1       4.274   4.641  17.492  0.00  0.00    +0.000 A 
ATOM      8  C   UNL     1       3.358   4.804  18.542  0.00  0.00    +0.000 A 
ATOM      9  C   UNL     1       2.601   8.388  18.501  0.00  0.00    +0.000 C 
ATOM     10  O   UNL     1       2.679   9.471  17.956  0.00  0.00    +0.000 OA
ENDROOT
BRANCH   1  15
ATOM     11  C   UNL     1       0.191  11.008  21.064  0.00  0.00    +0.000 A 
ATOM     12  C   UNL     1      -0.579  10.401  22.066  0.00  0.00    +0.000 A 
ATOM     13  C   UNL     1      -0.593   9.007  22.236  0.00  0.00    +0.000 A 
ATOM     14  C   UNL     1       0.192   8.173  21.430  0.00  0.00    +0.000 A 
ATOM     15  C   UNL     1       0.989   8.729  20.440  0.00  0.00    +0.000 A 
ATOM     16  C   UNL     1       0.929  10.124  20.260  0.00  0.00    +0.000 A 
BRANCH  11  17
ATOM     17  C   UNL     1       0.279  12.600  20.799  0.00  0.00    +0.000 C 
ATOM     18  C   UNL     1       1.695  13.222  20.916  0.00  0.00    +0.000 C 
ATOM     19  O   UNL     1       1.298  14.100  21.986  0.00  0.00    +0.000 OA
ATOM     20  C   UNL     1      -0.037  13.552  21.993  0.00  0.00    +0.000 C 
BRANCH  17  21
ATOM     21  C   UNL     1      -0.457  12.997  19.493  0.00  0.00    +0.000 C 
BRANCH  21  27
ATOM     22  C   UNL     1      -1.879  10.937  17.557  0.00  0.00    +0.000 C 
ATOM     23  N   UNL     1      -2.493  11.714  18.597  0.00  0.00    +0.000 N 
ATOM     24  C   UNL     1      -3.818  11.698  18.905  0.00  0.00    +0.000 A 
ATOM     25  N   UNL     1      -4.059  12.547  19.875  0.00  0.00    +0.000 NA
ATOM     26  N   UNL     1      -2.868  13.145  20.196  0.00  0.00    +0.000 NA
ATOM     27  C   UNL     1      -1.911  12.626  19.455  0.00  0.00    +0.000 A 
ENDBRANCH  21  27
ENDBRANCH  17  21
ENDBRANCH  11  17
ENDBRANCH   1  15
BRANCH   8  28
ATOM     28  C   UNL     1       2.887   3.621  19.352  0.00  0.00    +0.000 C 
ATOM     29  F   UNL     1       3.436   2.436  18.975  0.00  0.00    +0.000 F 
ATOM     30  F   UNL     1       3.165   3.763  20.676  0.00  0.00    +0.000 F 
ATOM     31  F   UNL     1       1.540   3.445  19.266  0.00  0.00    +0.000 F 
ENDBRANCH   8  28
BRANCH   6  32
ATOM     32  C   UNL     1       5.892   5.501  15.729  0.00  0.00    +0.000 C 
BRANCH  32  33
ATOM     33  N   UNL     1       7.268   5.705  16.263  0.00  0.00    +0.000 NA
ATOM     34  C   UNL     1       7.756   4.681  17.184  0.00  0.00    +0.000 C 
ATOM     35  C   UNL     1       7.510   5.250  18.568  0.00  0.00    +0.000 C 
ATOM     36  C   UNL     1       7.646   6.752  18.388  0.00  0.00    +0.000 C 
ATOM     37  C   UNL     1       7.545   6.997  16.889  0.00  0.00    +0.000 C 
ENDBRANCH  32  33
BRANCH  32  38
ATOM     38  C   UNL     1       5.703   4.206  14.843  0.00  0.00    +0.000 C 
ATOM     39  F   UNL     1       4.567   4.212  14.108  0.00  0.00    +0.000 F 
ATOM     40  F   UNL     1       6.727   4.088  13.957  0.00  0.00    +0.000 F 
ATOM     41  F   UNL     1       5.684   3.069  15.578  0.00  0.00    +0.000 F 
ENDBRANCH  32  38
ENDBRANCH   6  32
TORSDOF 8
ENDMDL
MODEL 8
REMARK VINA RESULT:      -9.6      2.826      3.893
REMARK  Name = 
REMARK  9 active torsions:
REMARK  status: ('A' for Active; 'I' for Inactive)
REMARK    1  A    between atoms: C_1  and  N_2
REMARK    2  A    between atoms: C_6  and  C_7
REMARK    3  A    between atoms: C_7  and  C_8
REMARK    4  A    between atoms: C_8  and  C_9
REMARK    5  A    between atoms: C_13  and  N_14
REMARK    6  A    between atoms: C_19  and  C_20
REMARK    7  A    between atoms: C_20  and  N_21
REMARK    8  A    between atoms: C_20  and  C_26
REMARK    9  A    between atoms: C_31  and  C_32
REMARK                            x       y       z     vdW  Elec       q    Type
REMARK                         _______ _______ _______ _____ _____    ______ ____
ROOT
ATOM      1  N   UNL     1       1.457   8.874  19.292  0.00  0.00    +0.000 N 
ATOM      2  C   UNL     1       1.502   7.618  20.013  0.00  0.00    +0.000 C 
ATOM      3  C   UNL     1       2.521   6.821  19.290  0.00  0.00    +0.000 A 
ATOM      4  C   UNL     1       3.105   7.605  18.299  0.00  0.00    +0.000 A 
ATOM      5  C   UNL     1       4.175   7.138  17.554  0.00  0.00    +0.000 A 
ATOM      6  C   UNL     1       4.686   5.855  17.845  0.00  0.00    +0.000 A 
ATOM      7  C   UNL     1       4.011   5.043  18.797  0.00  0.00    +0.000 A 
ATOM      8  C   UNL     1       2.915   5.516  19.535  0.00  0.00    +0.000 A 
ATOM      9  C   UNL     1       2.398   8.913  18.263  0.00  0.00    +0.000 C 
ATOM     10  O   UNL     1       2.649   9.777  17.447  0.00  0.00    +0.000 OA
ENDROOT
BRANCH   1  15
ATOM     11  C   UNL     1      -1.674  10.905  18.913  0.00  0.00    +0.000 A 
ATOM     12  C   UNL     1      -1.532  11.776  20.002  0.00  0.00    +0.000 A 
ATOM     13  C   UNL     1      -0.454  11.663  20.894  0.00  0.00    +0.000 A 
ATOM     14  C   UNL     1       0.541  10.694  20.707  0.00  0.00    +0.000 A 
ATOM     15  C   UNL     1       0.456   9.824  19.629  0.00  0.00    +0.000 A 
ATOM     16  C   UNL     1      -0.672   9.930  18.793  0.00  0.00    +0.000 A 
BRANCH  11  17
ATOM     17  C   UNL     1      -2.872  10.964  17.830  0.00  0.00    +0.000 C 
ATOM     18  C   UNL     1      -3.546   9.606  17.501  0.00  0.00    +0.000 C 
ATOM     19  O   UNL     1      -3.185   9.683  16.109  0.00  0.00    +0.000 OA
ATOM     20  C   UNL     1      -2.487  10.928  16.319  0.00  0.00    +0.000 C 
BRANCH  17  21
ATOM     21  C   UNL     1      -3.889  12.084  18.171  0.00  0.00    +0.000 C 
BRANCH  21  27
ATOM     22  C   UNL     1      -4.944  12.614  21.107  0.00  0.00    +0.000 C 
ATOM     23  N   UNL     1      -5.599  11.862  20.074  0.00  0.00    +0.000 N 
ATOM     24  C   UNL     1      -6.795  11.228  20.208  0.00  0.00    +0.000 A 
ATOM     25  N   UNL     1      -7.093  10.601  19.096  0.00  0.00    +0.000 NA
ATOM     26  N   UNL     1      -6.061  10.814  18.220  0.00  0.00    +0.000 NA
ATOM     27  C   UNL     1      -5.170  11.601  18.788  0.00  0.00    +0.000 A 
ENDBRANCH  21  27
ENDBRANCH  17  21
ENDBRANCH  11  17
ENDBRANCH   1  15
BRANCH   8  28
ATOM     28  C   UNL     1       2.221   4.636  20.545  0.00  0.00    +0.000 C 
ATOM     29  F   UNL     1       0.875   4.551  20.375  0.00  0.00    +0.000 F 
ATOM     30  F   UNL     1       2.688   3.359  20.520  0.00  0.00    +0.000 F 
ATOM     31  F   UNL     1       2.401   5.079  21.819  0.00  0.00    +0.000 F 
ENDBRANCH   8  28
BRANCH   6  32
ATOM     32  C   UNL     1       5.996   5.328  17.235  0.00  0.00    +0.000 C 
BRANCH  32  33
ATOM     33  N   UNL     1       6.251   5.697  15.813  0.00  0.00    +0.000 NA
ATOM     34  C   UNL     1       5.097   5.632  14.919  0.00  0.00    +0.000 C 
ATOM     35  C   UNL     1       5.214   4.288  14.226  0.00  0.00    +0.000 C 
ATOM     36  C   UNL     1       6.710   4.034  14.147  0.00  0.00    +0.000 C 
ATOM     37  C   UNL     1       7.344   5.000  15.138  0.00  0.00    +0.000 C 
ENDBRANCH  32  33
BRANCH  32  38
ATOM     38  C   UNL     1       7.242   5.470  18.196  0.00  0.00    +0.000 C 
ATOM     39  F   UNL     1       6.912   5.515  19.508  0.00  0.00    +0.000 F 
ATOM     40  F   UNL     1       8.073   4.404  18.051  0.00  0.00    +0.000 F 
ATOM     41  F   UNL     1       7.975   6.579  17.941  0.00  0.00    +0.000 F 
ENDBRANCH  32  38
ENDBRANCH   6  32
TORSDOF 8
ENDMDL
MODEL 9
REMARK VINA RESULT:      -9.5      1.994      2.730
REMARK  Name = 
REMARK  9 active torsions:
REMARK  status: ('A' for Active; 'I' for Inactive)
REMARK    1  A    between atoms: C_1  and  N_2
REMARK    2  A    between atoms: C_6  and  C_7
REMARK    3  A    between atoms: C_7  and  C_8
REMARK    4  A    between atoms: C_8  and  C_9
REMARK    5  A    between atoms: C_13  and  N_14
REMARK    6  A    between atoms: C_19  and  C_20
REMARK    7  A    between atoms: C_20  and  N_21
REMARK    8  A    between atoms: C_20  and  C_26
REMARK    9  A    between atoms: C_31  and  C_32
REMARK                            x       y       z     vdW  Elec       q    Type
REMARK                         _______ _______ _______ _____ _____    ______ ____
ROOT
ATOM      1  N   UNL     1       1.841   8.206  19.535  0.00  0.00    +0.000 N 
ATOM      2  C   UNL     1       2.046   6.815  19.883  0.00  0.00    +0.000 C 
ATOM      3  C   UNL     1       2.889   6.286  18.786  0.00  0.00    +0.000 A 
ATOM      4  C   UNL     1       3.243   7.326  17.930  0.00  0.00    +0.000 A 
ATOM      5  C   UNL     1       4.130   7.125  16.887  0.00  0.00    +0.000 A 
ATOM      6  C   UNL     1       4.698   5.842  16.726  0.00  0.00    +0.000 A 
ATOM      7  C   UNL     1       4.247   4.780  17.556  0.00  0.00    +0.000 A 
ATOM      8  C   UNL     1       3.334   4.987  18.600  0.00  0.00    +0.000 A 
ATOM      9  C   UNL     1       2.539   8.556  18.379  0.00  0.00    +0.000 C 
ATOM     10  O   UNL     1       2.604   9.611  17.778  0.00  0.00    +0.000 OA
ENDROOT
BRANCH   1  15
ATOM     11  C   UNL     1      -0.774  10.799  20.250  0.00  0.00    +0.000 A 
ATOM     12  C   UNL     1      -0.791  10.746  21.650  0.00  0.00    +0.000 A 
ATOM     13  C   UNL     1      -0.001   9.827  22.359  0.00  0.00    +0.000 A 
ATOM     14  C   UNL     1       0.862   8.950  21.690  0.00  0.00    +0.000 A 
ATOM     15  C   UNL     1       0.931   8.980  20.304  0.00  0.00    +0.000 A 
ATOM     16  C   UNL     1       0.079   9.874  19.628  0.00  0.00    +0.000 A 
BRANCH  11  17
ATOM     17  C   UNL     1      -1.638  11.827  19.350  0.00  0.00    +0.000 C 
ATOM     18  C   UNL     1      -2.690  11.177  18.414  0.00  0.00    +0.000 C 
ATOM     19  O   UNL     1      -2.070  11.711  17.229  0.00  0.00    +0.000 OA
ATOM     20  C   UNL     1      -1.015  12.315  18.006  0.00  0.00    +0.000 C 
BRANCH  17  21
ATOM     21  C   UNL     1      -2.215  12.983  20.209  0.00  0.00    +0.000 C 
BRANCH  21  27
ATOM     22  C   UNL     1      -3.498  12.554  23.068  0.00  0.00    +0.000 C 
ATOM     23  N   UNL     1      -4.192  12.666  21.816  0.00  0.00    +0.000 N 
ATOM     24  C   UNL     1      -5.541  12.582  21.659  0.00  0.00    +0.000 A 
ATOM     25  N   UNL     1      -5.848  12.685  20.389  0.00  0.00    +0.000 NA
ATOM     26  N   UNL     1      -4.673  12.821  19.696  0.00  0.00    +0.000 NA
ATOM     27  C   UNL     1      -3.670  12.844  20.550  0.00  0.00    +0.000 A 
ENDBRANCH  21  27
ENDBRANCH  17  21
ENDBRANCH  11  17
ENDBRANCH   1  15
BRANCH   8  28
ATOM     28  C   UNL     1       2.877   3.843  19.472  0.00  0.00    +0.000 C 
ATOM     29  F   UNL     1       3.510   2.666  19.219  0.00  0.00    +0.000 F 
ATOM     30  F   UNL     1       3.067   4.098  20.794  0.00  0.00    +0.000 F 
ATOM     31  F   UNL     1       1.550   3.583  19.324  0.00  0.00    +0.000 F 
ENDBRANCH   8  28
BRANCH   6  32
ATOM     32  C   UNL     1       5.849   5.564  15.744  0.00  0.00    +0.000 C 
BRANCH  32  33
ATOM     33  N   UNL     1       7.227   5.767  16.276  0.00  0.00    +0.000 NA
ATOM     34  C   UNL     1       7.772   4.671  17.074  0.00  0.00    +0.000 C 
ATOM     35  C   UNL     1       7.532   5.080  18.514  0.00  0.00    +0.000 C 
ATOM     36  C   UNL     1       7.606   6.597  18.493  0.00  0.00    +0.000 C 
ATOM     37  C   UNL     1       7.466   6.995  17.031  0.00  0.00    +0.000 C 
ENDBRANCH  32  33
BRANCH  32  38
ATOM     38  C   UNL     1       5.647   4.249  14.892  0.00  0.00    +0.000 C 
ATOM     39  F   UNL     1       6.648   4.015  14.011  0.00  0.00    +0.000 F 
ATOM     40  F   UNL     1       5.599   3.162  15.707  0.00  0.00    +0.000 F 
ATOM     41  F   UNL     1       4.496   4.260  14.179  0.00  0.00    +0.000 F 
ENDBRANCH  32  38
ENDBRANCH   6  32
TORSDOF 8
ENDMDL
