MODEL 1
REMARK VINA RESULT:      -8.9      0.000      0.000
REMARK  Name = 
REMARK  8 active torsions:
REMARK  status: ('A' for Active; 'I' for Inactive)
REMARK    1  A    between atoms: C_1  and  C_2
REMARK    2  A    between atoms: C_2  and  S_3
REMARK    3  A    between atoms: C_2  and  C_10
REMARK    4  A    between atoms: S_3  and  C_4
REMARK    5  A    between atoms: N_8  and  C_9
REMARK    6  A    between atoms: C_14  and  N_15
REMARK    7  A    between atoms: C_16  and  C_18
REMARK    8  A    between atoms: C_20  and  C_21
REMARK                            x       y       z     vdW  Elec       q    Type
REMARK                         _______ _______ _______ _____ _____    ______ ____
ROOT
ATOM      1  N   UNL     1       2.129   7.031  18.997  0.00  0.00    +0.000 N 
ATOM      2  C   UNL     1       1.896   8.286  18.460  0.00  0.00    +0.000 C 
ATOM      3  O   UNL     1       2.186   8.625  17.308  0.00  0.00    +0.000 OA
ATOM      4  H   UNL     1       1.892   6.907  19.976  0.00  0.00    +0.000 HD
ENDROOT
BRANCH   2   5
ATOM      5  C   UNL     1       1.268   9.344  19.322  0.00  0.00    +0.000 A 
ATOM      6  C   UNL     1       1.236  10.617  18.768  0.00  0.00    +0.000 A 
ATOM      7  C   UNL     1       1.013  11.672  19.631  0.00  0.00    +0.000 A 
ATOM      8  C   UNL     1       0.288  11.431  20.789  0.00  0.00    +0.000 A 
ATOM      9  C   UNL     1      -0.415  12.466  21.438  0.00  0.00    +0.000 A 
ATOM     10  C   UNL     1      -1.099  12.207  22.615  0.00  0.00    +0.000 A 
ATOM     11  C   UNL     1      -0.994  10.945  23.184  0.00  0.00    +0.000 A 
ATOM     12  C   UNL     1      -0.288   9.923  22.531  0.00  0.00    +0.000 A 
ATOM     13  C   UNL     1       0.309  10.109  21.283  0.00  0.00    +0.000 A 
ATOM     14  N   UNL     1       0.881   9.078  20.598  0.00  0.00    +0.000 NA
BRANCH   7  15
ATOM     15  C   UNL     1       1.971  12.845  19.591  0.00  0.00    +0.000 C 
ATOM     16  F   UNL     1       2.615  13.032  20.777  0.00  0.00    +0.000 F 
ATOM     17  F   UNL     1       2.930  12.756  18.639  0.00  0.00    +0.000 F 
ATOM     18  F   UNL     1       1.313  14.020  19.363  0.00  0.00    +0.000 F 
ENDBRANCH   7  15
ENDBRANCH   2   5
BRANCH   1  23
ATOM     19  C   UNL     1       4.361   4.984  16.767  0.00  0.00    +0.000 A 
ATOM     20  C   UNL     1       3.780   3.712  16.905  0.00  0.00    +0.000 A 
ATOM     21  C   UNL     1       2.642   3.538  17.678  0.00  0.00    +0.000 A 
ATOM     22  C   UNL     1       2.082   4.625  18.351  0.00  0.00    +0.000 A 
ATOM     23  C   UNL     1       2.648   5.906  18.281  0.00  0.00    +0.000 A 
ATOM     24  C   UNL     1       3.790   6.071  17.475  0.00  0.00    +0.000 A 
BRANCH  19  26
ATOM     25  C   UNL     1       5.517   4.277  14.632  0.00  0.00    +0.000 C 
ATOM     26  C   UNL     1       5.596   5.174  15.878  0.00  0.00    +0.000 C 
BRANCH  26  27
ATOM     27  S   UNL     1       7.105   4.858  16.878  0.00  0.00    +0.000 S 
BRANCH  27  28
ATOM     28  C   UNL     1       7.544   6.414  17.482  0.00  0.00    +0.000 A 
ATOM     29  N   UNL     1       7.528   7.563  16.843  0.00  0.00    +0.000 NA
ATOM     30  N   UNL     1       8.041   8.525  17.683  0.00  0.00    +0.000 NA
ATOM     31  C   UNL     1       8.335   7.936  18.825  0.00  0.00    +0.000 A 
ATOM     32  N   UNL     1       8.012   6.614  18.750  0.00  0.00    +0.000 N 
ATOM     33  C   UNL     1       8.129   5.658  19.818  0.00  0.00    +0.000 C 
ENDBRANCH  27  28
ENDBRANCH  26  27
ENDBRANCH  19  26
ENDBRANCH   1  23
TORSDOF 6
ENDMDL
MODEL 2
REMARK VINA RESULT:      -8.9      4.851      9.663
REMARK  Name = 
REMARK  8 active torsions:
REMARK  status: ('A' for Active; 'I' for Inactive)
REMARK    1  A    between atoms: C_1  and  C_2
REMARK    2  A    between atoms: C_2  and  S_3
REMARK    3  A    between atoms: C_2  and  C_10
REMARK    4  A    between atoms: S_3  and  C_4
REMARK    5  A    between atoms: N_8  and  C_9
REMARK    6  A    between atoms: C_14  and  N_15
REMARK    7  A    between atoms: C_16  and  C_18
REMARK    8  A    between atoms: C_20  and  C_21
REMARK                            x       y       z     vdW  Elec       q    Type
REMARK                         _______ _______ _______ _____ _____    ______ ____
ROOT
ATOM      1  N   UNL     1       1.918   8.235  19.359  0.00  0.00    +0.000 N 
ATOM      2  C   UNL     1       2.094   6.888  19.630  0.00  0.00    +0.000 C 
ATOM      3  O   UNL     1       1.638   6.302  20.617  0.00  0.00    +0.000 OA
ATOM      4  H   UNL     1       2.397   8.598  18.541  0.00  0.00    +0.000 HD
ENDROOT
BRANCH   2   5
ATOM      5  C   UNL     1       2.915   6.056  18.686  0.00  0.00    +0.000 A 
ATOM      6  C   UNL     1       2.489   4.742  18.533  0.00  0.00    +0.000 A 
ATOM      7  C   UNL     1       3.389   3.851  17.981  0.00  0.00    +0.000 A 
ATOM      8  C   UNL     1       4.355   4.343  17.117  0.00  0.00    +0.000 A 
ATOM      9  C   UNL     1       4.950   3.518  16.142  0.00  0.00    +0.000 A 
ATOM     10  C   UNL     1       5.941   4.024  15.317  0.00  0.00    +0.000 A 
ATOM     11  C   UNL     1       6.396   5.317  15.536  0.00  0.00    +0.000 A 
ATOM     12  C   UNL     1       5.799   6.130  16.512  0.00  0.00    +0.000 A 
ATOM     13  C   UNL     1       4.715   5.699  17.278  0.00  0.00    +0.000 A 
ATOM     14  N   UNL     1       4.059   6.536  18.132  0.00  0.00    +0.000 NA
BRANCH   7  15
ATOM     15  C   UNL     1       3.649   2.551  18.715  0.00  0.00    +0.000 C 
ATOM     16  F   UNL     1       2.750   2.327  19.714  0.00  0.00    +0.000 F 
ATOM     17  F   UNL     1       3.637   1.448  17.928  0.00  0.00    +0.000 F 
ATOM     18  F   UNL     1       4.865   2.564  19.337  0.00  0.00    +0.000 F 
ENDBRANCH   7  15
ENDBRANCH   2   5
BRANCH   1  23
ATOM     19  C   UNL     1      -0.361  11.115  20.169  0.00  0.00    +0.000 A 
ATOM     20  C   UNL     1      -0.583  10.900  21.540  0.00  0.00    +0.000 A 
ATOM     21  C   UNL     1       0.045   9.856  22.200  0.00  0.00    +0.000 A 
ATOM     22  C   UNL     1       0.884   8.989  21.497  0.00  0.00    +0.000 A 
ATOM     23  C   UNL     1       1.105   9.134  20.120  0.00  0.00    +0.000 A 
ATOM     24  C   UNL     1       0.476  10.212  19.468  0.00  0.00    +0.000 A 
BRANCH  19  26
ATOM     25  C   UNL     1      -0.766  13.611  20.210  0.00  0.00    +0.000 C 
ATOM     26  C   UNL     1      -1.029  12.297  19.457  0.00  0.00    +0.000 C 
BRANCH  26  27
ATOM     27  S   UNL     1      -2.823  11.942  19.267  0.00  0.00    +0.000 S 
BRANCH  27  28
ATOM     28  C   UNL     1      -2.960  11.307  17.669  0.00  0.00    +0.000 A 
ATOM     29  N   UNL     1      -2.047  10.665  16.973  0.00  0.00    +0.000 NA
ATOM     30  N   UNL     1      -2.560  10.424  15.718  0.00  0.00    +0.000 NA
ATOM     31  C   UNL     1      -3.786  10.908  15.692  0.00  0.00    +0.000 A 
ATOM     32  N   UNL     1      -4.086  11.447  16.908  0.00  0.00    +0.000 N 
ATOM     33  C   UNL     1      -5.352  12.016  17.285  0.00  0.00    +0.000 C 
ENDBRANCH  27  28
ENDBRANCH  26  27
ENDBRANCH  19  26
ENDBRANCH   1  23
TORSDOF 6
ENDMDL
MODEL 3
REMARK VINA RESULT:      -8.8      4.547      9.452
REMARK  Name = 
REMARK  8 active torsions:
REMARK  status: ('A' for Active; 'I' for Inactive)
REMARK    1  A    between atoms: C_1  and  C_2
REMARK    2  A    between atoms: C_2  and  S_3
REMARK    3  A    between atoms: C_2  and  C_10
REMARK    4  A    between atoms: S_3  and  C_4
REMARK    5  A    between atoms: N_8  and  C_9
REMARK    6  A    between atoms: C_14  and  N_15
REMARK    7  A    between atoms: C_16  and  C_18
REMARK    8  A    between atoms: C_20  and  C_21
REMARK                            x       y       z     vdW  Elec       q    Type
REMARK                         _______ _______ _______ _____ _____    ______ ____
ROOT
ATOM      1  N   UNL     1       1.410   8.198  19.810  0.00  0.00    +0.000 N 
ATOM      2  C   UNL     1       2.130   8.348  18.636  0.00  0.00    +0.000 C 
ATOM      3  O   UNL     1       2.208   9.394  17.985  0.00  0.00    +0.000 OA
ATOM      4  H   UNL     1       1.387   7.266  20.210  0.00  0.00    +0.000 HD
ENDROOT
BRANCH   2   5
ATOM      5  C   UNL     1       2.862   7.162  18.074  0.00  0.00    +0.000 A 
ATOM      6  C   UNL     1       2.372   5.923  18.468  0.00  0.00    +0.000 A 
ATOM      7  C   UNL     1       3.203   4.834  18.287  0.00  0.00    +0.000 A 
ATOM      8  C   UNL     1       4.141   4.886  17.266  0.00  0.00    +0.000 A 
ATOM      9  C   UNL     1       4.646   3.708  16.680  0.00  0.00    +0.000 A 
ATOM     10  C   UNL     1       5.612   3.787  15.689  0.00  0.00    +0.000 A 
ATOM     11  C   UNL     1       6.133   5.031  15.362  0.00  0.00    +0.000 A 
ATOM     12  C   UNL     1       5.625   6.197  15.955  0.00  0.00    +0.000 A 
ATOM     13  C   UNL     1       4.566   6.171  16.864  0.00  0.00    +0.000 A 
ATOM     14  N   UNL     1       3.994   7.314  17.337  0.00  0.00    +0.000 NA
BRANCH   7  15
ATOM     15  C   UNL     1       3.446   3.916  19.466  0.00  0.00    +0.000 C 
ATOM     16  F   UNL     1       2.885   4.384  20.616  0.00  0.00    +0.000 F 
ATOM     17  F   UNL     1       2.990   2.651  19.300  0.00  0.00    +0.000 F 
ATOM     18  F   UNL     1       4.779   3.808  19.748  0.00  0.00    +0.000 F 
ENDBRANCH   7  15
ENDBRANCH   2   5
BRANCH   1  23
ATOM     19  C   UNL     1      -0.626  11.306  20.397  0.00  0.00    +0.000 A 
ATOM     20  C   UNL     1      -0.713  11.305  21.799  0.00  0.00    +0.000 A 
ATOM     21  C   UNL     1      -0.071  10.328  22.544  0.00  0.00    +0.000 A 
ATOM     22  C   UNL     1       0.645   9.317  21.901  0.00  0.00    +0.000 A 
ATOM     23  C   UNL     1       0.728   9.248  20.503  0.00  0.00    +0.000 A 
ATOM     24  C   UNL     1       0.088  10.259  19.761  0.00  0.00    +0.000 A 
BRANCH  19  26
ATOM     25  C   UNL     1      -1.164  13.774  20.285  0.00  0.00    +0.000 C 
ATOM     26  C   UNL     1      -1.305  12.413  19.583  0.00  0.00    +0.000 C 
BRANCH  26  27
ATOM     27  S   UNL     1      -3.061  11.950  19.295  0.00  0.00    +0.000 S 
BRANCH  27  28
ATOM     28  C   UNL     1      -3.071  11.321  17.688  0.00  0.00    +0.000 A 
ATOM     29  N   UNL     1      -2.108  10.676  17.066  0.00  0.00    +0.000 NA
ATOM     30  N   UNL     1      -2.520  10.443  15.773  0.00  0.00    +0.000 NA
ATOM     31  C   UNL     1      -3.737  10.932  15.650  0.00  0.00    +0.000 A 
ATOM     32  N   UNL     1      -4.132  11.469  16.839  0.00  0.00    +0.000 N 
ATOM     33  C   UNL     1      -5.421  12.044  17.115  0.00  0.00    +0.000 C 
ENDBRANCH  27  28
ENDBRANCH  26  27
ENDBRANCH  19  26
ENDBRANCH   1  23
TORSDOF 6
ENDMDL
MODEL 4
REMARK VINA RESULT:      -8.7      4.870     10.177
REMARK  Name = 
REMARK  8 active torsions:
REMARK  status: ('A' for Active; 'I' for Inactive)
REMARK    1  A    between atoms: C_1  and  C_2
REMARK    2  A    between atoms: C_2  and  S_3
REMARK    3  A    between atoms: C_2  and  C_10
REMARK    4  A    between atoms: S_3  and  C_4
REMARK    5  A    between atoms: N_8  and  C_9
REMARK    6  A    between atoms: C_14  and  N_15
REMARK    7  A    between atoms: C_16  and  C_18
REMARK    8  A    between atoms: C_20  and  C_21
REMARK                            x       y       z     vdW  Elec       q    Type
REMARK                         _______ _______ _______ _____ _____    ______ ____
ROOT
ATOM      1  N   UNL     1       1.754   8.181  19.995  0.00  0.00    +0.000 N 
ATOM      2  C   UNL     1       1.832   6.799  20.045  0.00  0.00    +0.000 C 
ATOM      3  O   UNL     1       1.308   6.094  20.913  0.00  0.00    +0.000 OA
ATOM      4  H   UNL     1       2.281   8.637  19.257  0.00  0.00    +0.000 HD
ENDROOT
BRANCH   2   5
ATOM      5  C   UNL     1       2.624   6.075  18.993  0.00  0.00    +0.000 A 
ATOM      6  C   UNL     1       2.328   4.725  18.855  0.00  0.00    +0.000 A 
ATOM      7  C   UNL     1       3.250   3.946  18.183  0.00  0.00    +0.000 A 
ATOM      8  C   UNL     1       4.050   4.553  17.227  0.00  0.00    +0.000 A 
ATOM      9  C   UNL     1       4.615   3.811  16.170  0.00  0.00    +0.000 A 
ATOM     10  C   UNL     1       5.444   4.435  15.252  0.00  0.00    +0.000 A 
ATOM     11  C   UNL     1       5.778   5.768  15.451  0.00  0.00    +0.000 A 
ATOM     12  C   UNL     1       5.213   6.496  16.509  0.00  0.00    +0.000 A 
ATOM     13  C   UNL     1       4.277   5.938  17.381  0.00  0.00    +0.000 A 
ATOM     14  N   UNL     1       3.637   6.686  18.325  0.00  0.00    +0.000 NA
BRANCH   7  15
ATOM     15  C   UNL     1       3.732   2.673  18.848  0.00  0.00    +0.000 C 
ATOM     16  F   UNL     1       3.687   1.598  18.012  0.00  0.00    +0.000 F 
ATOM     17  F   UNL     1       4.995   2.735  19.333  0.00  0.00    +0.000 F 
ATOM     18  F   UNL     1       2.934   2.328  19.902  0.00  0.00    +0.000 F 
ENDBRANCH   7  15
ENDBRANCH   2   5
BRANCH   1  23
ATOM     19  C   UNL     1      -0.695  10.786  21.163  0.00  0.00    +0.000 A 
ATOM     20  C   UNL     1      -0.643  10.595  22.554  0.00  0.00    +0.000 A 
ATOM     21  C   UNL     1       0.221   9.660  23.104  0.00  0.00    +0.000 A 
ATOM     22  C   UNL     1       1.026   8.879  22.274  0.00  0.00    +0.000 A 
ATOM     23  C   UNL     1       0.981   9.000  20.877  0.00  0.00    +0.000 A 
ATOM     24  C   UNL     1       0.114   9.968  20.334  0.00  0.00    +0.000 A 
BRANCH  19  26
ATOM     25  C   UNL     1      -1.061  12.386  19.240  0.00  0.00    +0.000 C 
ATOM     26  C   UNL     1      -1.624  11.849  20.566  0.00  0.00    +0.000 C 
BRANCH  26  27
ATOM     27  S   UNL     1      -1.885  13.178  21.809  0.00  0.00    +0.000 S 
BRANCH  27  28
ATOM     28  C   UNL     1      -3.518  12.958  22.323  0.00  0.00    +0.000 A 
ATOM     29  N   UNL     1      -4.491  12.344  21.685  0.00  0.00    +0.000 NA
ATOM     30  N   UNL     1      -5.642  12.489  22.426  0.00  0.00    +0.000 NA
ATOM     31  C   UNL     1      -5.332  13.169  23.511  0.00  0.00    +0.000 A 
ATOM     32  N   UNL     1      -4.000  13.461  23.498  0.00  0.00    +0.000 N 
ATOM     33  C   UNL     1      -3.278  14.138  24.542  0.00  0.00    +0.000 C 
ENDBRANCH  27  28
ENDBRANCH  26  27
ENDBRANCH  19  26
ENDBRANCH   1  23
TORSDOF 6
ENDMDL
MODEL 5
REMARK VINA RESULT:      -8.7      5.179     10.290
REMARK  Name = 
REMARK  8 active torsions:
REMARK  status: ('A' for Active; 'I' for Inactive)
REMARK    1  A    between atoms: C_1  and  C_2
REMARK    2  A    between atoms: C_2  and  S_3
REMARK    3  A    between atoms: C_2  and  C_10
REMARK    4  A    between atoms: S_3  and  C_4
REMARK    5  A    between atoms: N_8  and  C_9
REMARK    6  A    between atoms: C_14  and  N_15
REMARK    7  A    between atoms: C_16  and  C_18
REMARK    8  A    between atoms: C_20  and  C_21
REMARK                            x       y       z     vdW  Elec       q    Type
REMARK                         _______ _______ _______ _____ _____    ______ ____
ROOT
ATOM      1  N   UNL     1       1.338   9.206  18.115  0.00  0.00    +0.000 N 
ATOM      2  C   UNL     1       1.871   8.204  18.908  0.00  0.00    +0.000 C 
ATOM      3  O   UNL     1       1.761   8.143  20.137  0.00  0.00    +0.000 OA
ATOM      4  H   UNL     1       1.554   9.162  17.124  0.00  0.00    +0.000 HD
ENDROOT
BRANCH   2   5
ATOM      5  C   UNL     1       2.667   7.107  18.260  0.00  0.00    +0.000 A 
ATOM      6  C   UNL     1       2.292   5.816  18.612  0.00  0.00    +0.000 A 
ATOM      7  C   UNL     1       3.195   4.805  18.345  0.00  0.00    +0.000 A 
ATOM      8  C   UNL     1       4.081   4.977  17.292  0.00  0.00    +0.000 A 
ATOM      9  C   UNL     1       4.650   3.871  16.629  0.00  0.00    +0.000 A 
ATOM     10  C   UNL     1       5.562   4.071  15.606  0.00  0.00    +0.000 A 
ATOM     11  C   UNL     1       5.972   5.367  15.320  0.00  0.00    +0.000 A 
ATOM     12  C   UNL     1       5.401   6.461  15.988  0.00  0.00    +0.000 A 
ATOM     13  C   UNL     1       4.388   6.309  16.937  0.00  0.00    +0.000 A 
ATOM     14  N   UNL     1       3.751   7.381  17.487  0.00  0.00    +0.000 NA
BRANCH   7  15
ATOM     15  C   UNL     1       3.560   3.856  19.468  0.00  0.00    +0.000 C 
ATOM     16  F   UNL     1       3.061   2.603  19.275  0.00  0.00    +0.000 F 
ATOM     17  F   UNL     1       4.891   3.716  19.677  0.00  0.00    +0.000 F 
ATOM     18  F   UNL     1       3.026   4.263  20.658  0.00  0.00    +0.000 F 
ENDBRANCH   7  15
ENDBRANCH   2   5
BRANCH   1  23
ATOM     19  C   UNL     1      -1.765  11.220  18.794  0.00  0.00    +0.000 A 
ATOM     20  C   UNL     1      -1.231  12.290  19.531  0.00  0.00    +0.000 A 
ATOM     21  C   UNL     1       0.134  12.377  19.759  0.00  0.00    +0.000 A 
ATOM     22  C   UNL     1       0.987  11.380  19.281  0.00  0.00    +0.000 A 
ATOM     23  C   UNL     1       0.499  10.270  18.576  0.00  0.00    +0.000 A 
ATOM     24  C   UNL     1      -0.886  10.207  18.335  0.00  0.00    +0.000 A 
BRANCH  19  26
ATOM     25  C   UNL     1      -3.539  10.917  17.018  0.00  0.00    +0.000 C 
ATOM     26  C   UNL     1      -3.271  11.154  18.513  0.00  0.00    +0.000 C 
BRANCH  26  27
ATOM     27  S   UNL     1      -4.062  12.692  19.135  0.00  0.00    +0.000 S 
BRANCH  27  28
ATOM     28  C   UNL     1      -5.436  12.132  20.016  0.00  0.00    +0.000 A 
ATOM     29  N   UNL     1      -5.582  12.050  21.320  0.00  0.00    +0.000 NA
ATOM     30  N   UNL     1      -6.802  11.465  21.575  0.00  0.00    +0.000 NA
ATOM     31  C   UNL     1      -7.378  11.228  20.414  0.00  0.00    +0.000 A 
ATOM     32  N   UNL     1      -6.564  11.657  19.408  0.00  0.00    +0.000 N 
ATOM     33  C   UNL     1      -6.875  11.625  18.004  0.00  0.00    +0.000 C 
ENDBRANCH  27  28
ENDBRANCH  26  27
ENDBRANCH  19  26
ENDBRANCH   1  23
TORSDOF 6
ENDMDL
MODEL 6
REMARK VINA RESULT:      -8.7      4.579      9.700
REMARK  Name = 
REMARK  8 active torsions:
REMARK  status: ('A' for Active; 'I' for Inactive)
REMARK    1  A    between atoms: C_1  and  C_2
REMARK    2  A    between atoms: C_2  and  S_3
REMARK    3  A    between atoms: C_2  and  C_10
REMARK    4  A    between atoms: S_3  and  C_4
REMARK    5  A    between atoms: N_8  and  C_9
REMARK    6  A    between atoms: C_14  and  N_15
REMARK    7  A    between atoms: C_16  and  C_18
REMARK    8  A    between atoms: C_20  and  C_21
REMARK                            x       y       z     vdW  Elec       q    Type
REMARK                         _______ _______ _______ _____ _____    ______ ____
ROOT
ATOM      1  N   UNL     1       1.658   8.530  18.265  0.00  0.00    +0.000 N 
ATOM      2  C   UNL     1       2.164   7.414  18.911  0.00  0.00    +0.000 C 
ATOM      3  O   UNL     1       1.951   7.127  20.093  0.00  0.00    +0.000 OA
ATOM      4  H   UNL     1       1.961   8.674  17.307  0.00  0.00    +0.000 HD
ENDROOT
BRANCH   2   5
ATOM      5  C   UNL     1       3.060   6.476  18.153  0.00  0.00    +0.000 A 
ATOM      6  C   UNL     1       2.552   5.197  17.964  0.00  0.00    +0.000 A 
ATOM      7  C   UNL     1       3.452   4.211  17.608  0.00  0.00    +0.000 A 
ATOM      8  C   UNL     1       4.594   4.583  16.915  0.00  0.00    +0.000 A 
ATOM      9  C   UNL     1       5.275   3.669  16.086  0.00  0.00    +0.000 A 
ATOM     10  C   UNL     1       6.436   4.056  15.436  0.00  0.00    +0.000 A 
ATOM     11  C   UNL     1       6.959   5.316  15.695  0.00  0.00    +0.000 A 
ATOM     12  C   UNL     1       6.275   6.217  16.525  0.00  0.00    +0.000 A 
ATOM     13  C   UNL     1       5.039   5.911  17.098  0.00  0.00    +0.000 A 
ATOM     14  N   UNL     1       4.321   6.836  17.797  0.00  0.00    +0.000 NA
BRANCH   7  15
ATOM     15  C   UNL     1       3.464   2.928  18.413  0.00  0.00    +0.000 C 
ATOM     16  F   UNL     1       2.464   2.884  19.338  0.00  0.00    +0.000 F 
ATOM     17  F   UNL     1       3.358   1.798  17.674  0.00  0.00    +0.000 F 
ATOM     18  F   UNL     1       4.615   2.804  19.139  0.00  0.00    +0.000 F 
ENDBRANCH   7  15
ENDBRANCH   2   5
BRANCH   1  23
ATOM     19  C   UNL     1      -0.132  10.620  20.829  0.00  0.00    +0.000 A 
ATOM     20  C   UNL     1      -0.992  11.369  20.008  0.00  0.00    +0.000 A 
ATOM     21  C   UNL     1      -1.021  11.155  18.638  0.00  0.00    +0.000 A 
ATOM     22  C   UNL     1      -0.170  10.211  18.060  0.00  0.00    +0.000 A 
ATOM     23  C   UNL     1       0.738   9.469  18.830  0.00  0.00    +0.000 A 
ATOM     24  C   UNL     1       0.740   9.682  20.222  0.00  0.00    +0.000 A 
BRANCH  19  26
ATOM     25  C   UNL     1      -0.011   9.495  23.090  0.00  0.00    +0.000 C 
ATOM     26  C   UNL     1      -0.136  10.835  22.347  0.00  0.00    +0.000 C 
BRANCH  26  27
ATOM     27  S   UNL     1      -1.654  11.760  22.814  0.00  0.00    +0.000 S 
BRANCH  27  28
ATOM     28  C   UNL     1      -1.098  13.369  23.092  0.00  0.00    +0.000 A 
ATOM     29  N   UNL     1       0.020  13.922  22.672  0.00  0.00    +0.000 NA
ATOM     30  N   UNL     1       0.092  15.190  23.204  0.00  0.00    +0.000 NA
ATOM     31  C   UNL     1      -1.000  15.384  23.916  0.00  0.00    +0.000 A 
ATOM     32  N   UNL     1      -1.787  14.273  23.850  0.00  0.00    +0.000 N 
ATOM     33  C   UNL     1      -3.087  14.128  24.447  0.00  0.00    +0.000 C 
ENDBRANCH  27  28
ENDBRANCH  26  27
ENDBRANCH  19  26
ENDBRANCH   1  23
TORSDOF 6
ENDMDL
MODEL 7
REMARK VINA RESULT:      -8.7      4.524      9.788
REMARK  Name = 
REMARK  8 active torsions:
REMARK  status: ('A' for Active; 'I' for Inactive)
REMARK    1  A    between atoms: C_1  and  C_2
REMARK    2  A    between atoms: C_2  and  S_3
REMARK    3  A    between atoms: C_2  and  C_10
REMARK    4  A    between atoms: S_3  and  C_4
REMARK    5  A    between atoms: N_8  and  C_9
REMARK    6  A    between atoms: C_14  and  N_15
REMARK    7  A    between atoms: C_16  and  C_18
REMARK    8  A    between atoms: C_20  and  C_21
REMARK                            x       y       z     vdW  Elec       q    Type
REMARK                         _______ _______ _______ _____ _____    ______ ____
ROOT
ATOM      1  N   UNL     1       1.952   9.543  18.023  0.00  0.00    +0.000 N 
ATOM      2  C   UNL     1       2.119   8.394  18.778  0.00  0.00    +0.000 C 
ATOM      3  O   UNL     1       1.750   8.261  19.949  0.00  0.00    +0.000 OA
ATOM      4  H   UNL     1       2.356   9.534  17.091  0.00  0.00    +0.000 HD
ENDROOT
BRANCH   2   5
ATOM      5  C   UNL     1       2.817   7.213  18.166  0.00  0.00    +0.000 A 
ATOM      6  C   UNL     1       2.305   5.972  18.525  0.00  0.00    +0.000 A 
ATOM      7  C   UNL     1       3.108   4.872  18.295  0.00  0.00    +0.000 A 
ATOM      8  C   UNL     1       4.033   4.938  17.264  0.00  0.00    +0.000 A 
ATOM      9  C   UNL     1       4.504   3.770  16.631  0.00  0.00    +0.000 A 
ATOM     10  C   UNL     1       5.458   3.862  15.630  0.00  0.00    +0.000 A 
ATOM     11  C   UNL     1       6.002   5.105  15.337  0.00  0.00    +0.000 A 
ATOM     12  C   UNL     1       5.528   6.261  15.976  0.00  0.00    +0.000 A 
ATOM     13  C   UNL     1       4.481   6.226  16.899  0.00  0.00    +0.000 A 
ATOM     14  N   UNL     1       3.941   7.366  17.418  0.00  0.00    +0.000 NA
BRANCH   7  15
ATOM     15  C   UNL     1       3.348   3.909  19.440  0.00  0.00    +0.000 C 
ATOM     16  F   UNL     1       2.753   4.316  20.596  0.00  0.00    +0.000 F 
ATOM     17  F   UNL     1       2.923   2.643  19.210  0.00  0.00    +0.000 F 
ATOM     18  F   UNL     1       4.676   3.818  19.745  0.00  0.00    +0.000 F 
ENDBRANCH   7  15
ENDBRANCH   2   5
BRANCH   1  23
ATOM     19  C   UNL     1      -0.869  11.746  19.176  0.00  0.00    +0.000 A 
ATOM     20  C   UNL     1      -0.197  12.967  19.354  0.00  0.00    +0.000 A 
ATOM     21  C   UNL     1       1.152  13.079  19.052  0.00  0.00    +0.000 A 
ATOM     22  C   UNL     1       1.860  11.966  18.595  0.00  0.00    +0.000 A 
ATOM     23  C   UNL     1       1.246  10.715  18.441  0.00  0.00    +0.000 A 
ATOM     24  C   UNL     1      -0.129  10.622  18.732  0.00  0.00    +0.000 A 
BRANCH  19  26
ATOM     25  C   UNL     1      -3.158  11.292  18.203  0.00  0.00    +0.000 C 
ATOM     26  C   UNL     1      -2.369  11.642  19.475  0.00  0.00    +0.000 C 
BRANCH  26  27
ATOM     27  S   UNL     1      -2.934  13.214  20.244  0.00  0.00    +0.000 S 
BRANCH  27  28
ATOM     28  C   UNL     1      -3.507  12.738  21.800  0.00  0.00    +0.000 A 
ATOM     29  N   UNL     1      -4.749  12.516  22.172  0.00  0.00    +0.000 NA
ATOM     30  N   UNL     1      -4.747  12.247  23.522  0.00  0.00    +0.000 NA
ATOM     31  C   UNL     1      -3.495  12.291  23.933  0.00  0.00    +0.000 A 
ATOM     32  N   UNL     1      -2.681  12.570  22.876  0.00  0.00    +0.000 N 
ATOM     33  C   UNL     1      -1.245  12.638  22.916  0.00  0.00    +0.000 C 
ENDBRANCH  27  28
ENDBRANCH  26  27
ENDBRANCH  19  26
ENDBRANCH   1  23
TORSDOF 6
ENDMDL
MODEL 8
REMARK VINA RESULT:      -8.6      5.060      9.585
REMARK  Name = 
REMARK  8 active torsions:
REMARK  status: ('A' for Active; 'I' for Inactive)
REMARK    1  A    between atoms: C_1  and  C_2
REMARK    2  A    between atoms: C_2  and  S_3
REMARK    3  A    between atoms: C_2  and  C_10
REMARK    4  A    between atoms: S_3  and  C_4
REMARK    5  A    between atoms: N_8  and  C_9
REMARK    6  A    between atoms: C_14  and  N_15
REMARK    7  A    between atoms: C_16  and  C_18
REMARK    8  A    between atoms: C_20  and  C_21
REMARK                            x       y       z     vdW  Elec       q    Type
REMARK                         _______ _______ _______ _____ _____    ______ ____
ROOT
ATOM      1  N   UNL     1       1.761   9.140  17.922  0.00  0.00    +0.000 N 
ATOM      2  C   UNL     1       2.150   8.073  18.716  0.00  0.00    +0.000 C 
ATOM      3  O   UNL     1       1.923   7.975  19.926  0.00  0.00    +0.000 OA
ATOM      4  H   UNL     1       2.064   9.117  16.954  0.00  0.00    +0.000 HD
ENDROOT
BRANCH   2   5
ATOM      5  C   UNL     1       2.927   6.947  18.095  0.00  0.00    +0.000 A 
ATOM      6  C   UNL     1       2.471   5.672  18.405  0.00  0.00    +0.000 A 
ATOM      7  C   UNL     1       3.337   4.621  18.172  0.00  0.00    +0.000 A 
ATOM      8  C   UNL     1       4.288   4.764  17.172  0.00  0.00    +0.000 A 
ATOM      9  C   UNL     1       4.839   3.641  16.524  0.00  0.00    +0.000 A 
ATOM     10  C   UNL     1       5.816   3.809  15.557  0.00  0.00    +0.000 A 
ATOM     11  C   UNL     1       6.304   5.087  15.315  0.00  0.00    +0.000 A 
ATOM     12  C   UNL     1       5.750   6.198  15.969  0.00  0.00    +0.000 A 
ATOM     13  C   UNL     1       4.679   6.084  16.857  0.00  0.00    +0.000 A 
ATOM     14  N   UNL     1       4.065   7.179  17.388  0.00  0.00    +0.000 NA
BRANCH   7  15
ATOM     15  C   UNL     1       3.591   3.640  19.297  0.00  0.00    +0.000 C 
ATOM     16  F   UNL     1       2.956   3.994  20.450  0.00  0.00    +0.000 F 
ATOM     17  F   UNL     1       3.224   2.365  19.027  0.00  0.00    +0.000 F 
ATOM     18  F   UNL     1       4.916   3.595  19.630  0.00  0.00    +0.000 F 
ENDBRANCH   7  15
ENDBRANCH   2   5
BRANCH   1  23
ATOM     19  C   UNL     1       0.815  12.617  18.998  0.00  0.00    +0.000 A 
ATOM     20  C   UNL     1      -0.579  12.488  19.119  0.00  0.00    +0.000 A 
ATOM     21  C   UNL     1      -1.194  11.264  18.901  0.00  0.00    +0.000 A 
ATOM     22  C   UNL     1      -0.432  10.156  18.528  0.00  0.00    +0.000 A 
ATOM     23  C   UNL     1       0.957  10.242  18.352  0.00  0.00    +0.000 A 
ATOM     24  C   UNL     1       1.569  11.486  18.597  0.00  0.00    +0.000 A 
BRANCH  19  26
ATOM     25  C   UNL     1       2.403  13.871  20.514  0.00  0.00    +0.000 C 
ATOM     26  C   UNL     1       1.490  13.964  19.280  0.00  0.00    +0.000 C 
BRANCH  26  27
ATOM     27  S   UNL     1       0.194  15.255  19.459  0.00  0.00    +0.000 S 
BRANCH  27  28
ATOM     28  C   UNL     1       0.782  16.575  18.515  0.00  0.00    +0.000 A 
ATOM     29  N   UNL     1       2.000  16.762  18.057  0.00  0.00    +0.000 NA
ATOM     30  N   UNL     1       2.036  17.989  17.433  0.00  0.00    +0.000 NA
ATOM     31  C   UNL     1       0.827  18.506  17.508  0.00  0.00    +0.000 A 
ATOM     32  N   UNL     1       0.001  17.637  18.157  0.00  0.00    +0.000 N 
ATOM     33  C   UNL     1      -1.408  17.823  18.378  0.00  0.00    +0.000 C 
ENDBRANCH  27  28
ENDBRANCH  26  27
ENDBRANCH  19  26
ENDBRANCH   1  23
TORSDOF 6
ENDMDL
MODEL 9
REMARK VINA RESULT:      -8.6      4.051      8.573
REMARK  Name = 
REMARK  8 active torsions:
REMARK  status: ('A' for Active; 'I' for Inactive)
REMARK    1  A    between atoms: C_1  and  C_2
REMARK    2  A    between atoms: C_2  and  S_3
REMARK    3  A    between atoms: C_2  and  C_10
REMARK    4  A    between atoms: S_3  and  C_4
REMARK    5  A    between atoms: N_8  and  C_9
REMARK    6  A    between atoms: C_14  and  N_15
REMARK    7  A    between atoms: C_16  and  C_18
REMARK    8  A    between atoms: C_20  and  C_21
REMARK                            x       y       z     vdW  Elec       q    Type
REMARK                         _______ _______ _______ _____ _____    ______ ____
ROOT
ATOM      1  N   UNL     1       1.699   7.945  20.050  0.00  0.00    +0.000 N 
ATOM      2  C   UNL     1       2.114   8.075  18.735  0.00  0.00    +0.000 C 
ATOM      3  O   UNL     1       1.868   9.045  18.011  0.00  0.00    +0.000 OA
ATOM      4  H   UNL     1       1.924   7.068  20.510  0.00  0.00    +0.000 HD
ENDROOT
BRANCH   2   5
ATOM      5  C   UNL     1       2.903   6.963  18.105  0.00  0.00    +0.000 A 
ATOM      6  C   UNL     1       2.482   5.680  18.432  0.00  0.00    +0.000 A 
ATOM      7  C   UNL     1       3.367   4.647  18.188  0.00  0.00    +0.000 A 
ATOM      8  C   UNL     1       4.293   4.804  17.167  0.00  0.00    +0.000 A 
ATOM      9  C   UNL     1       4.855   3.689  16.515  0.00  0.00    +0.000 A 
ATOM     10  C   UNL     1       5.808   3.873  15.526  0.00  0.00    +0.000 A 
ATOM     11  C   UNL     1       6.261   5.159  15.265  0.00  0.00    +0.000 A 
ATOM     12  C   UNL     1       5.697   6.262  15.924  0.00  0.00    +0.000 A 
ATOM     13  C   UNL     1       4.648   6.130  16.835  0.00  0.00    +0.000 A 
ATOM     14  N   UNL     1       4.020   7.215  17.372  0.00  0.00    +0.000 NA
BRANCH   7  15
ATOM     15  C   UNL     1       3.667   3.680  19.314  0.00  0.00    +0.000 C 
ATOM     16  F   UNL     1       3.025   4.010  20.470  0.00  0.00    +0.000 F 
ATOM     17  F   UNL     1       3.349   2.390  19.049  0.00  0.00    +0.000 F 
ATOM     18  F   UNL     1       4.994   3.688  19.638  0.00  0.00    +0.000 F 
ENDBRANCH   7  15
ENDBRANCH   2   5
BRANCH   1  23
ATOM     19  C   UNL     1       0.026  11.204  20.900  0.00  0.00    +0.000 A 
ATOM     20  C   UNL     1      -0.425  10.939  22.204  0.00  0.00    +0.000 A 
ATOM     21  C   UNL     1      -0.140   9.727  22.815  0.00  0.00    +0.000 A 
ATOM     22  C   UNL     1       0.574   8.747  22.123  0.00  0.00    +0.000 A 
ATOM     23  C   UNL     1       1.009   8.945  20.805  0.00  0.00    +0.000 A 
ATOM     24  C   UNL     1       0.731  10.188  20.206  0.00  0.00    +0.000 A 
BRANCH  19  26
ATOM     25  C   UNL     1      -1.642  12.567  19.576  0.00  0.00    +0.000 C 
ATOM     26  C   UNL     1      -0.259  12.562  20.247  0.00  0.00    +0.000 C 
BRANCH  26  27
ATOM     27  S   UNL     1       1.096  12.954  19.069  0.00  0.00    +0.000 S 
BRANCH  27  28
ATOM     28  C   UNL     1       2.373  13.533  20.075  0.00  0.00    +0.000 A 
ATOM     29  N   UNL     1       2.520  13.368  21.371  0.00  0.00    +0.000 NA
ATOM     30  N   UNL     1       3.633  14.075  21.767  0.00  0.00    +0.000 NA
ATOM     31  C   UNL     1       4.150  14.633  20.691  0.00  0.00    +0.000 A 
ATOM     32  N   UNL     1       3.404  14.295  19.601  0.00  0.00    +0.000 N 
ATOM     33  C   UNL     1       3.689  14.663  18.241  0.00  0.00    +0.000 C 
ENDBRANCH  27  28
ENDBRANCH  26  27
ENDBRANCH  19  26
ENDBRANCH   1  23
TORSDOF 6
ENDMDL
