MODEL 1
REMARK VINA RESULT:      -8.5      0.000      0.000
REMARK  Name = 
REMARK  6 active torsions:
REMARK  status: ('A' for Active; 'I' for Inactive)
REMARK    1  A    between atoms: C_1  and  C_2
REMARK    2  A    between atoms: C_2  and  C_3
REMARK    3  A    between atoms: C_2  and  C_10
REMARK    4  A    between atoms: C_3  and  C_4
REMARK    5  A    between atoms: N_8  and  C_9
REMARK    6  A    between atoms: C_14  and  N_15
REMARK                            x       y       z     vdW  Elec       q    Type
REMARK                         _______ _______ _______ _____ _____    ______ ____
ROOT
ATOM      1  C   UNL     1       4.319   5.263  17.709  0.00  0.00    +0.000 A 
ATOM      2  C   UNL     1       4.149   4.169  18.560  0.00  0.00    +0.000 A 
ATOM      3  C   UNL     1       3.275   4.252  19.650  0.00  0.00    +0.000 A 
ATOM      4  C   UNL     1       2.570   5.433  19.921  0.00  0.00    +0.000 A 
ATOM      5  C   UNL     1       2.727   6.548  19.102  0.00  0.00    +0.000 A 
ATOM      6  C   UNL     1       3.590   6.430  17.997  0.00  0.00    +0.000 A 
ENDROOT
BRANCH   5   7
ATOM      7  N   UNL     1       2.081   7.787  19.341  0.00  0.00    +0.000 N 
ATOM      8  C   UNL     1       1.562   8.107  20.662  0.00  0.00    +0.000 C 
ATOM      9  C   UNL     1       0.867   9.400  20.471  0.00  0.00    +0.000 A 
ATOM     10  C   UNL     1       0.129  10.142  21.374  0.00  0.00    +0.000 A 
ATOM     11 BR   UNL     1      -0.181   9.523  23.131  0.00  0.00    +0.000 Br
ATOM     12  C   UNL     1      -0.405  11.361  20.957  0.00  0.00    +0.000 A 
ATOM     13  C   UNL     1      -0.189  11.819  19.644  0.00  0.00    +0.000 A 
ATOM     14  C   UNL     1       0.542  11.051  18.728  0.00  0.00    +0.000 A 
ATOM     15  C   UNL     1       1.051   9.841  19.166  0.00  0.00    +0.000 A 
ATOM     16  C   UNL     1       1.811   8.815  18.428  0.00  0.00    +0.000 C 
ATOM     17  O   UNL     1       2.086   8.921  17.247  0.00  0.00    +0.000 OA
ENDBRANCH   5   7
BRANCH   1  19
ATOM     18  C   UNL     1       4.857   4.248  15.413  0.00  0.00    +0.000 C 
ATOM     19  C   UNL     1       5.228   5.284  16.482  0.00  0.00    +0.000 C 
BRANCH  19  20
ATOM     20  C   UNL     1       6.710   5.157  16.921  0.00  0.00    +0.000 C 
BRANCH  20  21
ATOM     21  C   UNL     1       7.282   6.441  17.412  0.00  0.00    +0.000 A 
ATOM     22  N   UNL     1       7.297   7.590  16.765  0.00  0.00    +0.000 NA
ATOM     23  N   UNL     1       7.973   8.506  17.537  0.00  0.00    +0.000 NA
ATOM     24  C   UNL     1       8.343   7.901  18.641  0.00  0.00    +0.000 A 
ATOM     25  N   UNL     1       7.902   6.615  18.621  0.00  0.00    +0.000 N 
ATOM     26  C   UNL     1       8.058   5.645  19.671  0.00  0.00    +0.000 C 
ENDBRANCH  20  21
ENDBRANCH  19  20
ENDBRANCH   1  19
TORSDOF 4
ENDMDL
MODEL 2
REMARK VINA RESULT:      -8.2      1.846      2.324
REMARK  Name = 
REMARK  6 active torsions:
REMARK  status: ('A' for Active; 'I' for Inactive)
REMARK    1  A    between atoms: C_1  and  C_2
REMARK    2  A    between atoms: C_2  and  C_3
REMARK    3  A    between atoms: C_2  and  C_10
REMARK    4  A    between atoms: C_3  and  C_4
REMARK    5  A    between atoms: N_8  and  C_9
REMARK    6  A    between atoms: C_14  and  N_15
REMARK                            x       y       z     vdW  Elec       q    Type
REMARK                         _______ _______ _______ _____ _____    ______ ____
ROOT
ATOM      1  C   UNL     1       4.471   4.541  16.734  0.00  0.00    +0.000 A 
ATOM      2  C   UNL     1       3.810   3.312  16.701  0.00  0.00    +0.000 A 
ATOM      3  C   UNL     1       2.595   3.144  17.375  0.00  0.00    +0.000 A 
ATOM      4  C   UNL     1       2.028   4.195  18.110  0.00  0.00    +0.000 A 
ATOM      5  C   UNL     1       2.669   5.430  18.179  0.00  0.00    +0.000 A 
ATOM      6  C   UNL     1       3.873   5.580  17.469  0.00  0.00    +0.000 A 
ENDROOT
BRANCH   5   7
ATOM      7  N   UNL     1       2.176   6.521  18.938  0.00  0.00    +0.000 N 
ATOM      8  C   UNL     1       2.066   7.845  18.345  0.00  0.00    +0.000 C 
ATOM      9  C   UNL     1       1.642   8.708  19.470  0.00  0.00    +0.000 A 
ATOM     10  C   UNL     1       1.451  10.077  19.503  0.00  0.00    +0.000 A 
ATOM     11 BR   UNL     1       1.796  11.152  17.989  0.00  0.00    +0.000 Br
ATOM     12  C   UNL     1       1.012  10.661  20.691  0.00  0.00    +0.000 A 
ATOM     13  C   UNL     1       0.768   9.865  21.825  0.00  0.00    +0.000 A 
ATOM     14  C   UNL     1       0.985   8.481  21.790  0.00  0.00    +0.000 A 
ATOM     15  C   UNL     1       1.431   7.930  20.602  0.00  0.00    +0.000 A 
ATOM     16  C   UNL     1       1.782   6.534  20.283  0.00  0.00    +0.000 C 
ATOM     17  O   UNL     1       1.727   5.636  21.103  0.00  0.00    +0.000 OA
ENDBRANCH   5   7
BRANCH   1  19
ATOM     18  C   UNL     1       6.068   3.945  14.815  0.00  0.00    +0.000 C 
ATOM     19  C   UNL     1       5.788   4.846  16.024  0.00  0.00    +0.000 C 
BRANCH  19  20
ATOM     20  C   UNL     1       6.956   4.822  17.045  0.00  0.00    +0.000 C 
BRANCH  20  21
ATOM     21  C   UNL     1       7.393   6.185  17.457  0.00  0.00    +0.000 A 
ATOM     22  N   UNL     1       7.352   7.278  16.721  0.00  0.00    +0.000 NA
ATOM     23  N   UNL     1       7.907   8.304  17.448  0.00  0.00    +0.000 NA
ATOM     24  C   UNL     1       8.262   7.820  18.614  0.00  0.00    +0.000 A 
ATOM     25  N   UNL     1       7.929   6.504  18.678  0.00  0.00    +0.000 N 
ATOM     26  C   UNL     1       8.103   5.634  19.809  0.00  0.00    +0.000 C 
ENDBRANCH  20  21
ENDBRANCH  19  20
ENDBRANCH   1  19
TORSDOF 4
ENDMDL
MODEL 3
REMARK VINA RESULT:      -8.2      1.892      2.798
REMARK  Name = 
REMARK  6 active torsions:
REMARK  status: ('A' for Active; 'I' for Inactive)
REMARK    1  A    between atoms: C_1  and  C_2
REMARK    2  A    between atoms: C_2  and  C_3
REMARK    3  A    between atoms: C_2  and  C_10
REMARK    4  A    between atoms: C_3  and  C_4
REMARK    5  A    between atoms: N_8  and  C_9
REMARK    6  A    between atoms: C_14  and  N_15
REMARK                            x       y       z     vdW  Elec       q    Type
REMARK                         _______ _______ _______ _____ _____    ______ ____
ROOT
ATOM      1  C   UNL     1       4.383   5.852  17.479  0.00  0.00    +0.000 A 
ATOM      2  C   UNL     1       4.155   4.641  18.137  0.00  0.00    +0.000 A 
ATOM      3  C   UNL     1       3.180   4.553  19.137  0.00  0.00    +0.000 A 
ATOM      4  C   UNL     1       2.429   5.676  19.512  0.00  0.00    +0.000 A 
ATOM      5  C   UNL     1       2.642   6.904  18.888  0.00  0.00    +0.000 A 
ATOM      6  C   UNL     1       3.607   6.958  17.867  0.00  0.00    +0.000 A 
ENDROOT
BRANCH   5   7
ATOM      7  N   UNL     1       1.951   8.089  19.246  0.00  0.00    +0.000 N 
ATOM      8  C   UNL     1       1.477   8.286  20.608  0.00  0.00    +0.000 C 
ATOM      9  C   UNL     1       0.717   9.554  20.544  0.00  0.00    +0.000 A 
ATOM     10  C   UNL     1      -0.013  10.191  21.529  0.00  0.00    +0.000 A 
ATOM     11 BR   UNL     1      -0.215   9.430  23.246  0.00  0.00    +0.000 Br
ATOM     12  C   UNL     1      -0.620  11.410  21.227  0.00  0.00    +0.000 A 
ATOM     13  C   UNL     1      -0.484  11.973  19.945  0.00  0.00    +0.000 A 
ATOM     14  C   UNL     1       0.240  11.310  18.945  0.00  0.00    +0.000 A 
ATOM     15  C   UNL     1       0.822  10.098  19.269  0.00  0.00    +0.000 A 
ATOM     16  C   UNL     1       1.595   9.167  18.425  0.00  0.00    +0.000 C 
ATOM     17  O   UNL     1       1.812   9.372  17.245  0.00  0.00    +0.000 OA
ENDBRANCH   5   7
BRANCH   1  19
ATOM     18  C   UNL     1       4.971   7.089  15.308  0.00  0.00    +0.000 C 
ATOM     19  C   UNL     1       5.404   6.062  16.363  0.00  0.00    +0.000 C 
BRANCH  19  20
ATOM     20  C   UNL     1       5.776   4.699  15.724  0.00  0.00    +0.000 C 
BRANCH  20  21
ATOM     21  C   UNL     1       6.703   4.836  14.566  0.00  0.00    +0.000 A 
ATOM     22  N   UNL     1       7.834   5.513  14.542  0.00  0.00    +0.000 NA
ATOM     23  N   UNL     1       8.349   5.440  13.270  0.00  0.00    +0.000 NA
ATOM     24  C   UNL     1       7.531   4.710  12.549  0.00  0.00    +0.000 A 
ATOM     25  N   UNL     1       6.503   4.282  13.328  0.00  0.00    +0.000 N 
ATOM     26  C   UNL     1       5.430   3.415  12.922  0.00  0.00    +0.000 C 
ENDBRANCH  20  21
ENDBRANCH  19  20
ENDBRANCH   1  19
TORSDOF 4
ENDMDL
MODEL 4
REMARK VINA RESULT:      -8.1      1.423      2.434
REMARK  Name = 
REMARK  6 active torsions:
REMARK  status: ('A' for Active; 'I' for Inactive)
REMARK    1  A    between atoms: C_1  and  C_2
REMARK    2  A    between atoms: C_2  and  C_3
REMARK    3  A    between atoms: C_2  and  C_10
REMARK    4  A    between atoms: C_3  and  C_4
REMARK    5  A    between atoms: N_8  and  C_9
REMARK    6  A    between atoms: C_14  and  N_15
REMARK                            x       y       z     vdW  Elec       q    Type
REMARK                         _______ _______ _______ _____ _____    ______ ____
ROOT
ATOM      1  C   UNL     1       4.226   5.196  19.327  0.00  0.00    +0.000 A 
ATOM      2  C   UNL     1       3.602   4.123  19.965  0.00  0.00    +0.000 A 
ATOM      3  C   UNL     1       2.345   4.288  20.558  0.00  0.00    +0.000 A 
ATOM      4  C   UNL     1       1.698   5.531  20.540  0.00  0.00    +0.000 A 
ATOM      5  C   UNL     1       2.299   6.628  19.926  0.00  0.00    +0.000 A 
ATOM      6  C   UNL     1       3.549   6.428  19.314  0.00  0.00    +0.000 A 
ENDROOT
BRANCH   5   7
ATOM      7  N   UNL     1       1.723   7.923  19.909  0.00  0.00    +0.000 N 
ATOM      8  C   UNL     1       1.085   8.465  21.100  0.00  0.00    +0.000 C 
ATOM      9  C   UNL     1       0.513   9.752  20.646  0.00  0.00    +0.000 A 
ATOM     10  C   UNL     1      -0.264  10.660  21.340  0.00  0.00    +0.000 A 
ATOM     11 BR   UNL     1      -0.812  10.327  23.116  0.00  0.00    +0.000 Br
ATOM     12  C   UNL     1      -0.657  11.833  20.694  0.00  0.00    +0.000 A 
ATOM     13  C   UNL     1      -0.262  12.078  19.365  0.00  0.00    +0.000 A 
ATOM     14  C   UNL     1       0.508  11.142  18.662  0.00  0.00    +0.000 A 
ATOM     15  C   UNL     1       0.874   9.984  19.324  0.00  0.00    +0.000 A 
ATOM     16  C   UNL     1       1.634   8.818  18.834  0.00  0.00    +0.000 C 
ATOM     17  O   UNL     1       2.046   8.732  17.693  0.00  0.00    +0.000 OA
ENDBRANCH   5   7
BRANCH   1  19
ATOM     18  C   UNL     1       6.777   5.359  19.570  0.00  0.00    +0.000 C 
ATOM     19  C   UNL     1       5.585   5.131  18.632  0.00  0.00    +0.000 C 
BRANCH  19  20
ATOM     20  C   UNL     1       5.607   6.103  17.424  0.00  0.00    +0.000 C 
BRANCH  20  21
ATOM     21  C   UNL     1       6.267   5.520  16.223  0.00  0.00    +0.000 A 
ATOM     22  N   UNL     1       7.386   5.937  15.663  0.00  0.00    +0.000 NA
ATOM     23  N   UNL     1       7.614   5.173  14.543  0.00  0.00    +0.000 NA
ATOM     24  C   UNL     1       6.640   4.299  14.451  0.00  0.00    +0.000 A 
ATOM     25  N   UNL     1       5.791   4.457  15.501  0.00  0.00    +0.000 N 
ATOM     26  C   UNL     1       4.632   3.656  15.787  0.00  0.00    +0.000 C 
ENDBRANCH  20  21
ENDBRANCH  19  20
ENDBRANCH   1  19
TORSDOF 4
ENDMDL
MODEL 5
REMARK VINA RESULT:      -8.0      1.618      2.628
REMARK  Name = 
REMARK  6 active torsions:
REMARK  status: ('A' for Active; 'I' for Inactive)
REMARK    1  A    between atoms: C_1  and  C_2
REMARK    2  A    between atoms: C_2  and  C_3
REMARK    3  A    between atoms: C_2  and  C_10
REMARK    4  A    between atoms: C_3  and  C_4
REMARK    5  A    between atoms: N_8  and  C_9
REMARK    6  A    between atoms: C_14  and  N_15
REMARK                            x       y       z     vdW  Elec       q    Type
REMARK                         _______ _______ _______ _____ _____    ______ ____
ROOT
ATOM      1  C   UNL     1       4.562   4.520  18.375  0.00  0.00    +0.000 A 
ATOM      2  C   UNL     1       4.125   3.473  19.190  0.00  0.00    +0.000 A 
ATOM      3  C   UNL     1       3.053   3.662  20.069  0.00  0.00    +0.000 A 
ATOM      4  C   UNL     1       2.410   4.904  20.164  0.00  0.00    +0.000 A 
ATOM      5  C   UNL     1       2.830   5.975  19.378  0.00  0.00    +0.000 A 
ATOM      6  C   UNL     1       3.891   5.751  18.483  0.00  0.00    +0.000 A 
ENDROOT
BRANCH   5   7
ATOM      7  N   UNL     1       2.256   7.269  19.454  0.00  0.00    +0.000 N 
ATOM      8  C   UNL     1       1.641   7.734  20.689  0.00  0.00    +0.000 C 
ATOM      9  C   UNL     1       1.063   9.048  20.329  0.00  0.00    +0.000 A 
ATOM     10  C   UNL     1       0.301   9.910  21.094  0.00  0.00    +0.000 A 
ATOM     11 BR   UNL     1      -0.214   9.465  22.856  0.00  0.00    +0.000 Br
ATOM     12  C   UNL     1      -0.103  11.122  20.531  0.00  0.00    +0.000 A 
ATOM     13  C   UNL     1       0.266  11.450  19.214  0.00  0.00    +0.000 A 
ATOM     14  C   UNL     1       1.021  10.561  18.438  0.00  0.00    +0.000 A 
ATOM     15  C   UNL     1       1.398   9.363  19.017  0.00  0.00    +0.000 A 
ATOM     16  C   UNL     1       2.147   8.231  18.441  0.00  0.00    +0.000 C 
ATOM     17  O   UNL     1       2.537   8.217  17.288  0.00  0.00    +0.000 OA
ENDBRANCH   5   7
BRANCH   1  19
ATOM     18  C   UNL     1       7.088   4.726  17.964  0.00  0.00    +0.000 C 
ATOM     19  C   UNL     1       5.706   4.426  17.368  0.00  0.00    +0.000 C 
BRANCH  19  20
ATOM     20  C   UNL     1       5.401   5.321  16.138  0.00  0.00    +0.000 C 
BRANCH  20  21
ATOM     21  C   UNL     1       6.441   5.220  15.076  0.00  0.00    +0.000 A 
ATOM     22  N   UNL     1       7.630   5.789  15.087  0.00  0.00    +0.000 NA
ATOM     23  N   UNL     1       8.252   5.502  13.895  0.00  0.00    +0.000 NA
ATOM     24  C   UNL     1       7.437   4.753  13.190  0.00  0.00    +0.000 A 
ATOM     25  N   UNL     1       6.304   4.523  13.904  0.00  0.00    +0.000 N 
ATOM     26  C   UNL     1       5.193   3.704  13.500  0.00  0.00    +0.000 C 
ENDBRANCH  20  21
ENDBRANCH  19  20
ENDBRANCH   1  19
TORSDOF 4
ENDMDL
MODEL 6
REMARK VINA RESULT:      -8.0      1.963      2.734
REMARK  Name = 
REMARK  6 active torsions:
REMARK  status: ('A' for Active; 'I' for Inactive)
REMARK    1  A    between atoms: C_1  and  C_2
REMARK    2  A    between atoms: C_2  and  C_3
REMARK    3  A    between atoms: C_2  and  C_10
REMARK    4  A    between atoms: C_3  and  C_4
REMARK    5  A    between atoms: N_8  and  C_9
REMARK    6  A    between atoms: C_14  and  N_15
REMARK                            x       y       z     vdW  Elec       q    Type
REMARK                         _______ _______ _______ _____ _____    ______ ____
ROOT
ATOM      1  C   UNL     1       4.786   4.554  16.580  0.00  0.00    +0.000 A 
ATOM      2  C   UNL     1       4.557   3.214  16.900  0.00  0.00    +0.000 A 
ATOM      3  C   UNL     1       3.622   2.874  17.885  0.00  0.00    +0.000 A 
ATOM      4  C   UNL     1       2.914   3.865  18.579  0.00  0.00    +0.000 A 
ATOM      5  C   UNL     1       3.130   5.212  18.296  0.00  0.00    +0.000 A 
ATOM      6  C   UNL     1       4.053   5.526  17.283  0.00  0.00    +0.000 A 
ENDROOT
BRANCH   5   7
ATOM      7  N   UNL     1       2.482   6.266  18.988  0.00  0.00    +0.000 N 
ATOM      8  C   UNL     1       2.342   7.578  18.374  0.00  0.00    +0.000 C 
ATOM      9  C   UNL     1       1.740   8.410  19.439  0.00  0.00    +0.000 A 
ATOM     10  C   UNL     1       1.449   9.761  19.439  0.00  0.00    +0.000 A 
ATOM     11 BR   UNL     1       1.876  10.855  17.960  0.00  0.00    +0.000 Br
ATOM     12  C   UNL     1       0.845  10.314  20.568  0.00  0.00    +0.000 A 
ATOM     13  C   UNL     1       0.540   9.505  21.678  0.00  0.00    +0.000 A 
ATOM     14  C   UNL     1       0.857   8.141  21.679  0.00  0.00    +0.000 A 
ATOM     15  C   UNL     1       1.465   7.621  20.550  0.00  0.00    +0.000 A 
ATOM     16  C   UNL     1       1.947   6.253  20.283  0.00  0.00    +0.000 C 
ATOM     17  O   UNL     1       1.869   5.355  21.102  0.00  0.00    +0.000 OA
ENDBRANCH   5   7
BRANCH   1  19
ATOM     18  C   UNL     1       5.495   4.480  14.113  0.00  0.00    +0.000 C 
ATOM     19  C   UNL     1       5.766   5.044  15.514  0.00  0.00    +0.000 C 
BRANCH  19  20
ATOM     20  C   UNL     1       7.222   4.775  15.974  0.00  0.00    +0.000 C 
BRANCH  20  21
ATOM     21  C   UNL     1       7.467   5.173  17.388  0.00  0.00    +0.000 A 
ATOM     22  N   UNL     1       7.614   4.361  18.416  0.00  0.00    +0.000 NA
ATOM     23  N   UNL     1       7.754   5.128  19.549  0.00  0.00    +0.000 NA
ATOM     24  C   UNL     1       7.704   6.387  19.187  0.00  0.00    +0.000 A 
ATOM     25  N   UNL     1       7.558   6.464  17.838  0.00  0.00    +0.000 N 
ATOM     26  C   UNL     1       7.517   7.668  17.052  0.00  0.00    +0.000 C 
ENDBRANCH  20  21
ENDBRANCH  19  20
ENDBRANCH   1  19
TORSDOF 4
ENDMDL
MODEL 7
REMARK VINA RESULT:      -7.9      0.779      1.334
REMARK  Name = 
REMARK  6 active torsions:
REMARK  status: ('A' for Active; 'I' for Inactive)
REMARK    1  A    between atoms: C_1  and  C_2
REMARK    2  A    between atoms: C_2  and  C_3
REMARK    3  A    between atoms: C_2  and  C_10
REMARK    4  A    between atoms: C_3  and  C_4
REMARK    5  A    between atoms: N_8  and  C_9
REMARK    6  A    between atoms: C_14  and  N_15
REMARK                            x       y       z     vdW  Elec       q    Type
REMARK                         _______ _______ _______ _____ _____    ______ ____
ROOT
ATOM      1  C   UNL     1       3.819   5.217  17.867  0.00  0.00    +0.000 A 
ATOM      2  C   UNL     1       3.711   4.218  18.837  0.00  0.00    +0.000 A 
ATOM      3  C   UNL     1       2.971   4.444  20.004  0.00  0.00    +0.000 A 
ATOM      4  C   UNL     1       2.342   5.676  20.231  0.00  0.00    +0.000 A 
ATOM      5  C   UNL     1       2.443   6.700  19.292  0.00  0.00    +0.000 A 
ATOM      6  C   UNL     1       3.169   6.438  18.116  0.00  0.00    +0.000 A 
ENDROOT
BRANCH   5   7
ATOM      7  N   UNL     1       1.871   7.984  19.476  0.00  0.00    +0.000 N 
ATOM      8  C   UNL     1       1.290   8.358  20.757  0.00  0.00    +0.000 C 
ATOM      9  C   UNL     1       0.702   9.693  20.508  0.00  0.00    +0.000 A 
ATOM     10  C   UNL     1      -0.039  10.497  21.352  0.00  0.00    +0.000 A 
ATOM     11 BR   UNL     1      -0.507   9.926  23.090  0.00  0.00    +0.000 Br
ATOM     12  C   UNL     1      -0.458  11.745  20.889  0.00  0.00    +0.000 A 
ATOM     13  C   UNL     1      -0.124  12.168  19.589  0.00  0.00    +0.000 A 
ATOM     14  C   UNL     1       0.610  11.339  18.732  0.00  0.00    +0.000 A 
ATOM     15  C   UNL     1       1.003  10.103  19.213  0.00  0.00    +0.000 A 
ATOM     16  C   UNL     1       1.736   9.016  18.537  0.00  0.00    +0.000 C 
ATOM     17  O   UNL     1       2.095   9.086  17.377  0.00  0.00    +0.000 OA
ENDBRANCH   5   7
BRANCH   1  19
ATOM     18  C   UNL     1       5.059   3.652  16.253  0.00  0.00    +0.000 C 
ATOM     19  C   UNL     1       4.582   5.079  16.551  0.00  0.00    +0.000 C 
BRANCH  19  20
ATOM     20  C   UNL     1       5.750   6.099  16.510  0.00  0.00    +0.000 C 
BRANCH  20  21
ATOM     21  C   UNL     1       6.739   5.892  17.604  0.00  0.00    +0.000 A 
ATOM     22  N   UNL     1       6.966   4.767  18.253  0.00  0.00    +0.000 NA
ATOM     23  N   UNL     1       7.905   5.017  19.226  0.00  0.00    +0.000 NA
ATOM     24  C   UNL     1       8.240   6.282  19.141  0.00  0.00    +0.000 A 
ATOM     25  N   UNL     1       7.560   6.862  18.117  0.00  0.00    +0.000 N 
ATOM     26  C   UNL     1       7.690   8.222  17.669  0.00  0.00    +0.000 C 
ENDBRANCH  20  21
ENDBRANCH  19  20
ENDBRANCH   1  19
TORSDOF 4
ENDMDL
MODEL 8
REMARK VINA RESULT:      -7.9      1.812      2.496
REMARK  Name = 
REMARK  6 active torsions:
REMARK  status: ('A' for Active; 'I' for Inactive)
REMARK    1  A    between atoms: C_1  and  C_2
REMARK    2  A    between atoms: C_2  and  C_3
REMARK    3  A    between atoms: C_2  and  C_10
REMARK    4  A    between atoms: C_3  and  C_4
REMARK    5  A    between atoms: N_8  and  C_9
REMARK    6  A    between atoms: C_14  and  N_15
REMARK                            x       y       z     vdW  Elec       q    Type
REMARK                         _______ _______ _______ _____ _____    ______ ____
ROOT
ATOM      1  C   UNL     1       2.803   3.646  19.002  0.00  0.00    +0.000 A 
ATOM      2  C   UNL     1       2.703   2.978  20.224  0.00  0.00    +0.000 A 
ATOM      3  C   UNL     1       2.273   3.659  21.368  0.00  0.00    +0.000 A 
ATOM      4  C   UNL     1       1.953   5.023  21.317  0.00  0.00    +0.000 A 
ATOM      5  C   UNL     1       2.056   5.725  20.117  0.00  0.00    +0.000 A 
ATOM      6  C   UNL     1       2.464   5.010  18.977  0.00  0.00    +0.000 A 
ENDROOT
BRANCH   5   7
ATOM      7  N   UNL     1       1.791   7.112  20.002  0.00  0.00    +0.000 N 
ATOM      8  C   UNL     1       1.150   7.836  21.090  0.00  0.00    +0.000 C 
ATOM      9  C   UNL     1       0.941   9.195  20.543  0.00  0.00    +0.000 A 
ATOM     10  C   UNL     1       0.308  10.283  21.113  0.00  0.00    +0.000 A 
ATOM     11 BR   UNL     1      -0.513  10.162  22.809  0.00  0.00    +0.000 Br
ATOM     12  C   UNL     1       0.270  11.482  20.400  0.00  0.00    +0.000 A 
ATOM     13  C   UNL     1       0.868  11.572  19.130  0.00  0.00    +0.000 A 
ATOM     14  C   UNL     1       1.488  10.458  18.549  0.00  0.00    +0.000 A 
ATOM     15  C   UNL     1       1.503   9.280  19.274  0.00  0.00    +0.000 A 
ATOM     16  C   UNL     1       2.036   7.954  18.909  0.00  0.00    +0.000 C 
ATOM     17  O   UNL     1       2.554   7.726  17.831  0.00  0.00    +0.000 OA
ENDBRANCH   5   7
BRANCH   1  19
ATOM     18  C   UNL     1       4.030   1.699  17.862  0.00  0.00    +0.000 C 
ATOM     19  C   UNL     1       3.242   3.004  17.687  0.00  0.00    +0.000 C 
BRANCH  19  20
ATOM     20  C   UNL     1       4.019   4.037  16.829  0.00  0.00    +0.000 C 
BRANCH  20  21
ATOM     21  C   UNL     1       5.434   4.202  17.263  0.00  0.00    +0.000 A 
ATOM     22  N   UNL     1       5.870   4.277  18.505  0.00  0.00    +0.000 NA
ATOM     23  N   UNL     1       7.227   4.494  18.470  0.00  0.00    +0.000 NA
ATOM     24  C   UNL     1       7.592   4.533  17.210  0.00  0.00    +0.000 A 
ATOM     25  N   UNL     1       6.507   4.322  16.419  0.00  0.00    +0.000 N 
ATOM     26  C   UNL     1       6.503   4.237  14.984  0.00  0.00    +0.000 C 
ENDBRANCH  20  21
ENDBRANCH  19  20
ENDBRANCH   1  19
TORSDOF 4
ENDMDL
MODEL 9
REMARK VINA RESULT:      -7.9      3.554      8.423
REMARK  Name = 
REMARK  6 active torsions:
REMARK  status: ('A' for Active; 'I' for Inactive)
REMARK    1  A    between atoms: C_1  and  C_2
REMARK    2  A    between atoms: C_2  and  C_3
REMARK    3  A    between atoms: C_2  and  C_10
REMARK    4  A    between atoms: C_3  and  C_4
REMARK    5  A    between atoms: N_8  and  C_9
REMARK    6  A    between atoms: C_14  and  N_15
REMARK                            x       y       z     vdW  Elec       q    Type
REMARK                         _______ _______ _______ _____ _____    ______ ____
ROOT
ATOM      1  C   UNL     1       0.389  10.158  19.807  0.00  0.00    +0.000 A 
ATOM      2  C   UNL     1       0.332  10.332  21.191  0.00  0.00    +0.000 A 
ATOM      3  C   UNL     1       0.922   9.393  22.046  0.00  0.00    +0.000 A 
ATOM      4  C   UNL     1       1.562   8.256  21.534  0.00  0.00    +0.000 A 
ATOM      5  C   UNL     1       1.623   8.043  20.159  0.00  0.00    +0.000 A 
ATOM      6  C   UNL     1       1.047   9.015  19.322  0.00  0.00    +0.000 A 
ENDROOT
BRANCH   5   7
ATOM      7  N   UNL     1       2.215   6.895  19.575  0.00  0.00    +0.000 N 
ATOM      8  C   UNL     1       3.214   7.030  18.525  0.00  0.00    +0.000 C 
ATOM      9  C   UNL     1       3.483   5.637  18.104  0.00  0.00    +0.000 A 
ATOM     10  C   UNL     1       4.297   5.168  17.090  0.00  0.00    +0.000 A 
ATOM     11 BR   UNL     1       5.222   6.354  15.947  0.00  0.00    +0.000 Br
ATOM     12  C   UNL     1       4.412   3.790  16.910  0.00  0.00    +0.000 A 
ATOM     13  C   UNL     1       3.713   2.903  17.750  0.00  0.00    +0.000 A 
ATOM     14  C   UNL     1       2.873   3.387  18.762  0.00  0.00    +0.000 A 
ATOM     15  C   UNL     1       2.770   4.758  18.911  0.00  0.00    +0.000 A 
ATOM     16  C   UNL     1       1.944   5.546  19.845  0.00  0.00    +0.000 C 
ATOM     17  O   UNL     1       1.186   5.034  20.648  0.00  0.00    +0.000 OA
ENDBRANCH   5   7
BRANCH   1  19
ATOM     18  C   UNL     1       0.469  12.501  18.761  0.00  0.00    +0.000 C 
ATOM     19  C   UNL     1      -0.201  11.122  18.779  0.00  0.00    +0.000 C 
BRANCH  19  20
ATOM     20  C   UNL     1      -1.736  11.228  18.976  0.00  0.00    +0.000 C 
BRANCH  20  21
ATOM     21  C   UNL     1      -2.498  11.026  17.713  0.00  0.00    +0.000 A 
ATOM     22  N   UNL     1      -2.036  10.505  16.593  0.00  0.00    +0.000 NA
ATOM     23  N   UNL     1      -3.036  10.557  15.652  0.00  0.00    +0.000 NA
ATOM     24  C   UNL     1      -4.090  11.095  16.219  0.00  0.00    +0.000 A 
ATOM     25  N   UNL     1      -3.810  11.374  17.520  0.00  0.00    +0.000 N 
ATOM     26  C   UNL     1      -4.720  11.919  18.490  0.00  0.00    +0.000 C 
ENDBRANCH  20  21
ENDBRANCH  19  20
ENDBRANCH   1  19
TORSDOF 4
ENDMDL
