MODEL 1
REMARK VINA RESULT:      -9.5      0.000      0.000
REMARK  Name = 
REMARK  11 active torsions:
REMARK  status: ('A' for Active; 'I' for Inactive)
REMARK    1  A    between atoms: C_1  and  N_2
REMARK    2  A    between atoms: C_6  and  C_7
REMARK    3  A    between atoms: C_7  and  C_8
REMARK    4  A    between atoms: C_8  and  C_9
REMARK    5  A    between atoms: C_8  and  C_10
REMARK    6  A    between atoms: C_8  and  C_11
REMARK    7  A    between atoms: C_15  and  N_16
REMARK    8  A    between atoms: C_17  and  C_19
REMARK    9  A    between atoms: C_21  and  C_22
REMARK   10  A    between atoms: C_27  and  O_28
REMARK   11  A    between atoms: C_31  and  C_32
REMARK                            x       y       z     vdW  Elec       q    Type
REMARK                         _______ _______ _______ _____ _____    ______ ____
ROOT
ATOM      1  N   UNL     1       0.958   8.101  21.127  0.00  0.00    +0.000 N 
ATOM      2  C   UNL     1       1.703   7.908  19.970  0.00  0.00    +0.000 C 
ATOM      3  O   UNL     1       1.898   8.721  19.074  0.00  0.00    +0.000 OA
ATOM      4  H   UNL     1       1.004   7.344  21.802  0.00  0.00    +0.000 HD
ENDROOT
BRANCH   1   9
ATOM      5  C   UNL     1      -1.059  11.180  20.652  0.00  0.00    +0.000 A 
ATOM      6  C   UNL     1      -1.313  11.504  22.004  0.00  0.00    +0.000 A 
ATOM      7  C   UNL     1      -0.759  10.773  23.048  0.00  0.00    +0.000 A 
ATOM      8  C   UNL     1       0.025   9.664  22.766  0.00  0.00    +0.000 A 
ATOM      9  C   UNL     1       0.230   9.248  21.448  0.00  0.00    +0.000 A 
ATOM     10  C   UNL     1      -0.314  10.013  20.397  0.00  0.00    +0.000 A 
BRANCH   5  11
ATOM     11  C   UNL     1      -1.663  12.046  19.509  0.00  0.00    +0.000 C 
ATOM     12  C   UNL     1      -3.144  12.339  19.872  0.00  0.00    +0.000 C 
ATOM     13  C   UNL     1      -1.524  11.156  18.247  0.00  0.00    +0.000 C 
BRANCH  11  14
ATOM     14  C   UNL     1      -0.943  13.434  19.299  0.00  0.00    +0.000 C 
BRANCH  14  20
ATOM     15  C   UNL     1       0.948  14.379  21.752  0.00  0.00    +0.000 C 
ATOM     16  N   UNL     1       1.336  13.822  20.485  0.00  0.00    +0.000 N 
ATOM     17  C   UNL     1       2.635  13.593  20.130  0.00  0.00    +0.000 A 
ATOM     18  N   UNL     1       2.677  13.045  18.944  0.00  0.00    +0.000 NA
ATOM     19  N   UNL     1       1.386  12.900  18.516  0.00  0.00    +0.000 NA
ATOM     20  C   UNL     1       0.566  13.395  19.426  0.00  0.00    +0.000 A 
ENDBRANCH  14  20
ENDBRANCH  11  14
ENDBRANCH   5  11
ENDBRANCH   1   9
BRANCH   2  21
ATOM     21  C   UNL     1       2.335   6.569  19.867  0.00  0.00    +0.000 A 
ATOM     22  C   UNL     1       3.632   6.477  19.391  0.00  0.00    +0.000 A 
ATOM     23  C   UNL     1       4.213   5.217  19.318  0.00  0.00    +0.000 A 
ATOM     24  C   UNL     1       3.453   4.098  19.663  0.00  0.00    +0.000 A 
ATOM     25  C   UNL     1       2.163   4.270  20.166  0.00  0.00    +0.000 A 
ATOM     26  N   UNL     1       1.594   5.502  20.274  0.00  0.00    +0.000 NA
BRANCH  23  27
ATOM     27  C   UNL     1       5.636   5.144  18.877  0.00  0.00    +0.000 C 
ATOM     28  O   UNL     1       6.502   5.152  19.742  0.00  0.00    +0.000 OA
ATOM     29  N   UNL     1       5.929   4.985  17.539  0.00  0.00    +0.000 N 
ATOM     30  C   UNL     1       7.296   4.671  17.127  0.00  0.00    +0.000 C 
ATOM     31  C   UNL     1       7.221   4.346  15.638  0.00  0.00    +0.000 C 
ATOM     32  C   UNL     1       5.750   4.031  15.390  0.00  0.00    +0.000 C 
ATOM     33  C   UNL     1       5.039   4.927  16.392  0.00  0.00    +0.000 C 
BRANCH  32  34
ATOM     34  O   UNL     1       5.357   4.299  14.056  0.00  0.00    +0.000 OA
ATOM     35  H   UNL     1       4.775   5.078  14.051  0.00  0.00    +0.000 HD
ENDBRANCH  32  34
ENDBRANCH  23  27
BRANCH  25  36
ATOM     36  C   UNL     1       1.372   3.052  20.631  0.00  0.00    +0.000 C 
ATOM     37  F   UNL     1       1.984   1.870  20.326  0.00  0.00    +0.000 F 
ATOM     38  F   UNL     1       1.184   3.028  21.980  0.00  0.00    +0.000 F 
ATOM     39  F   UNL     1       0.133   2.983  20.071  0.00  0.00    +0.000 F 
ENDBRANCH  25  36
ENDBRANCH   2  21
TORSDOF 8
ENDMDL
MODEL 2
REMARK VINA RESULT:      -9.5      0.901      1.192
REMARK  Name = 
REMARK  11 active torsions:
REMARK  status: ('A' for Active; 'I' for Inactive)
REMARK    1  A    between atoms: C_1  and  N_2
REMARK    2  A    between atoms: C_6  and  C_7
REMARK    3  A    between atoms: C_7  and  C_8
REMARK    4  A    between atoms: C_8  and  C_9
REMARK    5  A    between atoms: C_8  and  C_10
REMARK    6  A    between atoms: C_8  and  C_11
REMARK    7  A    between atoms: C_15  and  N_16
REMARK    8  A    between atoms: C_17  and  C_19
REMARK    9  A    between atoms: C_21  and  C_22
REMARK   10  A    between atoms: C_27  and  O_28
REMARK   11  A    between atoms: C_31  and  C_32
REMARK                            x       y       z     vdW  Elec       q    Type
REMARK                         _______ _______ _______ _____ _____    ______ ____
ROOT
ATOM      1  N   UNL     1       1.083   8.054  21.242  0.00  0.00    +0.000 N 
ATOM      2  C   UNL     1       1.689   7.823  20.014  0.00  0.00    +0.000 C 
ATOM      3  O   UNL     1       1.755   8.598  19.067  0.00  0.00    +0.000 OA
ATOM      4  H   UNL     1       1.228   7.330  21.939  0.00  0.00    +0.000 HD
ENDROOT
BRANCH   1   9
ATOM      5  C   UNL     1      -0.493  11.400  20.934  0.00  0.00    +0.000 A 
ATOM      6  C   UNL     1      -1.115  11.483  22.200  0.00  0.00    +0.000 A 
ATOM      7  C   UNL     1      -0.946  10.496  23.164  0.00  0.00    +0.000 A 
ATOM      8  C   UNL     1      -0.189   9.373  22.867  0.00  0.00    +0.000 A 
ATOM      9  C   UNL     1       0.370   9.200  21.599  0.00  0.00    +0.000 A 
ATOM     10  C   UNL     1       0.215  10.220  20.638  0.00  0.00    +0.000 A 
BRANCH   5  11
ATOM     11  C   UNL     1      -0.671  12.543  19.893  0.00  0.00    +0.000 C 
ATOM     12  C   UNL     1      -1.456  13.691  20.584  0.00  0.00    +0.000 C 
ATOM     13  C   UNL     1      -1.471  11.884  18.740  0.00  0.00    +0.000 C 
BRANCH  11  14
ATOM     14  C   UNL     1       0.684  13.150  19.361  0.00  0.00    +0.000 C 
BRANCH  14  20
ATOM     15  C   UNL     1       1.109  16.358  19.485  0.00  0.00    +0.000 C 
ATOM     16  N   UNL     1       1.617  15.352  20.377  0.00  0.00    +0.000 N 
ATOM     17  C   UNL     1       2.386  15.635  21.471  0.00  0.00    +0.000 A 
ATOM     18  N   UNL     1       2.661  14.530  22.112  0.00  0.00    +0.000 NA
ATOM     19  N   UNL     1       2.057  13.505  21.438  0.00  0.00    +0.000 NA
ATOM     20  C   UNL     1       1.448  13.985  20.368  0.00  0.00    +0.000 A 
ENDBRANCH  14  20
ENDBRANCH  11  14
ENDBRANCH   5  11
ENDBRANCH   1   9
BRANCH   2  21
ATOM     21  C   UNL     1       2.338   6.493  19.893  0.00  0.00    +0.000 A 
ATOM     22  C   UNL     1       3.633   6.423  19.409  0.00  0.00    +0.000 A 
ATOM     23  C   UNL     1       4.229   5.171  19.320  0.00  0.00    +0.000 A 
ATOM     24  C   UNL     1       3.486   4.039  19.656  0.00  0.00    +0.000 A 
ATOM     25  C   UNL     1       2.196   4.189  20.168  0.00  0.00    +0.000 A 
ATOM     26  N   UNL     1       1.612   5.412  20.291  0.00  0.00    +0.000 NA
BRANCH  23  27
ATOM     27  C   UNL     1       5.651   5.121  18.870  0.00  0.00    +0.000 C 
ATOM     28  O   UNL     1       6.522   5.137  19.731  0.00  0.00    +0.000 OA
ATOM     29  N   UNL     1       5.939   4.973  17.530  0.00  0.00    +0.000 N 
ATOM     30  C   UNL     1       7.308   4.682  17.109  0.00  0.00    +0.000 C 
ATOM     31  C   UNL     1       7.229   4.363  15.618  0.00  0.00    +0.000 C 
ATOM     32  C   UNL     1       5.762   4.028  15.377  0.00  0.00    +0.000 C 
ATOM     33  C   UNL     1       5.044   4.908  16.387  0.00  0.00    +0.000 C 
BRANCH  32  34
ATOM     34  O   UNL     1       5.358   4.298  14.046  0.00  0.00    +0.000 OA
ATOM     35  H   UNL     1       5.189   5.251  13.957  0.00  0.00    +0.000 HD
ENDBRANCH  32  34
ENDBRANCH  23  27
BRANCH  25  36
ATOM     36  C   UNL     1       1.423   2.957  20.623  0.00  0.00    +0.000 C 
ATOM     37  F   UNL     1       2.037   1.785  20.281  0.00  0.00    +0.000 F 
ATOM     38  F   UNL     1       1.263   2.904  21.975  0.00  0.00    +0.000 F 
ATOM     39  F   UNL     1       0.173   2.890  20.087  0.00  0.00    +0.000 F 
ENDBRANCH  25  36
ENDBRANCH   2  21
TORSDOF 8
ENDMDL
MODEL 3
REMARK VINA RESULT:      -9.4      1.450      2.517
REMARK  Name = 
REMARK  11 active torsions:
REMARK  status: ('A' for Active; 'I' for Inactive)
REMARK    1  A    between atoms: C_1  and  N_2
REMARK    2  A    between atoms: C_6  and  C_7
REMARK    3  A    between atoms: C_7  and  C_8
REMARK    4  A    between atoms: C_8  and  C_9
REMARK    5  A    between atoms: C_8  and  C_10
REMARK    6  A    between atoms: C_8  and  C_11
REMARK    7  A    between atoms: C_15  and  N_16
REMARK    8  A    between atoms: C_17  and  C_19
REMARK    9  A    between atoms: C_21  and  C_22
REMARK   10  A    between atoms: C_27  and  O_28
REMARK   11  A    between atoms: C_31  and  C_32
REMARK                            x       y       z     vdW  Elec       q    Type
REMARK                         _______ _______ _______ _____ _____    ______ ____
ROOT
ATOM      1  N   UNL     1       1.439   7.957  21.364  0.00  0.00    +0.000 N 
ATOM      2  C   UNL     1       1.852   7.655  20.072  0.00  0.00    +0.000 C 
ATOM      3  O   UNL     1       1.730   8.359  19.076  0.00  0.00    +0.000 OA
ATOM      4  H   UNL     1       1.728   7.293  22.076  0.00  0.00    +0.000 HD
ENDROOT
BRANCH   1   9
ATOM      5  C   UNL     1       0.270  11.478  21.370  0.00  0.00    +0.000 A 
ATOM      6  C   UNL     1      -0.689  11.405  22.405  0.00  0.00    +0.000 A 
ATOM      7  C   UNL     1      -0.883  10.242  23.141  0.00  0.00    +0.000 A 
ATOM      8  C   UNL     1      -0.156   9.104  22.825  0.00  0.00    +0.000 A 
ATOM      9  C   UNL     1       0.738   9.099  21.752  0.00  0.00    +0.000 A 
ATOM     10  C   UNL     1       0.947  10.292  21.030  0.00  0.00    +0.000 A 
BRANCH   5  11
ATOM     11  C   UNL     1       0.489  12.809  20.593  0.00  0.00    +0.000 C 
ATOM     12  C   UNL     1       2.019  13.065  20.518  0.00  0.00    +0.000 C 
ATOM     13  C   UNL     1      -0.251  13.871  21.446  0.00  0.00    +0.000 C 
BRANCH  11  14
ATOM     14  C   UNL     1      -0.060  12.794  19.114  0.00  0.00    +0.000 C 
BRANCH  14  20
ATOM     15  C   UNL     1      -1.053  10.094  17.627  0.00  0.00    +0.000 C 
ATOM     16  N   UNL     1      -1.843  11.086  18.305  0.00  0.00    +0.000 N 
ATOM     17  C   UNL     1      -3.201  11.010  18.428  0.00  0.00    +0.000 A 
ATOM     18  N   UNL     1      -3.637  12.025  19.126  0.00  0.00    +0.000 NA
ATOM     19  N   UNL     1      -2.549  12.776  19.477  0.00  0.00    +0.000 NA
ATOM     20  C   UNL     1      -1.460  12.235  18.960  0.00  0.00    +0.000 A 
ENDBRANCH  14  20
ENDBRANCH  11  14
ENDBRANCH   5  11
ENDBRANCH   1   9
BRANCH   2  21
ATOM     21  C   UNL     1       2.537   6.345  19.939  0.00  0.00    +0.000 A 
ATOM     22  C   UNL     1       3.798   6.305  19.368  0.00  0.00    +0.000 A 
ATOM     23  C   UNL     1       4.430   5.071  19.268  0.00  0.00    +0.000 A 
ATOM     24  C   UNL     1       3.751   3.925  19.684  0.00  0.00    +0.000 A 
ATOM     25  C   UNL     1       2.495   4.046  20.280  0.00  0.00    +0.000 A 
ATOM     26  N   UNL     1       1.878   5.252  20.414  0.00  0.00    +0.000 NA
BRANCH  23  27
ATOM     27  C   UNL     1       5.818   5.056  18.722  0.00  0.00    +0.000 C 
ATOM     28  O   UNL     1       6.745   5.075  19.522  0.00  0.00    +0.000 OA
ATOM     29  N   UNL     1       6.017   4.934  17.363  0.00  0.00    +0.000 N 
ATOM     30  C   UNL     1       7.358   4.675  16.845  0.00  0.00    +0.000 C 
ATOM     31  C   UNL     1       7.184   4.378  15.358  0.00  0.00    +0.000 C 
ATOM     32  C   UNL     1       5.710   4.019  15.212  0.00  0.00    +0.000 C 
ATOM     33  C   UNL     1       5.046   4.869  16.283  0.00  0.00    +0.000 C 
BRANCH  32  34
ATOM     34  O   UNL     1       5.211   4.301  13.916  0.00  0.00    +0.000 OA
ATOM     35  H   UNL     1       4.380   4.799  14.002  0.00  0.00    +0.000 HD
ENDBRANCH  32  34
ENDBRANCH  23  27
BRANCH  25  36
ATOM     36  C   UNL     1       1.798   2.801  20.818  0.00  0.00    +0.000 C 
ATOM     37  F   UNL     1       1.759   1.778  19.914  0.00  0.00    +0.000 F 
ATOM     38  F   UNL     1       2.411   2.289  21.922  0.00  0.00    +0.000 F 
ATOM     39  F   UNL     1       0.504   3.032  21.171  0.00  0.00    +0.000 F 
ENDBRANCH  25  36
ENDBRANCH   2  21
TORSDOF 8
ENDMDL
MODEL 4
REMARK VINA RESULT:      -9.4      1.318      2.401
REMARK  Name = 
REMARK  11 active torsions:
REMARK  status: ('A' for Active; 'I' for Inactive)
REMARK    1  A    between atoms: C_1  and  N_2
REMARK    2  A    between atoms: C_6  and  C_7
REMARK    3  A    between atoms: C_7  and  C_8
REMARK    4  A    between atoms: C_8  and  C_9
REMARK    5  A    between atoms: C_8  and  C_10
REMARK    6  A    between atoms: C_8  and  C_11
REMARK    7  A    between atoms: C_15  and  N_16
REMARK    8  A    between atoms: C_17  and  C_19
REMARK    9  A    between atoms: C_21  and  C_22
REMARK   10  A    between atoms: C_27  and  O_28
REMARK   11  A    between atoms: C_31  and  C_32
REMARK                            x       y       z     vdW  Elec       q    Type
REMARK                         _______ _______ _______ _____ _____    ______ ____
ROOT
ATOM      1  N   UNL     1       1.475   7.992  21.311  0.00  0.00    +0.000 N 
ATOM      2  C   UNL     1       1.839   7.648  20.014  0.00  0.00    +0.000 C 
ATOM      3  O   UNL     1       1.657   8.308  18.998  0.00  0.00    +0.000 OA
ATOM      4  H   UNL     1       1.809   7.363  22.034  0.00  0.00    +0.000 HD
ENDROOT
BRANCH   1   9
ATOM      5  C   UNL     1       0.249  11.494  21.246  0.00  0.00    +0.000 A 
ATOM      6  C   UNL     1      -0.680  11.435  22.309  0.00  0.00    +0.000 A 
ATOM      7  C   UNL     1      -0.835  10.292  23.083  0.00  0.00    +0.000 A 
ATOM      8  C   UNL     1      -0.099   9.157  22.781  0.00  0.00    +0.000 A 
ATOM      9  C   UNL     1       0.766   9.134  21.685  0.00  0.00    +0.000 A 
ATOM     10  C   UNL     1       0.936  10.308  20.923  0.00  0.00    +0.000 A 
BRANCH   5  11
ATOM     11  C   UNL     1       0.426  12.804  20.426  0.00  0.00    +0.000 C 
ATOM     12  C   UNL     1       1.567  12.568  19.400  0.00  0.00    +0.000 C 
ATOM     13  C   UNL     1       0.793  13.870  21.490  0.00  0.00    +0.000 C 
BRANCH  11  14
ATOM     14  C   UNL     1      -0.856  13.238  19.616  0.00  0.00    +0.000 C 
BRANCH  14  20
ATOM     15  C   UNL     1      -3.981  12.390  19.604  0.00  0.00    +0.000 C 
ATOM     16  N   UNL     1      -2.884  11.779  18.904  0.00  0.00    +0.000 N 
ATOM     17  C   UNL     1      -3.027  10.699  18.080  0.00  0.00    +0.000 A 
ATOM     18  N   UNL     1      -1.871  10.393  17.552  0.00  0.00    +0.000 NA
ATOM     19  N   UNL     1      -0.955  11.292  18.026  0.00  0.00    +0.000 NA
ATOM     20  C   UNL     1      -1.550  12.116  18.870  0.00  0.00    +0.000 A 
ENDBRANCH  14  20
ENDBRANCH  11  14
ENDBRANCH   5  11
ENDBRANCH   1   9
BRANCH   2  21
ATOM     21  C   UNL     1       2.547   6.347  19.902  0.00  0.00    +0.000 A 
ATOM     22  C   UNL     1       3.805   6.319  19.326  0.00  0.00    +0.000 A 
ATOM     23  C   UNL     1       4.458   5.095  19.246  0.00  0.00    +0.000 A 
ATOM     24  C   UNL     1       3.802   3.945  19.686  0.00  0.00    +0.000 A 
ATOM     25  C   UNL     1       2.547   4.055  20.287  0.00  0.00    +0.000 A 
ATOM     26  N   UNL     1       1.910   5.252  20.401  0.00  0.00    +0.000 NA
BRANCH  23  27
ATOM     27  C   UNL     1       5.844   5.095  18.693  0.00  0.00    +0.000 C 
ATOM     28  O   UNL     1       6.775   5.132  19.488  0.00  0.00    +0.000 OA
ATOM     29  N   UNL     1       6.038   4.966  17.335  0.00  0.00    +0.000 N 
ATOM     30  C   UNL     1       7.381   4.721  16.812  0.00  0.00    +0.000 C 
ATOM     31  C   UNL     1       7.203   4.411  15.328  0.00  0.00    +0.000 C 
ATOM     32  C   UNL     1       5.733   4.031  15.191  0.00  0.00    +0.000 C 
ATOM     33  C   UNL     1       5.063   4.880  16.260  0.00  0.00    +0.000 C 
BRANCH  32  34
ATOM     34  O   UNL     1       5.225   4.297  13.896  0.00  0.00    +0.000 OA
ATOM     35  H   UNL     1       5.911   4.086  13.241  0.00  0.00    +0.000 HD
ENDBRANCH  32  34
ENDBRANCH  23  27
BRANCH  25  36
ATOM     36  C   UNL     1       1.875   2.808  20.852  0.00  0.00    +0.000 C 
ATOM     37  F   UNL     1       2.581   2.238  21.873  0.00  0.00    +0.000 F 
ATOM     38  F   UNL     1       0.637   3.061  21.361  0.00  0.00    +0.000 F 
ATOM     39  F   UNL     1       1.714   1.828  19.921  0.00  0.00    +0.000 F 
ENDBRANCH  25  36
ENDBRANCH   2  21
TORSDOF 8
ENDMDL
MODEL 5
REMARK VINA RESULT:      -9.3      3.193      9.517
REMARK  Name = 
REMARK  11 active torsions:
REMARK  status: ('A' for Active; 'I' for Inactive)
REMARK    1  A    between atoms: C_1  and  N_2
REMARK    2  A    between atoms: C_6  and  C_7
REMARK    3  A    between atoms: C_7  and  C_8
REMARK    4  A    between atoms: C_8  and  C_9
REMARK    5  A    between atoms: C_8  and  C_10
REMARK    6  A    between atoms: C_8  and  C_11
REMARK    7  A    between atoms: C_15  and  N_16
REMARK    8  A    between atoms: C_17  and  C_19
REMARK    9  A    between atoms: C_21  and  C_22
REMARK   10  A    between atoms: C_27  and  O_28
REMARK   11  A    between atoms: C_31  and  C_32
REMARK                            x       y       z     vdW  Elec       q    Type
REMARK                         _______ _______ _______ _____ _____    ______ ____
ROOT
ATOM      1  N   UNL     1       2.035   7.155  19.051  0.00  0.00    +0.000 N 
ATOM      2  C   UNL     1       1.912   8.384  18.415  0.00  0.00    +0.000 C 
ATOM      3  O   UNL     1       2.206   8.645  17.254  0.00  0.00    +0.000 OA
ATOM      4  H   UNL     1       1.636   7.109  19.984  0.00  0.00    +0.000 HD
ENDROOT
BRANCH   1   9
ATOM      5  C   UNL     1       4.482   4.953  17.340  0.00  0.00    +0.000 A 
ATOM      6  C   UNL     1       3.802   3.719  17.447  0.00  0.00    +0.000 A 
ATOM      7  C   UNL     1       2.527   3.632  17.994  0.00  0.00    +0.000 A 
ATOM      8  C   UNL     1       1.920   4.773  18.496  0.00  0.00    +0.000 A 
ATOM      9  C   UNL     1       2.587   5.999  18.497  0.00  0.00    +0.000 A 
ATOM     10  C   UNL     1       3.869   6.081  17.915  0.00  0.00    +0.000 A 
BRANCH   5  11
ATOM     11  C   UNL     1       5.892   5.019  16.684  0.00  0.00    +0.000 C 
ATOM     12  C   UNL     1       6.936   4.653  17.774  0.00  0.00    +0.000 C 
ATOM     13  C   UNL     1       6.019   6.489  16.207  0.00  0.00    +0.000 C 
BRANCH  11  14
ATOM     14  C   UNL     1       6.094   4.019  15.481  0.00  0.00    +0.000 C 
BRANCH  14  20
ATOM     15  C   UNL     1       5.889   3.334  12.323  0.00  0.00    +0.000 C 
ATOM     16  N   UNL     1       6.784   4.243  12.986  0.00  0.00    +0.000 N 
ATOM     17  C   UNL     1       7.718   4.993  12.329  0.00  0.00    +0.000 A 
ATOM     18  N   UNL     1       8.352   5.752  13.182  0.00  0.00    +0.000 NA
ATOM     19  N   UNL     1       7.822   5.507  14.420  0.00  0.00    +0.000 NA
ATOM     20  C   UNL     1       6.893   4.572  14.318  0.00  0.00    +0.000 A 
ENDBRANCH  14  20
ENDBRANCH  11  14
ENDBRANCH   5  11
ENDBRANCH   1   9
BRANCH   2  21
ATOM     21  C   UNL     1       1.331   9.456  19.262  0.00  0.00    +0.000 A 
ATOM     22  C   UNL     1       1.257  10.742  18.755  0.00  0.00    +0.000 A 
ATOM     23  C   UNL     1       0.694  11.728  19.556  0.00  0.00    +0.000 A 
ATOM     24  C   UNL     1       0.288  11.401  20.850  0.00  0.00    +0.000 A 
ATOM     25  C   UNL     1       0.362  10.076  21.282  0.00  0.00    +0.000 A 
ATOM     26  N   UNL     1       0.882   9.094  20.495  0.00  0.00    +0.000 NA
BRANCH  23  27
ATOM     27  C   UNL     1       0.551  13.090  18.965  0.00  0.00    +0.000 C 
ATOM     28  O   UNL     1      -0.505  13.362  18.408  0.00  0.00    +0.000 OA
ATOM     29  N   UNL     1       1.557  14.018  19.135  0.00  0.00    +0.000 N 
ATOM     30  C   UNL     1       1.326  15.415  18.775  0.00  0.00    +0.000 C 
ATOM     31  C   UNL     1       2.536  16.187  19.293  0.00  0.00    +0.000 C 
ATOM     32  C   UNL     1       3.162  15.264  20.332  0.00  0.00    +0.000 C 
ATOM     33  C   UNL     1       2.849  13.880  19.786  0.00  0.00    +0.000 C 
BRANCH  32  34
ATOM     34  O   UNL     1       4.554  15.482  20.480  0.00  0.00    +0.000 OA
ATOM     35  H   UNL     1       4.987  15.335  19.622  0.00  0.00    +0.000 HD
ENDBRANCH  32  34
ENDBRANCH  23  27
BRANCH  25  36
ATOM     36  C   UNL     1      -0.170   9.706  22.662  0.00  0.00    +0.000 C 
ATOM     37  F   UNL     1       0.821   9.410  23.555  0.00  0.00    +0.000 F 
ATOM     38  F   UNL     1      -0.889  10.711  23.236  0.00  0.00    +0.000 F 
ATOM     39  F   UNL     1      -0.985   8.617  22.638  0.00  0.00    +0.000 F 
ENDBRANCH  25  36
ENDBRANCH   2  21
TORSDOF 8
ENDMDL
MODEL 6
REMARK VINA RESULT:      -9.3      1.070      1.536
REMARK  Name = 
REMARK  11 active torsions:
REMARK  status: ('A' for Active; 'I' for Inactive)
REMARK    1  A    between atoms: C_1  and  N_2
REMARK    2  A    between atoms: C_6  and  C_7
REMARK    3  A    between atoms: C_7  and  C_8
REMARK    4  A    between atoms: C_8  and  C_9
REMARK    5  A    between atoms: C_8  and  C_10
REMARK    6  A    between atoms: C_8  and  C_11
REMARK    7  A    between atoms: C_15  and  N_16
REMARK    8  A    between atoms: C_17  and  C_19
REMARK    9  A    between atoms: C_21  and  C_22
REMARK   10  A    between atoms: C_27  and  O_28
REMARK   11  A    between atoms: C_31  and  C_32
REMARK                            x       y       z     vdW  Elec       q    Type
REMARK                         _______ _______ _______ _____ _____    ______ ____
ROOT
ATOM      1  N   UNL     1       1.296   8.127  21.337  0.00  0.00    +0.000 N 
ATOM      2  C   UNL     1       1.723   7.825  20.049  0.00  0.00    +0.000 C 
ATOM      3  O   UNL     1       1.644   8.544  19.059  0.00  0.00    +0.000 OA
ATOM      4  H   UNL     1       1.548   7.444  22.046  0.00  0.00    +0.000 HD
ENDROOT
BRANCH   1   9
ATOM      5  C   UNL     1       0.118  11.644  21.260  0.00  0.00    +0.000 A 
ATOM      6  C   UNL     1      -0.742  11.627  22.381  0.00  0.00    +0.000 A 
ATOM      7  C   UNL     1      -0.863  10.506  23.193  0.00  0.00    +0.000 A 
ATOM      8  C   UNL     1      -0.163   9.352  22.874  0.00  0.00    +0.000 A 
ATOM      9  C   UNL     1       0.628   9.289  21.726  0.00  0.00    +0.000 A 
ATOM     10  C   UNL     1       0.765  10.441  20.924  0.00  0.00    +0.000 A 
BRANCH   5  11
ATOM     11  C   UNL     1       0.259  12.931  20.397  0.00  0.00    +0.000 C 
ATOM     12  C   UNL     1      -1.064  13.734  20.527  0.00  0.00    +0.000 C 
ATOM     13  C   UNL     1       0.494  12.399  18.960  0.00  0.00    +0.000 C 
BRANCH  11  14
ATOM     14  C   UNL     1       1.436  13.883  20.842  0.00  0.00    +0.000 C 
BRANCH  14  20
ATOM     15  C   UNL     1       0.789  16.442  18.966  0.00  0.00    +0.000 C 
ATOM     16  N   UNL     1       1.924  15.561  18.920  0.00  0.00    +0.000 N 
ATOM     17  C   UNL     1       2.950  15.703  18.029  0.00  0.00    +0.000 A 
ATOM     18  N   UNL     1       3.856  14.788  18.252  0.00  0.00    +0.000 NA
ATOM     19  N   UNL     1       3.425  14.037  19.312  0.00  0.00    +0.000 NA
ATOM     20  C   UNL     1       2.243  14.476  19.705  0.00  0.00    +0.000 A 
ENDBRANCH  14  20
ENDBRANCH  11  14
ENDBRANCH   5  11
ENDBRANCH   1   9
BRANCH   2  21
ATOM     21  C   UNL     1       2.364   6.493  19.913  0.00  0.00    +0.000 A 
ATOM     22  C   UNL     1       3.658   6.420  19.427  0.00  0.00    +0.000 A 
ATOM     23  C   UNL     1       4.246   5.166  19.324  0.00  0.00    +0.000 A 
ATOM     24  C   UNL     1       3.496   4.035  19.648  0.00  0.00    +0.000 A 
ATOM     25  C   UNL     1       2.207   4.187  20.162  0.00  0.00    +0.000 A 
ATOM     26  N   UNL     1       1.631   5.413  20.300  0.00  0.00    +0.000 NA
BRANCH  23  27
ATOM     27  C   UNL     1       5.668   5.112  18.873  0.00  0.00    +0.000 C 
ATOM     28  O   UNL     1       6.539   5.121  19.733  0.00  0.00    +0.000 OA
ATOM     29  N   UNL     1       5.954   4.967  17.532  0.00  0.00    +0.000 N 
ATOM     30  C   UNL     1       7.321   4.672  17.108  0.00  0.00    +0.000 C 
ATOM     31  C   UNL     1       7.240   4.359  15.617  0.00  0.00    +0.000 C 
ATOM     32  C   UNL     1       5.771   4.030  15.376  0.00  0.00    +0.000 C 
ATOM     33  C   UNL     1       5.057   4.910  16.389  0.00  0.00    +0.000 C 
BRANCH  32  34
ATOM     34  O   UNL     1       5.367   4.306  14.046  0.00  0.00    +0.000 OA
ATOM     35  H   UNL     1       4.789   3.587  13.739  0.00  0.00    +0.000 HD
ENDBRANCH  32  34
ENDBRANCH  23  27
BRANCH  25  36
ATOM     36  C   UNL     1       1.427   2.955  20.604  0.00  0.00    +0.000 C 
ATOM     37  F   UNL     1       1.225   2.906  21.955  0.00  0.00    +0.000 F 
ATOM     38  F   UNL     1       0.185   2.889  20.048  0.00  0.00    +0.000 F 
ATOM     39  F   UNL     1       2.052   1.790  20.282  0.00  0.00    +0.000 F 
ENDBRANCH  25  36
ENDBRANCH   2  21
TORSDOF 8
ENDMDL
MODEL 7
REMARK VINA RESULT:      -9.2      2.015      3.118
REMARK  Name = 
REMARK  11 active torsions:
REMARK  status: ('A' for Active; 'I' for Inactive)
REMARK    1  A    between atoms: C_1  and  N_2
REMARK    2  A    between atoms: C_6  and  C_7
REMARK    3  A    between atoms: C_7  and  C_8
REMARK    4  A    between atoms: C_8  and  C_9
REMARK    5  A    between atoms: C_8  and  C_10
REMARK    6  A    between atoms: C_8  and  C_11
REMARK    7  A    between atoms: C_15  and  N_16
REMARK    8  A    between atoms: C_17  and  C_19
REMARK    9  A    between atoms: C_21  and  C_22
REMARK   10  A    between atoms: C_27  and  O_28
REMARK   11  A    between atoms: C_31  and  C_32
REMARK                            x       y       z     vdW  Elec       q    Type
REMARK                         _______ _______ _______ _____ _____    ______ ____
ROOT
ATOM      1  N   UNL     1       1.234   7.862  21.199  0.00  0.00    +0.000 N 
ATOM      2  C   UNL     1       1.883   7.651  19.989  0.00  0.00    +0.000 C 
ATOM      3  O   UNL     1       1.960   8.432  19.047  0.00  0.00    +0.000 OA
ATOM      4  H   UNL     1       1.374   7.139  21.897  0.00  0.00    +0.000 HD
ENDROOT
BRANCH   1   9
ATOM      5  C   UNL     1      -0.788  10.944  20.770  0.00  0.00    +0.000 A 
ATOM      6  C   UNL     1      -1.103  11.207  22.122  0.00  0.00    +0.000 A 
ATOM      7  C   UNL     1      -0.588  10.435  23.156  0.00  0.00    +0.000 A 
ATOM      8  C   UNL     1       0.216   9.346  22.861  0.00  0.00    +0.000 A 
ATOM      9  C   UNL     1       0.482   8.989  21.537  0.00  0.00    +0.000 A 
ATOM     10  C   UNL     1      -0.023   9.795  20.497  0.00  0.00    +0.000 A 
BRANCH   5  11
ATOM     11  C   UNL     1      -1.350  11.854  19.639  0.00  0.00    +0.000 C 
ATOM     12  C   UNL     1      -0.174  12.711  19.096  0.00  0.00    +0.000 C 
ATOM     13  C   UNL     1      -2.433  12.709  20.345  0.00  0.00    +0.000 C 
BRANCH  11  14
ATOM     14  C   UNL     1      -1.964  11.066  18.418  0.00  0.00    +0.000 C 
BRANCH  14  20
ATOM     15  C   UNL     1      -3.421  11.014  15.527  0.00  0.00    +0.000 C 
ATOM     16  N   UNL     1      -3.952  11.448  16.791  0.00  0.00    +0.000 N 
ATOM     17  C   UNL     1      -5.226  11.916  16.950  0.00  0.00    +0.000 A 
ATOM     18  N   UNL     1      -5.438  12.193  18.210  0.00  0.00    +0.000 NA
ATOM     19  N   UNL     1      -4.290  11.894  18.892  0.00  0.00    +0.000 NA
ATOM     20  C   UNL     1      -3.373  11.473  18.040  0.00  0.00    +0.000 A 
ENDBRANCH  14  20
ENDBRANCH  11  14
ENDBRANCH   5  11
ENDBRANCH   1   9
BRANCH   2  21
ATOM     21  C   UNL     1       2.568   6.338  19.884  0.00  0.00    +0.000 A 
ATOM     22  C   UNL     1       3.829   6.286  19.316  0.00  0.00    +0.000 A 
ATOM     23  C   UNL     1       4.461   5.050  19.242  0.00  0.00    +0.000 A 
ATOM     24  C   UNL     1       3.781   3.913  19.680  0.00  0.00    +0.000 A 
ATOM     25  C   UNL     1       2.525   4.046  20.273  0.00  0.00    +0.000 A 
ATOM     26  N   UNL     1       1.908   5.255  20.380  0.00  0.00    +0.000 NA
BRANCH  23  27
ATOM     27  C   UNL     1       5.850   5.023  18.698  0.00  0.00    +0.000 C 
ATOM     28  O   UNL     1       6.776   5.042  19.500  0.00  0.00    +0.000 OA
ATOM     29  N   UNL     1       6.050   4.892  17.341  0.00  0.00    +0.000 N 
ATOM     30  C   UNL     1       7.391   4.623  16.826  0.00  0.00    +0.000 C 
ATOM     31  C   UNL     1       7.217   4.318  15.341  0.00  0.00    +0.000 C 
ATOM     32  C   UNL     1       5.741   3.966  15.194  0.00  0.00    +0.000 C 
ATOM     33  C   UNL     1       5.081   4.827  16.259  0.00  0.00    +0.000 C 
BRANCH  32  34
ATOM     34  O   UNL     1       5.246   4.243  13.896  0.00  0.00    +0.000 OA
ATOM     35  H   UNL     1       4.839   3.436  13.538  0.00  0.00    +0.000 HD
ENDBRANCH  32  34
ENDBRANCH  23  27
BRANCH  25  36
ATOM     36  C   UNL     1       1.827   2.813  20.835  0.00  0.00    +0.000 C 
ATOM     37  F   UNL     1       0.508   3.029  21.118  0.00  0.00    +0.000 F 
ATOM     38  F   UNL     1       1.848   1.757  19.976  0.00  0.00    +0.000 F 
ATOM     39  F   UNL     1       2.386   2.374  21.996  0.00  0.00    +0.000 F 
ENDBRANCH  25  36
ENDBRANCH   2  21
TORSDOF 8
ENDMDL
MODEL 8
REMARK VINA RESULT:      -9.1      1.147      1.751
REMARK  Name = 
REMARK  11 active torsions:
REMARK  status: ('A' for Active; 'I' for Inactive)
REMARK    1  A    between atoms: C_1  and  N_2
REMARK    2  A    between atoms: C_6  and  C_7
REMARK    3  A    between atoms: C_7  and  C_8
REMARK    4  A    between atoms: C_8  and  C_9
REMARK    5  A    between atoms: C_8  and  C_10
REMARK    6  A    between atoms: C_8  and  C_11
REMARK    7  A    between atoms: C_15  and  N_16
REMARK    8  A    between atoms: C_17  and  C_19
REMARK    9  A    between atoms: C_21  and  C_22
REMARK   10  A    between atoms: C_27  and  O_28
REMARK   11  A    between atoms: C_31  and  C_32
REMARK                            x       y       z     vdW  Elec       q    Type
REMARK                         _______ _______ _______ _____ _____    ______ ____
ROOT
ATOM      1  N   UNL     1       1.278   8.181  21.377  0.00  0.00    +0.000 N 
ATOM      2  C   UNL     1       1.701   7.891  20.086  0.00  0.00    +0.000 C 
ATOM      3  O   UNL     1       1.616   8.616  19.102  0.00  0.00    +0.000 OA
ATOM      4  H   UNL     1       1.534   7.495  22.081  0.00  0.00    +0.000 HD
ENDROOT
BRANCH   1   9
ATOM      5  C   UNL     1       0.236  11.742  21.444  0.00  0.00    +0.000 A 
ATOM      6  C   UNL     1      -0.753  11.678  22.452  0.00  0.00    +0.000 A 
ATOM      7  C   UNL     1      -1.007  10.505  23.153  0.00  0.00    +0.000 A 
ATOM      8  C   UNL     1      -0.313   9.350  22.827  0.00  0.00    +0.000 A 
ATOM      9  C   UNL     1       0.607   9.339  21.777  0.00  0.00    +0.000 A 
ATOM     10  C   UNL     1       0.878  10.540  21.091  0.00  0.00    +0.000 A 
BRANCH   5  11
ATOM     11  C   UNL     1       0.522  13.083  20.707  0.00  0.00    +0.000 C 
ATOM     12  C   UNL     1       1.739  13.752  21.404  0.00  0.00    +0.000 C 
ATOM     13  C   UNL     1      -0.785  13.897  20.880  0.00  0.00    +0.000 C 
BRANCH  11  14
ATOM     14  C   UNL     1       0.884  12.918  19.181  0.00  0.00    +0.000 C 
BRANCH  14  20
ATOM     15  C   UNL     1       0.809  16.109  18.636  0.00  0.00    +0.000 C 
ATOM     16  N   UNL     1       1.901  15.194  18.448  0.00  0.00    +0.000 N 
ATOM     17  C   UNL     1       3.133  15.575  17.997  0.00  0.00    +0.000 A 
ATOM     18  N   UNL     1       3.931  14.540  17.969  0.00  0.00    +0.000 NA
ATOM     19  N   UNL     1       3.217  13.463  18.417  0.00  0.00    +0.000 NA
ATOM     20  C   UNL     1       1.978  13.839  18.681  0.00  0.00    +0.000 A 
ENDBRANCH  14  20
ENDBRANCH  11  14
ENDBRANCH   5  11
ENDBRANCH   1   9
BRANCH   2  21
ATOM     21  C   UNL     1       2.345   6.561  19.939  0.00  0.00    +0.000 A 
ATOM     22  C   UNL     1       3.638   6.496  19.448  0.00  0.00    +0.000 A 
ATOM     23  C   UNL     1       4.230   5.244  19.334  0.00  0.00    +0.000 A 
ATOM     24  C   UNL     1       3.484   4.108  19.653  0.00  0.00    +0.000 A 
ATOM     25  C   UNL     1       2.197   4.253  20.173  0.00  0.00    +0.000 A 
ATOM     26  N   UNL     1       1.617   5.476  20.321  0.00  0.00    +0.000 NA
BRANCH  23  27
ATOM     27  C   UNL     1       5.649   5.198  18.877  0.00  0.00    +0.000 C 
ATOM     28  O   UNL     1       6.525   5.232  19.733  0.00  0.00    +0.000 OA
ATOM     29  N   UNL     1       5.932   5.032  17.538  0.00  0.00    +0.000 N 
ATOM     30  C   UNL     1       7.300   4.744  17.113  0.00  0.00    +0.000 C 
ATOM     31  C   UNL     1       7.216   4.403  15.628  0.00  0.00    +0.000 C 
ATOM     32  C   UNL     1       5.750   4.054  15.400  0.00  0.00    +0.000 C 
ATOM     33  C   UNL     1       5.030   4.944  16.401  0.00  0.00    +0.000 C 
BRANCH  32  34
ATOM     34  O   UNL     1       5.337   4.301  14.067  0.00  0.00    +0.000 OA
ATOM     35  H   UNL     1       6.112   4.564  13.543  0.00  0.00    +0.000 HD
ENDBRANCH  32  34
ENDBRANCH  23  27
BRANCH  25  36
ATOM     36  C   UNL     1       1.421   3.015  20.609  0.00  0.00    +0.000 C 
ATOM     37  F   UNL     1       0.185   2.930  20.034  0.00  0.00    +0.000 F 
ATOM     38  F   UNL     1       2.056   1.854  20.284  0.00  0.00    +0.000 F 
ATOM     39  F   UNL     1       1.209   2.972  21.952  0.00  0.00    +0.000 F 
ENDBRANCH  25  36
ENDBRANCH   2  21
TORSDOF 8
ENDMDL
MODEL 9
REMARK VINA RESULT:      -9.1      1.074      1.778
REMARK  Name = 
REMARK  11 active torsions:
REMARK  status: ('A' for Active; 'I' for Inactive)
REMARK    1  A    between atoms: C_1  and  N_2
REMARK    2  A    between atoms: C_6  and  C_7
REMARK    3  A    between atoms: C_7  and  C_8
REMARK    4  A    between atoms: C_8  and  C_9
REMARK    5  A    between atoms: C_8  and  C_10
REMARK    6  A    between atoms: C_8  and  C_11
REMARK    7  A    between atoms: C_15  and  N_16
REMARK    8  A    between atoms: C_17  and  C_19
REMARK    9  A    between atoms: C_21  and  C_22
REMARK   10  A    between atoms: C_27  and  O_28
REMARK   11  A    between atoms: C_31  and  C_32
REMARK                            x       y       z     vdW  Elec       q    Type
REMARK                         _______ _______ _______ _____ _____    ______ ____
ROOT
ATOM      1  N   UNL     1       1.260   8.133  21.432  0.00  0.00    +0.000 N 
ATOM      2  C   UNL     1       1.679   7.866  20.135  0.00  0.00    +0.000 C 
ATOM      3  O   UNL     1       1.589   8.609  19.163  0.00  0.00    +0.000 OA
ATOM      4  H   UNL     1       1.520   7.435  22.123  0.00  0.00    +0.000 HD
ENDROOT
BRANCH   1   9
ATOM      5  C   UNL     1       0.289  11.709  21.636  0.00  0.00    +0.000 A 
ATOM      6  C   UNL     1      -0.762  11.612  22.576  0.00  0.00    +0.000 A 
ATOM      7  C   UNL     1      -1.084  10.409  23.192  0.00  0.00    +0.000 A 
ATOM      8  C   UNL     1      -0.395   9.257  22.845  0.00  0.00    +0.000 A 
ATOM      9  C   UNL     1       0.590   9.282  21.855  0.00  0.00    +0.000 A 
ATOM     10  C   UNL     1       0.927  10.513  21.256  0.00  0.00    +0.000 A 
BRANCH   5  11
ATOM     11  C   UNL     1       0.649  13.081  20.996  0.00  0.00    +0.000 C 
ATOM     12  C   UNL     1       0.095  14.194  21.927  0.00  0.00    +0.000 C 
ATOM     13  C   UNL     1      -0.057  13.052  19.616  0.00  0.00    +0.000 C 
BRANCH  11  14
ATOM     14  C   UNL     1       2.197  13.331  20.830  0.00  0.00    +0.000 C 
BRANCH  14  20
ATOM     15  C   UNL     1       2.980  12.645  17.763  0.00  0.00    +0.000 C 
ATOM     16  N   UNL     1       2.916  13.929  18.406  0.00  0.00    +0.000 N 
ATOM     17  C   UNL     1       3.184  15.105  17.764  0.00  0.00    +0.000 A 
ATOM     18  N   UNL     1       3.004  16.105  18.586  0.00  0.00    +0.000 NA
ATOM     19  N   UNL     1       2.601  15.582  19.784  0.00  0.00    +0.000 NA
ATOM     20  C   UNL     1       2.575  14.264  19.697  0.00  0.00    +0.000 A 
ENDBRANCH  14  20
ENDBRANCH  11  14
ENDBRANCH   5  11
ENDBRANCH   1   9
BRANCH   2  21
ATOM     21  C   UNL     1       2.324   6.540  19.961  0.00  0.00    +0.000 A 
ATOM     22  C   UNL     1       3.620   6.486  19.476  0.00  0.00    +0.000 A 
ATOM     23  C   UNL     1       4.213   5.237  19.337  0.00  0.00    +0.000 A 
ATOM     24  C   UNL     1       3.466   4.095  19.627  0.00  0.00    +0.000 A 
ATOM     25  C   UNL     1       2.176   4.227  20.144  0.00  0.00    +0.000 A 
ATOM     26  N   UNL     1       1.596   5.446  20.316  0.00  0.00    +0.000 NA
BRANCH  23  27
ATOM     27  C   UNL     1       5.635   5.202  18.886  0.00  0.00    +0.000 C 
ATOM     28  O   UNL     1       6.506   5.242  19.746  0.00  0.00    +0.000 OA
ATOM     29  N   UNL     1       5.924   5.039  17.548  0.00  0.00    +0.000 N 
ATOM     30  C   UNL     1       7.296   4.761  17.130  0.00  0.00    +0.000 C 
ATOM     31  C   UNL     1       7.221   4.420  15.644  0.00  0.00    +0.000 C 
ATOM     32  C   UNL     1       5.759   4.061  15.409  0.00  0.00    +0.000 C 
ATOM     33  C   UNL     1       5.028   4.945  16.407  0.00  0.00    +0.000 C 
BRANCH  32  34
ATOM     34  O   UNL     1       5.350   4.305  14.075  0.00  0.00    +0.000 OA
ATOM     35  H   UNL     1       6.124   4.234  13.492  0.00  0.00    +0.000 HD
ENDBRANCH  32  34
ENDBRANCH  23  27
BRANCH  25  36
ATOM     36  C   UNL     1       1.400   2.980  20.549  0.00  0.00    +0.000 C 
ATOM     37  F   UNL     1       2.059   1.821  20.253  0.00  0.00    +0.000 F 
ATOM     38  F   UNL     1       1.151   2.925  21.888  0.00  0.00    +0.000 F 
ATOM     39  F   UNL     1       0.191   2.887  19.930  0.00  0.00    +0.000 F 
ENDBRANCH  25  36
ENDBRANCH   2  21
TORSDOF 8
ENDMDL
