MODEL 1
REMARK VINA RESULT:      -9.5      0.000      0.000
REMARK  Name = 
REMARK  9 active torsions:
REMARK  status: ('A' for Active; 'I' for Inactive)
REMARK    1  A    between atoms: C_1  and  C_2
REMARK    2  A    between atoms: N_4  and  C_5
REMARK    3  A    between atoms: C_5  and  C_6
REMARK    4  A    between atoms: C_10  and  C_11
REMARK    5  A    between atoms: N_17  and  C_18
REMARK    6  A    between atoms: C_22  and  C_23
REMARK    7  A    between atoms: C_23  and  C_24
REMARK    8  A    between atoms: C_24  and  C_25
REMARK    9  A    between atoms: N_29  and  C_30
REMARK                            x       y       z     vdW  Elec       q    Type
REMARK                         _______ _______ _______ _____ _____    ______ ____
ROOT
ATOM      1  C   UNL     1       3.590   5.058  17.794  0.00  0.00    +0.000 A 
ATOM      2  C   UNL     1       3.059   6.348  17.773  0.00  0.00    +0.000 A 
ATOM      3  C   UNL     1       2.312   6.738  18.856  0.00  0.00    +0.000 A 
ATOM      4  C   UNL     1       2.030   5.911  19.939  0.00  0.00    +0.000 A 
ATOM      5  C   UNL     1       2.455   4.589  19.943  0.00  0.00    +0.000 A 
ATOM      6  C   UNL     1       3.266   4.185  18.865  0.00  0.00    +0.000 A 
ATOM      7  C   UNL     1       1.323   6.698  20.994  0.00  0.00    +0.000 C 
ATOM      8  N   UNL     1       1.236   8.033  20.415  0.00  0.00    +0.000 N 
ATOM      9  C   UNL     1       1.789   8.078  19.136  0.00  0.00    +0.000 C 
ATOM     10  O   UNL     1       1.917   8.997  18.348  0.00  0.00    +0.000 OA
ENDROOT
BRANCH   8  11
ATOM     11  C   UNL     1       0.696   9.132  21.121  0.00  0.00    +0.000 A 
ATOM     12  C   UNL     1       0.066   8.970  22.356  0.00  0.00    +0.000 A 
ATOM     13  C   UNL     1      -0.452  10.066  23.040  0.00  0.00    +0.000 A 
ATOM     14  C   UNL     1      -0.388  11.335  22.469  0.00  0.00    +0.000 A 
ATOM     15  C   UNL     1       0.187  11.546  21.203  0.00  0.00    +0.000 A 
ATOM     16  C   UNL     1       0.762  10.422  20.577  0.00  0.00    +0.000 A 
BRANCH  15  17
ATOM     17  C   UNL     1       0.154  12.970  20.481  0.00  0.00    +0.000 C 
ATOM     18  C   UNL     1       0.707  13.092  19.029  0.00  0.00    +0.000 C 
ATOM     19  O   UNL     1      -0.471  13.845  18.623  0.00  0.00    +0.000 OA
ATOM     20  C   UNL     1      -1.185  13.312  19.765  0.00  0.00    +0.000 C 
BRANCH  17  21
ATOM     21  C   UNL     1       0.637  14.092  21.417  0.00  0.00    +0.000 C 
BRANCH  21  22
ATOM     22  C   UNL     1       2.084  14.425  21.241  0.00  0.00    +0.000 A 
ATOM     23  N   UNL     1       3.103  13.699  21.661  0.00  0.00    +0.000 NA
ATOM     24  N   UNL     1       4.265  14.324  21.282  0.00  0.00    +0.000 NA
ATOM     25  C   UNL     1       3.937  15.417  20.638  0.00  0.00    +0.000 A 
ATOM     26  N   UNL     1       2.581  15.533  20.603  0.00  0.00    +0.000 N 
ATOM     27  C   UNL     1       1.852  16.614  19.997  0.00  0.00    +0.000 C 
ENDBRANCH  21  22
ENDBRANCH  17  21
ENDBRANCH  15  17
ENDBRANCH   8  11
BRANCH   5  28
ATOM     28  C   UNL     1       2.102   3.614  21.036  0.00  0.00    +0.000 C 
ATOM     29  F   UNL     1       2.476   4.024  22.278  0.00  0.00    +0.000 F 
ATOM     30  F   UNL     1       0.762   3.385  21.106  0.00  0.00    +0.000 F 
ATOM     31  F   UNL     1       2.682   2.397  20.853  0.00  0.00    +0.000 F 
ENDBRANCH   5  28
BRANCH   1  32
ATOM     32  C   UNL     1       4.573   4.649  16.719  0.00  0.00    +0.000 C 
BRANCH  32  36
ATOM     33  C   UNL     1       7.592   7.777  17.593  0.00  0.00    +0.000 C 
ATOM     34  C   UNL     1       6.906   6.624  16.877  0.00  0.00    +0.000 C 
ATOM     35  C   UNL     1       6.611   5.463  17.851  0.00  0.00    +0.000 C 
ATOM     36  N   UNL     1       5.926   4.326  17.196  0.00  0.00    +0.000 NA
ATOM     37  C   UNL     1       6.775   3.913  16.050  0.00  0.00    +0.000 C 
ATOM     38  C   UNL     1       7.151   5.073  15.104  0.00  0.00    +0.000 C 
ATOM     39  O   UNL     1       7.753   6.170  15.810  0.00  0.00    +0.000 OA
ENDBRANCH  32  36
ENDBRANCH   1  32
TORSDOF 7
ENDMDL
MODEL 2
REMARK VINA RESULT:      -9.3      2.335      3.421
REMARK  Name = 
REMARK  9 active torsions:
REMARK  status: ('A' for Active; 'I' for Inactive)
REMARK    1  A    between atoms: C_1  and  C_2
REMARK    2  A    between atoms: N_4  and  C_5
REMARK    3  A    between atoms: C_5  and  C_6
REMARK    4  A    between atoms: C_10  and  C_11
REMARK    5  A    between atoms: N_17  and  C_18
REMARK    6  A    between atoms: C_22  and  C_23
REMARK    7  A    between atoms: C_23  and  C_24
REMARK    8  A    between atoms: C_24  and  C_25
REMARK    9  A    between atoms: N_29  and  C_30
REMARK                            x       y       z     vdW  Elec       q    Type
REMARK                         _______ _______ _______ _____ _____    ______ ____
ROOT
ATOM      1  C   UNL     1       3.661   4.816  17.652  0.00  0.00    +0.000 A 
ATOM      2  C   UNL     1       3.156   6.115  17.589  0.00  0.00    +0.000 A 
ATOM      3  C   UNL     1       2.379   6.539  18.638  0.00  0.00    +0.000 A 
ATOM      4  C   UNL     1       2.044   5.737  19.725  0.00  0.00    +0.000 A 
ATOM      5  C   UNL     1       2.442   4.408  19.767  0.00  0.00    +0.000 A 
ATOM      6  C   UNL     1       3.284   3.969  18.726  0.00  0.00    +0.000 A 
ATOM      7  C   UNL     1       1.315   6.557  20.739  0.00  0.00    +0.000 C 
ATOM      8  N   UNL     1       1.274   7.881  20.134  0.00  0.00    +0.000 N 
ATOM      9  C   UNL     1       1.872   7.892  18.875  0.00  0.00    +0.000 C 
ATOM     10  O   UNL     1       2.045   8.794  18.075  0.00  0.00    +0.000 OA
ENDROOT
BRANCH   8  11
ATOM     11  C   UNL     1       0.730   9.004  20.800  0.00  0.00    +0.000 A 
ATOM     12  C   UNL     1       0.696   9.081  22.193  0.00  0.00    +0.000 A 
ATOM     13  C   UNL     1       0.164  10.199  22.831  0.00  0.00    +0.000 A 
ATOM     14  C   UNL     1      -0.386  11.232  22.078  0.00  0.00    +0.000 A 
ATOM     15  C   UNL     1      -0.426  11.181  20.673  0.00  0.00    +0.000 A 
ATOM     16  C   UNL     1       0.186  10.066  20.066  0.00  0.00    +0.000 A 
BRANCH  15  17
ATOM     17  C   UNL     1      -1.166  12.297  19.802  0.00  0.00    +0.000 C 
ATOM     18  C   UNL     1      -1.038  13.792  20.226  0.00  0.00    +0.000 C 
ATOM     19  O   UNL     1      -0.741  14.175  18.853  0.00  0.00    +0.000 OA
ATOM     20  C   UNL     1      -0.364  12.805  18.569  0.00  0.00    +0.000 C 
BRANCH  17  21
ATOM     21  C   UNL     1      -2.605  11.881  19.452  0.00  0.00    +0.000 C 
BRANCH  21  22
ATOM     22  C   UNL     1      -2.738  11.318  18.074  0.00  0.00    +0.000 A 
ATOM     23  N   UNL     1      -1.816  10.633  17.423  0.00  0.00    +0.000 NA
ATOM     24  N   UNL     1      -2.328  10.266  16.203  0.00  0.00    +0.000 NA
ATOM     25  C   UNL     1      -3.551  10.732  16.129  0.00  0.00    +0.000 A 
ATOM     26  N   UNL     1      -3.846  11.413  17.271  0.00  0.00    +0.000 N 
ATOM     27  C   UNL     1      -5.091  12.079  17.546  0.00  0.00    +0.000 C 
ENDBRANCH  21  22
ENDBRANCH  17  21
ENDBRANCH  15  17
ENDBRANCH   8  11
BRANCH   5  28
ATOM     28  C   UNL     1       2.033   3.460  20.865  0.00  0.00    +0.000 C 
ATOM     29  F   UNL     1       2.509   3.803  22.092  0.00  0.00    +0.000 F 
ATOM     30  F   UNL     1       0.681   3.382  20.997  0.00  0.00    +0.000 F 
ATOM     31  F   UNL     1       2.461   2.189  20.639  0.00  0.00    +0.000 F 
ENDBRANCH   5  28
BRANCH   1  32
ATOM     32  C   UNL     1       4.673   4.369  16.620  0.00  0.00    +0.000 C 
BRANCH  32  36
ATOM     33  C   UNL     1       7.390   7.741  17.575  0.00  0.00    +0.000 C 
ATOM     34  C   UNL     1       6.823   6.537  16.839  0.00  0.00    +0.000 C 
ATOM     35  C   UNL     1       6.607   5.350  17.802  0.00  0.00    +0.000 C 
ATOM     36  N   UNL     1       6.037   4.161  17.128  0.00  0.00    +0.000 NA
ATOM     37  C   UNL     1       6.946   3.829  16.001  0.00  0.00    +0.000 C 
ATOM     38  C   UNL     1       7.243   5.022  15.068  0.00  0.00    +0.000 C 
ATOM     39  O   UNL     1       7.731   6.162  15.791  0.00  0.00    +0.000 OA
ENDBRANCH  32  36
ENDBRANCH   1  32
TORSDOF 7
ENDMDL
MODEL 3
REMARK VINA RESULT:      -9.3      1.389      1.741
REMARK  Name = 
REMARK  9 active torsions:
REMARK  status: ('A' for Active; 'I' for Inactive)
REMARK    1  A    between atoms: C_1  and  C_2
REMARK    2  A    between atoms: N_4  and  C_5
REMARK    3  A    between atoms: C_5  and  C_6
REMARK    4  A    between atoms: C_10  and  C_11
REMARK    5  A    between atoms: N_17  and  C_18
REMARK    6  A    between atoms: C_22  and  C_23
REMARK    7  A    between atoms: C_23  and  C_24
REMARK    8  A    between atoms: C_24  and  C_25
REMARK    9  A    between atoms: N_29  and  C_30
REMARK                            x       y       z     vdW  Elec       q    Type
REMARK                         _______ _______ _______ _____ _____    ______ ____
ROOT
ATOM      1  C   UNL     1       3.563   5.174  17.791  0.00  0.00    +0.000 A 
ATOM      2  C   UNL     1       3.023   6.460  17.792  0.00  0.00    +0.000 A 
ATOM      3  C   UNL     1       2.270   6.825  18.881  0.00  0.00    +0.000 A 
ATOM      4  C   UNL     1       1.993   5.976  19.948  0.00  0.00    +0.000 A 
ATOM      5  C   UNL     1       2.427   4.657  19.928  0.00  0.00    +0.000 A 
ATOM      6  C   UNL     1       3.243   4.279  18.845  0.00  0.00    +0.000 A 
ATOM      7  C   UNL     1       1.278   6.738  21.015  0.00  0.00    +0.000 C 
ATOM      8  N   UNL     1       1.182   8.082  20.461  0.00  0.00    +0.000 N 
ATOM      9  C   UNL     1       1.737   8.155  19.185  0.00  0.00    +0.000 C 
ATOM     10  O   UNL     1       1.859   9.089  18.413  0.00  0.00    +0.000 OA
ENDROOT
BRANCH   8  11
ATOM     11  C   UNL     1       0.632   9.165  21.186  0.00  0.00    +0.000 A 
ATOM     12  C   UNL     1      -0.059   8.968  22.382  0.00  0.00    +0.000 A 
ATOM     13  C   UNL     1      -0.586  10.047  23.086  0.00  0.00    +0.000 A 
ATOM     14  C   UNL     1      -0.468  11.336  22.572  0.00  0.00    +0.000 A 
ATOM     15  C   UNL     1       0.172  11.585  21.345  0.00  0.00    +0.000 A 
ATOM     16  C   UNL     1       0.752  10.474  20.700  0.00  0.00    +0.000 A 
BRANCH  15  17
ATOM     17  C   UNL     1       0.203  13.037  20.681  0.00  0.00    +0.000 C 
ATOM     18  C   UNL     1       1.558  13.806  20.614  0.00  0.00    +0.000 C 
ATOM     19  O   UNL     1       1.321  14.140  19.217  0.00  0.00    +0.000 OA
ATOM     20  C   UNL     1       0.371  13.048  19.134  0.00  0.00    +0.000 C 
BRANCH  17  21
ATOM     21  C   UNL     1      -0.971  13.907  21.164  0.00  0.00    +0.000 C 
BRANCH  21  22
ATOM     22  C   UNL     1      -0.558  14.972  22.128  0.00  0.00    +0.000 A 
ATOM     23  N   UNL     1      -0.327  14.805  23.417  0.00  0.00    +0.000 NA
ATOM     24  N   UNL     1       0.057  16.012  23.948  0.00  0.00    +0.000 NA
ATOM     25  C   UNL     1       0.054  16.892  22.978  0.00  0.00    +0.000 A 
ATOM     26  N   UNL     1      -0.342  16.292  21.822  0.00  0.00    +0.000 N 
ATOM     27  C   UNL     1      -0.484  16.946  20.549  0.00  0.00    +0.000 C 
ENDBRANCH  21  22
ENDBRANCH  17  21
ENDBRANCH  15  17
ENDBRANCH   8  11
BRANCH   5  28
ATOM     28  C   UNL     1       2.080   3.659  21.003  0.00  0.00    +0.000 C 
ATOM     29  F   UNL     1       0.745   3.426  21.123  0.00  0.00    +0.000 F 
ATOM     30  F   UNL     1       2.653   2.445  20.778  0.00  0.00    +0.000 F 
ATOM     31  F   UNL     1       2.504   4.052  22.234  0.00  0.00    +0.000 F 
ENDBRANCH   5  28
BRANCH   1  32
ATOM     32  C   UNL     1       4.551   4.791  16.710  0.00  0.00    +0.000 C 
BRANCH  32  36
ATOM     33  C   UNL     1       7.668   7.797  17.666  0.00  0.00    +0.000 C 
ATOM     34  C   UNL     1       6.949   6.683  16.922  0.00  0.00    +0.000 C 
ATOM     35  C   UNL     1       6.608   5.513  17.871  0.00  0.00    +0.000 C 
ATOM     36  N   UNL     1       5.888   4.413  17.189  0.00  0.00    +0.000 NA
ATOM     37  C   UNL     1       6.731   3.995  16.040  0.00  0.00    +0.000 C 
ATOM     38  C   UNL     1       7.153   5.160  15.120  0.00  0.00    +0.000 C 
ATOM     39  O   UNL     1       7.787   6.221  15.852  0.00  0.00    +0.000 OA
ENDBRANCH  32  36
ENDBRANCH   1  32
TORSDOF 7
ENDMDL
MODEL 4
REMARK VINA RESULT:      -9.2      1.238      1.556
REMARK  Name = 
REMARK  9 active torsions:
REMARK  status: ('A' for Active; 'I' for Inactive)
REMARK    1  A    between atoms: C_1  and  C_2
REMARK    2  A    between atoms: N_4  and  C_5
REMARK    3  A    between atoms: C_5  and  C_6
REMARK    4  A    between atoms: C_10  and  C_11
REMARK    5  A    between atoms: N_17  and  C_18
REMARK    6  A    between atoms: C_22  and  C_23
REMARK    7  A    between atoms: C_23  and  C_24
REMARK    8  A    between atoms: C_24  and  C_25
REMARK    9  A    between atoms: N_29  and  C_30
REMARK                            x       y       z     vdW  Elec       q    Type
REMARK                         _______ _______ _______ _____ _____    ______ ____
ROOT
ATOM      1  C   UNL     1       3.522   5.117  17.764  0.00  0.00    +0.000 A 
ATOM      2  C   UNL     1       2.971   6.398  17.808  0.00  0.00    +0.000 A 
ATOM      3  C   UNL     1       2.207   6.715  18.903  0.00  0.00    +0.000 A 
ATOM      4  C   UNL     1       1.927   5.825  19.935  0.00  0.00    +0.000 A 
ATOM      5  C   UNL     1       2.373   4.512  19.871  0.00  0.00    +0.000 A 
ATOM      6  C   UNL     1       3.202   4.181  18.781  0.00  0.00    +0.000 A 
ATOM      7  C   UNL     1       1.197   6.541  21.024  0.00  0.00    +0.000 C 
ATOM      8  N   UNL     1       1.095   7.904  20.519  0.00  0.00    +0.000 N 
ATOM      9  C   UNL     1       1.659   8.029  19.251  0.00  0.00    +0.000 C 
ATOM     10  O   UNL     1       1.781   8.992  18.516  0.00  0.00    +0.000 OA
ENDROOT
BRANCH   8  11
ATOM     11  C   UNL     1       0.530   8.954  21.279  0.00  0.00    +0.000 A 
ATOM     12  C   UNL     1       0.381   8.857  22.663  0.00  0.00    +0.000 A 
ATOM     13  C   UNL     1      -0.170   9.906  23.395  0.00  0.00    +0.000 A 
ATOM     14  C   UNL     1      -0.624  11.047  22.740  0.00  0.00    +0.000 A 
ATOM     15  C   UNL     1      -0.548  11.175  21.342  0.00  0.00    +0.000 A 
ATOM     16  C   UNL     1       0.080  10.121  20.647  0.00  0.00    +0.000 A 
BRANCH  15  17
ATOM     17  C   UNL     1      -1.178  12.419  20.565  0.00  0.00    +0.000 C 
ATOM     18  C   UNL     1      -2.343  12.169  19.558  0.00  0.00    +0.000 C 
ATOM     19  O   UNL     1      -3.101  13.271  20.133  0.00  0.00    +0.000 OA
ATOM     20  C   UNL     1      -2.300  13.174  21.336  0.00  0.00    +0.000 C 
BRANCH  17  21
ATOM     21  C   UNL     1      -0.089  13.359  20.019  0.00  0.00    +0.000 C 
BRANCH  21  22
ATOM     22  C   UNL     1       0.313  14.422  20.990  0.00  0.00    +0.000 A 
ATOM     23  N   UNL     1       1.089  14.257  22.044  0.00  0.00    +0.000 NA
ATOM     24  N   UNL     1       1.246  15.473  22.663  0.00  0.00    +0.000 NA
ATOM     25  C   UNL     1       0.566  16.358  21.976  0.00  0.00    +0.000 A 
ATOM     26  N   UNL     1      -0.050  15.744  20.929  0.00  0.00    +0.000 N 
ATOM     27  C   UNL     1      -0.900  16.390  19.966  0.00  0.00    +0.000 C 
ENDBRANCH  21  22
ENDBRANCH  17  21
ENDBRANCH  15  17
ENDBRANCH   8  11
BRANCH   5  28
ATOM     28  C   UNL     1       2.025   3.471  20.904  0.00  0.00    +0.000 C 
ATOM     29  F   UNL     1       0.697   3.184  20.967  0.00  0.00    +0.000 F 
ATOM     30  F   UNL     1       2.653   2.287  20.669  0.00  0.00    +0.000 F 
ATOM     31  F   UNL     1       2.387   3.846  22.160  0.00  0.00    +0.000 F 
ENDBRANCH   5  28
BRANCH   1  32
ATOM     32  C   UNL     1       4.522   4.783  16.678  0.00  0.00    +0.000 C 
BRANCH  32  36
ATOM     33  C   UNL     1       7.669   7.753  17.650  0.00  0.00    +0.000 C 
ATOM     34  C   UNL     1       6.939   6.650  16.901  0.00  0.00    +0.000 C 
ATOM     35  C   UNL     1       6.587   5.479  17.843  0.00  0.00    +0.000 C 
ATOM     36  N   UNL     1       5.857   4.389  17.155  0.00  0.00    +0.000 NA
ATOM     37  C   UNL     1       6.695   3.969  16.003  0.00  0.00    +0.000 C 
ATOM     38  C   UNL     1       7.128   5.135  15.090  0.00  0.00    +0.000 C 
ATOM     39  O   UNL     1       7.772   6.186  15.827  0.00  0.00    +0.000 OA
ENDBRANCH  32  36
ENDBRANCH   1  32
TORSDOF 7
ENDMDL
MODEL 5
REMARK VINA RESULT:      -9.2      1.983      3.098
REMARK  Name = 
REMARK  9 active torsions:
REMARK  status: ('A' for Active; 'I' for Inactive)
REMARK    1  A    between atoms: C_1  and  C_2
REMARK    2  A    between atoms: N_4  and  C_5
REMARK    3  A    between atoms: C_5  and  C_6
REMARK    4  A    between atoms: C_10  and  C_11
REMARK    5  A    between atoms: N_17  and  C_18
REMARK    6  A    between atoms: C_22  and  C_23
REMARK    7  A    between atoms: C_23  and  C_24
REMARK    8  A    between atoms: C_24  and  C_25
REMARK    9  A    between atoms: N_29  and  C_30
REMARK                            x       y       z     vdW  Elec       q    Type
REMARK                         _______ _______ _______ _____ _____    ______ ____
ROOT
ATOM      1  C   UNL     1       3.657   4.973  17.946  0.00  0.00    +0.000 A 
ATOM      2  C   UNL     1       3.133   6.264  17.891  0.00  0.00    +0.000 A 
ATOM      3  C   UNL     1       2.358   6.673  18.948  0.00  0.00    +0.000 A 
ATOM      4  C   UNL     1       2.042   5.863  20.035  0.00  0.00    +0.000 A 
ATOM      5  C   UNL     1       2.461   4.540  20.069  0.00  0.00    +0.000 A 
ATOM      6  C   UNL     1       3.300   4.117  19.020  0.00  0.00    +0.000 A 
ATOM      7  C   UNL     1       1.310   6.668  21.057  0.00  0.00    +0.000 C 
ATOM      8  N   UNL     1       1.245   7.994  20.457  0.00  0.00    +0.000 N 
ATOM      9  C   UNL     1       1.833   8.018  19.194  0.00  0.00    +0.000 C 
ATOM     10  O   UNL     1       1.987   8.925  18.396  0.00  0.00    +0.000 OA
ENDROOT
BRANCH   8  11
ATOM     11  C   UNL     1       0.691   9.106  21.132  0.00  0.00    +0.000 A 
ATOM     12  C   UNL     1      -0.165   8.947  22.223  0.00  0.00    +0.000 A 
ATOM     13  C   UNL     1      -0.695  10.055  22.880  0.00  0.00    +0.000 A 
ATOM     14  C   UNL     1      -0.410  11.337  22.419  0.00  0.00    +0.000 A 
ATOM     15  C   UNL     1       0.402  11.553  21.291  0.00  0.00    +0.000 A 
ATOM     16  C   UNL     1       0.974  10.409  20.699  0.00  0.00    +0.000 A 
BRANCH  15  17
ATOM     17  C   UNL     1       0.634  13.008  20.675  0.00  0.00    +0.000 C 
ATOM     18  C   UNL     1       1.619  13.981  21.391  0.00  0.00    +0.000 C 
ATOM     19  O   UNL     1       2.249  14.308  20.119  0.00  0.00    +0.000 OA
ATOM     20  C   UNL     1       1.715  13.083  19.558  0.00  0.00    +0.000 C 
BRANCH  17  21
ATOM     21  C   UNL     1      -0.694  13.671  20.270  0.00  0.00    +0.000 C 
BRANCH  21  22
ATOM     22  C   UNL     1      -1.512  12.833  19.341  0.00  0.00    +0.000 A 
ATOM     23  N   UNL     1      -1.128  12.381  18.161  0.00  0.00    +0.000 NA
ATOM     24  N   UNL     1      -2.148  11.629  17.632  0.00  0.00    +0.000 NA
ATOM     25  C   UNL     1      -3.134  11.633  18.495  0.00  0.00    +0.000 A 
ATOM     26  N   UNL     1      -2.790  12.389  19.573  0.00  0.00    +0.000 N 
ATOM     27  C   UNL     1      -3.625  12.641  20.716  0.00  0.00    +0.000 C 
ENDBRANCH  21  22
ENDBRANCH  17  21
ENDBRANCH  15  17
ENDBRANCH   8  11
BRANCH   5  28
ATOM     28  C   UNL     1       2.074   3.582  21.166  0.00  0.00    +0.000 C 
ATOM     29  F   UNL     1       2.389   4.021  22.414  0.00  0.00    +0.000 F 
ATOM     30  F   UNL     1       0.735   3.336  21.183  0.00  0.00    +0.000 F 
ATOM     31  F   UNL     1       2.676   2.369  21.033  0.00  0.00    +0.000 F 
ENDBRANCH   5  28
BRANCH   1  32
ATOM     32  C   UNL     1       4.668   4.543  16.904  0.00  0.00    +0.000 C 
BRANCH  32  36
ATOM     33  C   UNL     1       6.451   3.784  12.916  0.00  0.00    +0.000 C 
ATOM     34  C   UNL     1       6.369   4.148  14.390  0.00  0.00    +0.000 C 
ATOM     35  C   UNL     1       5.319   5.254  14.630  0.00  0.00    +0.000 C 
ATOM     36  N   UNL     1       5.194   5.625  16.058  0.00  0.00    +0.000 NA
ATOM     37  C   UNL     1       6.551   6.009  16.524  0.00  0.00    +0.000 C 
ATOM     38  C   UNL     1       7.634   4.953  16.222  0.00  0.00    +0.000 C 
ATOM     39  O   UNL     1       7.661   4.590  14.833  0.00  0.00    +0.000 OA
ENDBRANCH  32  36
ENDBRANCH   1  32
TORSDOF 7
ENDMDL
MODEL 6
REMARK VINA RESULT:      -9.0      0.916      1.691
REMARK  Name = 
REMARK  9 active torsions:
REMARK  status: ('A' for Active; 'I' for Inactive)
REMARK    1  A    between atoms: C_1  and  C_2
REMARK    2  A    between atoms: N_4  and  C_5
REMARK    3  A    between atoms: C_5  and  C_6
REMARK    4  A    between atoms: C_10  and  C_11
REMARK    5  A    between atoms: N_17  and  C_18
REMARK    6  A    between atoms: C_22  and  C_23
REMARK    7  A    between atoms: C_23  and  C_24
REMARK    8  A    between atoms: C_24  and  C_25
REMARK    9  A    between atoms: N_29  and  C_30
REMARK                            x       y       z     vdW  Elec       q    Type
REMARK                         _______ _______ _______ _____ _____    ______ ____
ROOT
ATOM      1  C   UNL     1       3.740   4.916  18.031  0.00  0.00    +0.000 A 
ATOM      2  C   UNL     1       3.226   6.213  17.986  0.00  0.00    +0.000 A 
ATOM      3  C   UNL     1       2.410   6.601  19.019  0.00  0.00    +0.000 A 
ATOM      4  C   UNL     1       2.044   5.767  20.071  0.00  0.00    +0.000 A 
ATOM      5  C   UNL     1       2.453   4.441  20.091  0.00  0.00    +0.000 A 
ATOM      6  C   UNL     1       3.333   4.037  19.068  0.00  0.00    +0.000 A 
ATOM      7  C   UNL     1       1.275   6.553  21.082  0.00  0.00    +0.000 C 
ATOM      8  N   UNL     1       1.243   7.893  20.512  0.00  0.00    +0.000 N 
ATOM      9  C   UNL     1       1.883   7.944  19.276  0.00  0.00    +0.000 C 
ATOM     10  O   UNL     1       2.076   8.869  18.507  0.00  0.00    +0.000 OA
ENDROOT
BRANCH   8  11
ATOM     11  C   UNL     1       0.667   8.992  21.190  0.00  0.00    +0.000 A 
ATOM     12  C   UNL     1       0.086   8.851  22.451  0.00  0.00    +0.000 A 
ATOM     13  C   UNL     1      -0.468   9.947  23.107  0.00  0.00    +0.000 A 
ATOM     14  C   UNL     1      -0.490  11.191  22.483  0.00  0.00    +0.000 A 
ATOM     15  C   UNL     1       0.033  11.378  21.191  0.00  0.00    +0.000 A 
ATOM     16  C   UNL     1       0.647  10.260  20.593  0.00  0.00    +0.000 A 
BRANCH  15  17
ATOM     17  C   UNL     1      -0.098  12.766  20.413  0.00  0.00    +0.000 C 
ATOM     18  C   UNL     1      -1.390  13.048  19.586  0.00  0.00    +0.000 C 
ATOM     19  O   UNL     1      -1.497  14.377  20.171  0.00  0.00    +0.000 OA
ATOM     20  C   UNL     1      -0.649  13.947  21.265  0.00  0.00    +0.000 C 
BRANCH  17  21
ATOM     21  C   UNL     1       1.197  13.121  19.662  0.00  0.00    +0.000 C 
BRANCH  21  22
ATOM     22  C   UNL     1       2.176  13.878  20.501  0.00  0.00    +0.000 A 
ATOM     23  N   UNL     1       2.905  13.380  21.482  0.00  0.00    +0.000 NA
ATOM     24  N   UNL     1       3.699  14.382  21.984  0.00  0.00    +0.000 NA
ATOM     25  C   UNL     1       3.443  15.471  21.302  0.00  0.00    +0.000 A 
ATOM     26  N   UNL     1       2.483  15.209  20.373  0.00  0.00    +0.000 N 
ATOM     27  C   UNL     1       1.931  16.165  19.452  0.00  0.00    +0.000 C 
ENDBRANCH  21  22
ENDBRANCH  17  21
ENDBRANCH  15  17
ENDBRANCH   8  11
BRANCH   5  28
ATOM     28  C   UNL     1       2.015   3.459  21.147  0.00  0.00    +0.000 C 
ATOM     29  F   UNL     1       2.564   2.223  21.008  0.00  0.00    +0.000 F 
ATOM     30  F   UNL     1       2.344   3.875  22.401  0.00  0.00    +0.000 F 
ATOM     31  F   UNL     1       0.668   3.272  21.156  0.00  0.00    +0.000 F 
ENDBRANCH   5  28
BRANCH   1  32
ATOM     32  C   UNL     1       4.790   4.505  17.022  0.00  0.00    +0.000 C 
BRANCH  32  36
ATOM     33  C   UNL     1       6.306   3.716  12.930  0.00  0.00    +0.000 C 
ATOM     34  C   UNL     1       6.322   4.089  14.404  0.00  0.00    +0.000 C 
ATOM     35  C   UNL     1       5.293   5.200  14.706  0.00  0.00    +0.000 C 
ATOM     36  N   UNL     1       5.263   5.580  16.137  0.00  0.00    +0.000 NA
ATOM     37  C   UNL     1       6.649   5.962  16.510  0.00  0.00    +0.000 C 
ATOM     38  C   UNL     1       7.707   4.900  16.145  0.00  0.00    +0.000 C 
ATOM     39  O   UNL     1       7.642   4.529  14.759  0.00  0.00    +0.000 OA
ENDBRANCH  32  36
ENDBRANCH   1  32
TORSDOF 7
ENDMDL
MODEL 7
REMARK VINA RESULT:      -9.0      3.592      9.421
REMARK  Name = 
REMARK  9 active torsions:
REMARK  status: ('A' for Active; 'I' for Inactive)
REMARK    1  A    between atoms: C_1  and  C_2
REMARK    2  A    between atoms: N_4  and  C_5
REMARK    3  A    between atoms: C_5  and  C_6
REMARK    4  A    between atoms: C_10  and  C_11
REMARK    5  A    between atoms: N_17  and  C_18
REMARK    6  A    between atoms: C_22  and  C_23
REMARK    7  A    between atoms: C_23  and  C_24
REMARK    8  A    between atoms: C_24  and  C_25
REMARK    9  A    between atoms: N_29  and  C_30
REMARK                            x       y       z     vdW  Elec       q    Type
REMARK                         _______ _______ _______ _____ _____    ______ ____
ROOT
ATOM      1  C   UNL     1      -0.743  10.869  18.718  0.00  0.00    +0.000 A 
ATOM      2  C   UNL     1       0.276  10.171  18.070  0.00  0.00    +0.000 A 
ATOM      3  C   UNL     1       0.982   9.256  18.811  0.00  0.00    +0.000 A 
ATOM      4  C   UNL     1       0.759   9.021  20.165  0.00  0.00    +0.000 A 
ATOM      5  C   UNL     1      -0.176   9.773  20.864  0.00  0.00    +0.000 A 
ATOM      6  C   UNL     1      -0.946  10.680  20.109  0.00  0.00    +0.000 A 
ATOM      7  C   UNL     1       1.597   7.869  20.613  0.00  0.00    +0.000 C 
ATOM      8  N   UNL     1       2.303   7.476  19.400  0.00  0.00    +0.000 N 
ATOM      9  C   UNL     1       1.979   8.300  18.324  0.00  0.00    +0.000 C 
ATOM     10  O   UNL     1       2.343   8.285  17.162  0.00  0.00    +0.000 OA
ENDROOT
BRANCH   8  11
ATOM     11  C   UNL     1       3.164   6.355  19.353  0.00  0.00    +0.000 A 
ATOM     12  C   UNL     1       2.770   5.109  19.845  0.00  0.00    +0.000 A 
ATOM     13  C   UNL     1       3.629   4.016  19.782  0.00  0.00    +0.000 A 
ATOM     14  C   UNL     1       4.914   4.170  19.268  0.00  0.00    +0.000 A 
ATOM     15  C   UNL     1       5.380   5.415  18.809  0.00  0.00    +0.000 A 
ATOM     16  C   UNL     1       4.456   6.479  18.825  0.00  0.00    +0.000 A 
BRANCH  15  17
ATOM     17  C   UNL     1       6.889   5.636  18.336  0.00  0.00    +0.000 C 
ATOM     18  C   UNL     1       7.317   7.041  17.812  0.00  0.00    +0.000 C 
ATOM     19  O   UNL     1       8.513   7.007  18.643  0.00  0.00    +0.000 OA
ATOM     20  C   UNL     1       7.887   5.998  19.474  0.00  0.00    +0.000 C 
BRANCH  17  21
ATOM     21  C   UNL     1       7.383   4.477  17.452  0.00  0.00    +0.000 C 
BRANCH  21  22
ATOM     22  C   UNL     1       6.984   4.617  16.019  0.00  0.00    +0.000 A 
ATOM     23  N   UNL     1       7.664   5.253  15.082  0.00  0.00    +0.000 NA
ATOM     24  N   UNL     1       6.985   5.131  13.895  0.00  0.00    +0.000 NA
ATOM     25  C   UNL     1       5.905   4.425  14.125  0.00  0.00    +0.000 A 
ATOM     26  N   UNL     1       5.852   4.095  15.445  0.00  0.00    +0.000 N 
ATOM     27  C   UNL     1       4.804   3.339  16.074  0.00  0.00    +0.000 C 
ENDBRANCH  21  22
ENDBRANCH  17  21
ENDBRANCH  15  17
ENDBRANCH   8  11
BRANCH   5  28
ATOM     28  C   UNL     1      -0.399   9.638  22.348  0.00  0.00    +0.000 C 
ATOM     29  F   UNL     1      -0.948   8.449  22.714  0.00  0.00    +0.000 F 
ATOM     30  F   UNL     1       0.761   9.746  23.052  0.00  0.00    +0.000 F 
ATOM     31  F   UNL     1      -1.226  10.600  22.839  0.00  0.00    +0.000 F 
ENDBRANCH   5  28
BRANCH   1  32
ATOM     32  C   UNL     1      -1.669  11.745  17.902  0.00  0.00    +0.000 C 
BRANCH  32  36
ATOM     33  C   UNL     1      -5.956  12.508  17.061  0.00  0.00    +0.000 C 
ATOM     34  C   UNL     1      -4.707  11.773  17.521  0.00  0.00    +0.000 C 
ATOM     35  C   UNL     1      -3.637  11.748  16.409  0.00  0.00    +0.000 C 
ATOM     36  N   UNL     1      -2.395  11.057  16.824  0.00  0.00    +0.000 NA
ATOM     37  C   UNL     1      -2.788   9.697  17.274  0.00  0.00    +0.000 C 
ATOM     38  C   UNL     1      -3.915   9.692  18.329  0.00  0.00    +0.000 C 
ATOM     39  O   UNL     1      -5.065  10.432  17.891  0.00  0.00    +0.000 OA
ENDBRANCH  32  36
ENDBRANCH   1  32
TORSDOF 7
ENDMDL
MODEL 8
REMARK VINA RESULT:      -9.0      2.118      3.295
REMARK  Name = 
REMARK  9 active torsions:
REMARK  status: ('A' for Active; 'I' for Inactive)
REMARK    1  A    between atoms: C_1  and  C_2
REMARK    2  A    between atoms: N_4  and  C_5
REMARK    3  A    between atoms: C_5  and  C_6
REMARK    4  A    between atoms: C_10  and  C_11
REMARK    5  A    between atoms: N_17  and  C_18
REMARK    6  A    between atoms: C_22  and  C_23
REMARK    7  A    between atoms: C_23  and  C_24
REMARK    8  A    between atoms: C_24  and  C_25
REMARK    9  A    between atoms: N_29  and  C_30
REMARK                            x       y       z     vdW  Elec       q    Type
REMARK                         _______ _______ _______ _____ _____    ______ ____
ROOT
ATOM      1  C   UNL     1       3.705   4.913  17.997  0.00  0.00    +0.000 A 
ATOM      2  C   UNL     1       3.195   6.211  17.968  0.00  0.00    +0.000 A 
ATOM      3  C   UNL     1       2.389   6.593  19.012  0.00  0.00    +0.000 A 
ATOM      4  C   UNL     1       2.032   5.751  20.061  0.00  0.00    +0.000 A 
ATOM      5  C   UNL     1       2.437   4.424  20.065  0.00  0.00    +0.000 A 
ATOM      6  C   UNL     1       3.306   4.027  19.030  0.00  0.00    +0.000 A 
ATOM      7  C   UNL     1       1.273   6.530  21.085  0.00  0.00    +0.000 C 
ATOM      8  N   UNL     1       1.240   7.875  20.527  0.00  0.00    +0.000 N 
ATOM      9  C   UNL     1       1.868   7.935  19.285  0.00  0.00    +0.000 C 
ATOM     10  O   UNL     1       2.056   8.866  18.522  0.00  0.00    +0.000 OA
ENDROOT
BRANCH   8  11
ATOM     11  C   UNL     1       0.673   8.970  21.220  0.00  0.00    +0.000 A 
ATOM     12  C   UNL     1      -0.040   8.795  22.407  0.00  0.00    +0.000 A 
ATOM     13  C   UNL     1      -0.583   9.886  23.079  0.00  0.00    +0.000 A 
ATOM     14  C   UNL     1      -0.459  11.165  22.541  0.00  0.00    +0.000 A 
ATOM     15  C   UNL     1       0.202  11.391  21.321  0.00  0.00    +0.000 A 
ATOM     16  C   UNL     1       0.797  10.270  20.710  0.00  0.00    +0.000 A 
BRANCH  15  17
ATOM     17  C   UNL     1       0.241  12.830  20.629  0.00  0.00    +0.000 C 
ATOM     18  C   UNL     1      -0.121  14.086  21.480  0.00  0.00    +0.000 C 
ATOM     19  O   UNL     1       1.052  14.788  20.977  0.00  0.00    +0.000 OA
ATOM     20  C   UNL     1       1.640  13.514  20.616  0.00  0.00    +0.000 C 
BRANCH  17  21
ATOM     21  C   UNL     1      -0.431  12.814  19.246  0.00  0.00    +0.000 C 
BRANCH  21  22
ATOM     22  C   UNL     1      -1.897  12.524  19.305  0.00  0.00    +0.000 A 
ATOM     23  N   UNL     1      -2.746  13.000  20.197  0.00  0.00    +0.000 NA
ATOM     24  N   UNL     1      -4.000  12.528  19.897  0.00  0.00    +0.000 NA
ATOM     25  C   UNL     1      -3.896  11.775  18.830  0.00  0.00    +0.000 A 
ATOM     26  N   UNL     1      -2.594  11.728  18.433  0.00  0.00    +0.000 N 
ATOM     27  C   UNL     1      -2.092  10.985  17.309  0.00  0.00    +0.000 C 
ENDBRANCH  21  22
ENDBRANCH  17  21
ENDBRANCH  15  17
ENDBRANCH   8  11
BRANCH   5  28
ATOM     28  C   UNL     1       2.006   3.434  21.117  0.00  0.00    +0.000 C 
ATOM     29  F   UNL     1       2.343   3.799  22.384  0.00  0.00    +0.000 F 
ATOM     30  F   UNL     1       0.657   3.252  21.127  0.00  0.00    +0.000 F 
ATOM     31  F   UNL     1       2.550   2.202  20.925  0.00  0.00    +0.000 F 
ENDBRANCH   5  28
BRANCH   1  32
ATOM     32  C   UNL     1       4.745   4.508  16.975  0.00  0.00    +0.000 C 
BRANCH  32  36
ATOM     33  C   UNL     1       6.310   3.739  12.898  0.00  0.00    +0.000 C 
ATOM     34  C   UNL     1       6.307   4.112  14.372  0.00  0.00    +0.000 C 
ATOM     35  C   UNL     1       5.261   5.209  14.664  0.00  0.00    +0.000 C 
ATOM     36  N   UNL     1       5.212   5.589  16.094  0.00  0.00    +0.000 NA
ATOM     37  C   UNL     1       6.589   5.989  16.481  0.00  0.00    +0.000 C 
ATOM     38  C   UNL     1       7.665   4.941  16.126  0.00  0.00    +0.000 C 
ATOM     39  O   UNL     1       7.618   4.570  14.739  0.00  0.00    +0.000 OA
ENDBRANCH  32  36
ENDBRANCH   1  32
TORSDOF 7
ENDMDL
MODEL 9
REMARK VINA RESULT:      -9.0      1.057      1.600
REMARK  Name = 
REMARK  9 active torsions:
REMARK  status: ('A' for Active; 'I' for Inactive)
REMARK    1  A    between atoms: C_1  and  C_2
REMARK    2  A    between atoms: N_4  and  C_5
REMARK    3  A    between atoms: C_5  and  C_6
REMARK    4  A    between atoms: C_10  and  C_11
REMARK    5  A    between atoms: N_17  and  C_18
REMARK    6  A    between atoms: C_22  and  C_23
REMARK    7  A    between atoms: C_23  and  C_24
REMARK    8  A    between atoms: C_24  and  C_25
REMARK    9  A    between atoms: N_29  and  C_30
REMARK                            x       y       z     vdW  Elec       q    Type
REMARK                         _______ _______ _______ _____ _____    ______ ____
ROOT
ATOM      1  C   UNL     1       3.644   4.915  17.752  0.00  0.00    +0.000 A 
ATOM      2  C   UNL     1       3.120   6.208  17.748  0.00  0.00    +0.000 A 
ATOM      3  C   UNL     1       2.345   6.576  18.820  0.00  0.00    +0.000 A 
ATOM      4  C   UNL     1       2.031   5.724  19.875  0.00  0.00    +0.000 A 
ATOM      5  C   UNL     1       2.449   4.400  19.858  0.00  0.00    +0.000 A 
ATOM      6  C   UNL     1       3.288   4.018  18.792  0.00  0.00    +0.000 A 
ATOM      7  C   UNL     1       1.299   6.489  20.928  0.00  0.00    +0.000 C 
ATOM      8  N   UNL     1       1.234   7.837  20.380  0.00  0.00    +0.000 N 
ATOM      9  C   UNL     1       1.820   7.910  19.118  0.00  0.00    +0.000 C 
ATOM     10  O   UNL     1       1.973   8.848  18.356  0.00  0.00    +0.000 OA
ENDROOT
BRANCH   8  11
ATOM     11  C   UNL     1       0.679   8.922  21.098  0.00  0.00    +0.000 A 
ATOM     12  C   UNL     1       0.570   8.900  22.489  0.00  0.00    +0.000 A 
ATOM     13  C   UNL     1       0.029   9.981  23.178  0.00  0.00    +0.000 A 
ATOM     14  C   UNL     1      -0.455  11.081  22.475  0.00  0.00    +0.000 A 
ATOM     15  C   UNL     1      -0.420  11.133  21.070  0.00  0.00    +0.000 A 
ATOM     16  C   UNL     1       0.200  10.049  20.416  0.00  0.00    +0.000 A 
BRANCH  15  17
ATOM     17  C   UNL     1      -1.085  12.327  20.246  0.00  0.00    +0.000 C 
ATOM     18  C   UNL     1      -0.970  12.327  18.691  0.00  0.00    +0.000 C 
ATOM     19  O   UNL     1      -2.390  12.625  18.567  0.00  0.00    +0.000 OA
ATOM     20  C   UNL     1      -2.594  12.136  19.915  0.00  0.00    +0.000 C 
BRANCH  17  21
ATOM     21  C   UNL     1      -0.779  13.695  20.882  0.00  0.00    +0.000 C 
BRANCH  21  22
ATOM     22  C   UNL     1       0.130  14.541  20.051  0.00  0.00    +0.000 A 
ATOM     23  N   UNL     1      -0.240  15.524  19.251  0.00  0.00    +0.000 NA
ATOM     24  N   UNL     1       0.886  16.074  18.690  0.00  0.00    +0.000 NA
ATOM     25  C   UNL     1       1.922  15.420  19.156  0.00  0.00    +0.000 A 
ATOM     26  N   UNL     1       1.497  14.439  19.998  0.00  0.00    +0.000 N 
ATOM     27  C   UNL     1       2.347  13.505  20.686  0.00  0.00    +0.000 C 
ENDBRANCH  21  22
ENDBRANCH  17  21
ENDBRANCH  15  17
ENDBRANCH   8  11
BRANCH   5  28
ATOM     28  C   UNL     1       2.063   3.400  20.917  0.00  0.00    +0.000 C 
ATOM     29  F   UNL     1       2.547   2.149  20.692  0.00  0.00    +0.000 F 
ATOM     30  F   UNL     1       2.515   3.760  22.150  0.00  0.00    +0.000 F 
ATOM     31  F   UNL     1       0.715   3.265  21.037  0.00  0.00    +0.000 F 
ENDBRANCH   5  28
BRANCH   1  32
ATOM     32  C   UNL     1       4.654   4.527  16.694  0.00  0.00    +0.000 C 
BRANCH  32  36
ATOM     33  C   UNL     1       7.504   7.799  17.609  0.00  0.00    +0.000 C 
ATOM     34  C   UNL     1       6.886   6.614  16.884  0.00  0.00    +0.000 C 
ATOM     35  C   UNL     1       6.634   5.440  17.854  0.00  0.00    +0.000 C 
ATOM     36  N   UNL     1       6.014   4.270  17.190  0.00  0.00    +0.000 NA
ATOM     37  C   UNL     1       6.898   3.900  16.055  0.00  0.00    +0.000 C 
ATOM     38  C   UNL     1       7.230   5.078  15.115  0.00  0.00    +0.000 C 
ATOM     39  O   UNL     1       7.768   6.202  15.829  0.00  0.00    +0.000 OA
ENDBRANCH  32  36
ENDBRANCH   1  32
TORSDOF 7
ENDMDL
