MODEL 1
REMARK VINA RESULT:      -9.3      0.000      0.000
REMARK  Name = 
REMARK  8 active torsions:
REMARK  status: ('A' for Active; 'I' for Inactive)
REMARK    1  A    between atoms: C_1  and  N_2
REMARK    2  A    between atoms: C_12  and  C_13
REMARK    3  A    between atoms: N_15  and  C_16
REMARK    4  A    between atoms: C_20  and  C_21
REMARK    5  A    between atoms: C_21  and  C_22
REMARK    6  A    between atoms: C_22  and  C_23
REMARK    7  A    between atoms: N_27  and  C_28
REMARK    8  A    between atoms: C_34  and  C_35
REMARK                            x       y       z     vdW  Elec       q    Type
REMARK                         _______ _______ _______ _____ _____    ______ ____
ROOT
ATOM      1  C   UNL     1       1.520   8.721  19.381  0.00  0.00    +0.000 C 
ATOM      2  O   UNL     1       1.388   8.370  20.550  0.00  0.00    +0.000 OA
ATOM      3  N   UNL     1       2.218   8.047  18.398  0.00  0.00    +0.000 N 
ATOM      4  H   UNL     1       2.322   8.545  17.516  0.00  0.00    +0.000 HD
ENDROOT
BRANCH   1  16
ATOM      5  C   UNL     1       4.430  16.596  19.265  0.00  0.00    +0.000 C 
ATOM      6  N   UNL     1       3.474  15.513  19.122  0.00  0.00    +0.000 NA
ATOM      7  C   UNL     1       3.567  14.519  20.207  0.00  0.00    +0.000 C 
ATOM      8  C   UNL     1       2.326  13.579  20.333  0.00  0.00    +0.000 C 
ATOM      9  C   UNL     1       1.218  14.202  21.217  0.00  0.00    +0.000 C 
ATOM     10  C   UNL     1       0.260  14.892  20.242  0.00  0.00    +0.000 C 
ATOM     11  C   UNL     1       0.997  14.810  18.897  0.00  0.00    +0.000 C 
ATOM     12  C   UNL     1       2.092  15.959  18.866  0.00  0.00    +0.000 C 
ATOM     13  N   UNL     1       1.678  13.497  18.996  0.00  0.00    +0.000 N 
ATOM     14  C   UNL     1       0.960  12.315  18.769  0.00  0.00    +0.000 A 
ATOM     15  C   UNL     1       1.627  11.127  18.943  0.00  0.00    +0.000 A 
ATOM     16  C   UNL     1       0.872   9.985  18.929  0.00  0.00    +0.000 A 
ATOM     17  N   UNL     1      -0.438   9.945  18.623  0.00  0.00    +0.000 NA
ATOM     18  C   UNL     1      -0.997  11.133  18.319  0.00  0.00    +0.000 A 
ATOM     19  N   UNL     1      -0.341  12.318  18.418  0.00  0.00    +0.000 NA
BRANCH  18  20
ATOM     20  C   UNL     1      -2.410  11.100  17.784  0.00  0.00    +0.000 C 
ATOM     21  C   UNL     1      -2.657  10.793  16.321  0.00  0.00    +0.000 C 
ATOM     22  C   UNL     1      -3.089   9.816  17.373  0.00  0.00    +0.000 C 
ENDBRANCH  18  20
ENDBRANCH   1  16
BRANCH   3  23
ATOM     23  C   UNL     1       2.859   6.805  18.547  0.00  0.00    +0.000 A 
ATOM     24  C   UNL     1       2.701   5.991  19.667  0.00  0.00    +0.000 A 
ATOM     25  C   UNL     1       3.381   4.776  19.759  0.00  0.00    +0.000 A 
ATOM     26  C   UNL     1       4.246   4.389  18.737  0.00  0.00    +0.000 A 
ATOM     27  C   UNL     1       4.454   5.189  17.595  0.00  0.00    +0.000 A 
ATOM     28  C   UNL     1       3.703   6.383  17.515  0.00  0.00    +0.000 A 
BRANCH  27  29
ATOM     29  C   UNL     1       5.513   4.788  16.466  0.00  0.00    +0.000 C 
ATOM     30  C   UNL     1       5.189   3.582  15.537  0.00  0.00    +0.000 C 
ATOM     31  O   UNL     1       5.580   4.353  14.364  0.00  0.00    +0.000 OA
ATOM     32  C   UNL     1       5.393   5.571  15.125  0.00  0.00    +0.000 C 
BRANCH  29  33
ATOM     33  C   UNL     1       6.951   4.777  17.018  0.00  0.00    +0.000 C 
BRANCH  33  34
ATOM     34  C   UNL     1       7.414   6.133  17.442  0.00  0.00    +0.000 A 
ATOM     35  N   UNL     1       7.446   7.209  16.680  0.00  0.00    +0.000 NA
ATOM     36  N   UNL     1       7.940   8.254  17.421  0.00  0.00    +0.000 NA
ATOM     37  C   UNL     1       8.194   7.799  18.625  0.00  0.00    +0.000 A 
ATOM     38  N   UNL     1       7.888   6.473  18.684  0.00  0.00    +0.000 N 
ATOM     39  C   UNL     1       8.046   5.637  19.842  0.00  0.00    +0.000 C 
ENDBRANCH  33  34
ENDBRANCH  29  33
ENDBRANCH  27  29
ENDBRANCH   3  23
TORSDOF 6
ENDMDL
MODEL 2
REMARK VINA RESULT:      -9.2      1.472      2.376
REMARK  Name = 
REMARK  8 active torsions:
REMARK  status: ('A' for Active; 'I' for Inactive)
REMARK    1  A    between atoms: C_1  and  N_2
REMARK    2  A    between atoms: C_12  and  C_13
REMARK    3  A    between atoms: N_15  and  C_16
REMARK    4  A    between atoms: C_20  and  C_21
REMARK    5  A    between atoms: C_21  and  C_22
REMARK    6  A    between atoms: C_22  and  C_23
REMARK    7  A    between atoms: N_27  and  C_28
REMARK    8  A    between atoms: C_34  and  C_35
REMARK                            x       y       z     vdW  Elec       q    Type
REMARK                         _______ _______ _______ _____ _____    ______ ____
ROOT
ATOM      1  C   UNL     1       1.563   8.754  19.533  0.00  0.00    +0.000 C 
ATOM      2  O   UNL     1       1.474   8.451  20.719  0.00  0.00    +0.000 OA
ATOM      3  N   UNL     1       2.253   8.058  18.560  0.00  0.00    +0.000 N 
ATOM      4  H   UNL     1       2.318   8.518  17.655  0.00  0.00    +0.000 HD
ENDROOT
BRANCH   1  16
ATOM      5  C   UNL     1       4.277  16.672  18.880  0.00  0.00    +0.000 C 
ATOM      6  N   UNL     1       3.342  15.563  18.836  0.00  0.00    +0.000 NA
ATOM      7  C   UNL     1       3.506  14.630  19.966  0.00  0.00    +0.000 C 
ATOM      8  C   UNL     1       2.294  13.672  20.196  0.00  0.00    +0.000 C 
ATOM      9  C   UNL     1       1.211  14.316  21.095  0.00  0.00    +0.000 C 
ATOM     10  C   UNL     1       0.196  14.933  20.129  0.00  0.00    +0.000 C 
ATOM     11  C   UNL     1       0.875  14.797  18.759  0.00  0.00    +0.000 C 
ATOM     12  C   UNL     1       1.940  15.966  18.620  0.00  0.00    +0.000 C 
ATOM     13  N   UNL     1       1.591  13.505  18.895  0.00  0.00    +0.000 N 
ATOM     14  C   UNL     1       0.892  12.298  18.762  0.00  0.00    +0.000 A 
ATOM     15  C   UNL     1       1.593  11.135  18.967  0.00  0.00    +0.000 A 
ATOM     16  C   UNL     1       0.866   9.979  19.046  0.00  0.00    +0.000 A 
ATOM     17  N   UNL     1      -0.455   9.894  18.800  0.00  0.00    +0.000 NA
ATOM     18  C   UNL     1      -1.054  11.052  18.461  0.00  0.00    +0.000 A 
ATOM     19  N   UNL     1      -0.423  12.254  18.469  0.00  0.00    +0.000 NA
BRANCH  18  20
ATOM     20  C   UNL     1      -2.488  10.960  17.992  0.00  0.00    +0.000 C 
ATOM     21  C   UNL     1      -2.790  10.689  16.533  0.00  0.00    +0.000 C 
ATOM     22  C   UNL     1      -3.118   9.656  17.568  0.00  0.00    +0.000 C 
ENDBRANCH  18  20
ENDBRANCH   1  16
BRANCH   3  23
ATOM     23  C   UNL     1       2.935   6.841  18.744  0.00  0.00    +0.000 A 
ATOM     24  C   UNL     1       2.331   5.697  19.263  0.00  0.00    +0.000 A 
ATOM     25  C   UNL     1       3.070   4.526  19.437  0.00  0.00    +0.000 A 
ATOM     26  C   UNL     1       4.426   4.511  19.114  0.00  0.00    +0.000 A 
ATOM     27  C   UNL     1       5.084   5.649  18.606  0.00  0.00    +0.000 A 
ATOM     28  C   UNL     1       4.287   6.796  18.393  0.00  0.00    +0.000 A 
BRANCH  27  29
ATOM     29  C   UNL     1       6.657   5.658  18.322  0.00  0.00    +0.000 C 
ATOM     30  C   UNL     1       7.321   6.985  17.851  0.00  0.00    +0.000 C 
ATOM     31  O   UNL     1       8.404   6.808  18.810  0.00  0.00    +0.000 OA
ATOM     32  C   UNL     1       7.563   5.903  19.565  0.00  0.00    +0.000 C 
BRANCH  29  33
ATOM     33  C   UNL     1       7.092   4.424  17.508  0.00  0.00    +0.000 C 
BRANCH  33  34
ATOM     34  C   UNL     1       6.838   4.583  16.044  0.00  0.00    +0.000 A 
ATOM     35  N   UNL     1       7.648   5.164  15.181  0.00  0.00    +0.000 NA
ATOM     36  N   UNL     1       7.063   5.124  13.939  0.00  0.00    +0.000 NA
ATOM     37  C   UNL     1       5.910   4.513  14.065  0.00  0.00    +0.000 A 
ATOM     38  N   UNL     1       5.720   4.163  15.367  0.00  0.00    +0.000 N 
ATOM     39  C   UNL     1       4.563   3.484  15.883  0.00  0.00    +0.000 C 
ENDBRANCH  33  34
ENDBRANCH  29  33
ENDBRANCH  27  29
ENDBRANCH   3  23
TORSDOF 6
ENDMDL
MODEL 3
REMARK VINA RESULT:      -8.9      0.612      1.067
REMARK  Name = 
REMARK  8 active torsions:
REMARK  status: ('A' for Active; 'I' for Inactive)
REMARK    1  A    between atoms: C_1  and  N_2
REMARK    2  A    between atoms: C_12  and  C_13
REMARK    3  A    between atoms: N_15  and  C_16
REMARK    4  A    between atoms: C_20  and  C_21
REMARK    5  A    between atoms: C_21  and  C_22
REMARK    6  A    between atoms: C_22  and  C_23
REMARK    7  A    between atoms: N_27  and  C_28
REMARK    8  A    between atoms: C_34  and  C_35
REMARK                            x       y       z     vdW  Elec       q    Type
REMARK                         _______ _______ _______ _____ _____    ______ ____
ROOT
ATOM      1  C   UNL     1       1.631   8.715  19.118  0.00  0.00    +0.000 C 
ATOM      2  O   UNL     1       1.633   8.360  20.293  0.00  0.00    +0.000 OA
ATOM      3  N   UNL     1       2.196   8.035  18.057  0.00  0.00    +0.000 N 
ATOM      4  H   UNL     1       2.203   8.535  17.171  0.00  0.00    +0.000 HD
ENDROOT
BRANCH   1  16
ATOM      5  C   UNL     1       4.482  16.611  19.179  0.00  0.00    +0.000 C 
ATOM      6  N   UNL     1       3.527  15.527  19.039  0.00  0.00    +0.000 NA
ATOM      7  C   UNL     1       3.680  14.492  20.077  0.00  0.00    +0.000 C 
ATOM      8  C   UNL     1       2.452  13.537  20.226  0.00  0.00    +0.000 C 
ATOM      9  C   UNL     1       1.385  14.114  21.187  0.00  0.00    +0.000 C 
ATOM     10  C   UNL     1       0.376  14.835  20.289  0.00  0.00    +0.000 C 
ATOM     11  C   UNL     1       1.046  14.814  18.908  0.00  0.00    +0.000 C 
ATOM     12  C   UNL     1       2.131  15.972  18.869  0.00  0.00    +0.000 C 
ATOM     13  N   UNL     1       1.740  13.503  18.919  0.00  0.00    +0.000 N 
ATOM     14  C   UNL     1       1.019  12.325  18.680  0.00  0.00    +0.000 A 
ATOM     15  C   UNL     1       1.701  11.137  18.774  0.00  0.00    +0.000 A 
ATOM     16  C   UNL     1       0.953   9.991  18.750  0.00  0.00    +0.000 A 
ATOM     17  N   UNL     1      -0.370   9.951  18.506  0.00  0.00    +0.000 NA
ATOM     18  C   UNL     1      -0.951  11.147  18.279  0.00  0.00    +0.000 A 
ATOM     19  N   UNL     1      -0.298  12.332  18.394  0.00  0.00    +0.000 NA
BRANCH  18  20
ATOM     20  C   UNL     1      -2.388  11.123  17.813  0.00  0.00    +0.000 C 
ATOM     21  C   UNL     1      -2.702  10.964  16.340  0.00  0.00    +0.000 C 
ATOM     22  C   UNL     1      -3.051   9.868  17.301  0.00  0.00    +0.000 C 
ENDBRANCH  18  20
ENDBRANCH   1  16
BRANCH   3  23
ATOM     23  C   UNL     1       2.831   6.782  18.125  0.00  0.00    +0.000 A 
ATOM     24  C   UNL     1       2.603   5.863  19.147  0.00  0.00    +0.000 A 
ATOM     25  C   UNL     1       3.281   4.644  19.164  0.00  0.00    +0.000 A 
ATOM     26  C   UNL     1       4.212   4.356  18.167  0.00  0.00    +0.000 A 
ATOM     27  C   UNL     1       4.491   5.264  17.126  0.00  0.00    +0.000 A 
ATOM     28  C   UNL     1       3.743   6.462  17.114  0.00  0.00    +0.000 A 
BRANCH  27  29
ATOM     29  C   UNL     1       5.623   4.973  16.035  0.00  0.00    +0.000 C 
ATOM     30  C   UNL     1       6.019   3.495  15.749  0.00  0.00    +0.000 C 
ATOM     31  O   UNL     1       5.959   3.734  14.313  0.00  0.00    +0.000 OA
ATOM     32  C   UNL     1       5.130   4.895  14.559  0.00  0.00    +0.000 C 
BRANCH  29  33
ATOM     33  C   UNL     1       6.830   5.916  16.206  0.00  0.00    +0.000 C 
BRANCH  33  34
ATOM     34  C   UNL     1       7.405   5.868  17.584  0.00  0.00    +0.000 A 
ATOM     35  N   UNL     1       7.540   4.785  18.324  0.00  0.00    +0.000 NA
ATOM     36  N   UNL     1       8.096   5.146  19.527  0.00  0.00    +0.000 NA
ATOM     37  C   UNL     1       8.297   6.441  19.496  0.00  0.00    +0.000 A 
ATOM     38  N   UNL     1       7.872   6.940  18.302  0.00  0.00    +0.000 N 
ATOM     39  C   UNL     1       7.924   8.323  17.915  0.00  0.00    +0.000 C 
ENDBRANCH  33  34
ENDBRANCH  29  33
ENDBRANCH  27  29
ENDBRANCH   3  23
TORSDOF 6
ENDMDL
MODEL 4
REMARK VINA RESULT:      -8.9      2.343      3.409
REMARK  Name = 
REMARK  8 active torsions:
REMARK  status: ('A' for Active; 'I' for Inactive)
REMARK    1  A    between atoms: C_1  and  N_2
REMARK    2  A    between atoms: C_12  and  C_13
REMARK    3  A    between atoms: N_15  and  C_16
REMARK    4  A    between atoms: C_20  and  C_21
REMARK    5  A    between atoms: C_21  and  C_22
REMARK    6  A    between atoms: C_22  and  C_23
REMARK    7  A    between atoms: N_27  and  C_28
REMARK    8  A    between atoms: C_34  and  C_35
REMARK                            x       y       z     vdW  Elec       q    Type
REMARK                         _______ _______ _______ _____ _____    ______ ____
ROOT
ATOM      1  C   UNL     1       1.883   8.837  18.418  0.00  0.00    +0.000 C 
ATOM      2  O   UNL     1       2.048   9.130  17.238  0.00  0.00    +0.000 OA
ATOM      3  N   UNL     1       2.081   7.594  18.988  0.00  0.00    +0.000 N 
ATOM      4  H   UNL     1       1.781   7.504  19.957  0.00  0.00    +0.000 HD
ENDROOT
BRANCH   1  16
ATOM      5  C   UNL     1       1.952  17.201  17.691  0.00  0.00    +0.000 C 
ATOM      6  N   UNL     1       1.771  15.907  18.325  0.00  0.00    +0.000 NA
ATOM      7  C   UNL     1       2.843  14.951  17.990  0.00  0.00    +0.000 C 
ATOM      8  C   UNL     1       2.927  13.714  18.941  0.00  0.00    +0.000 C 
ATOM      9  C   UNL     1       3.796  14.004  20.188  0.00  0.00    +0.000 C 
ATOM     10  C   UNL     1       2.812  14.437  21.278  0.00  0.00    +0.000 C 
ATOM     11  C   UNL     1       1.483  14.580  20.524  0.00  0.00    +0.000 C 
ATOM     12  C   UNL     1       1.493  15.978  19.771  0.00  0.00    +0.000 C 
ATOM     13  N   UNL     1       1.575  13.492  19.521  0.00  0.00    +0.000 N 
ATOM     14  C   UNL     1       1.315  12.167  19.897  0.00  0.00    +0.000 A 
ATOM     15  C   UNL     1       1.485  11.194  18.944  0.00  0.00    +0.000 A 
ATOM     16  C   UNL     1       1.437   9.894  19.370  0.00  0.00    +0.000 A 
ATOM     17  N   UNL     1       1.101   9.515  20.617  0.00  0.00    +0.000 NA
ATOM     18  C   UNL     1       0.804  10.520  21.465  0.00  0.00    +0.000 A 
ATOM     19  N   UNL     1       0.935  11.834  21.147  0.00  0.00    +0.000 NA
BRANCH  18  20
ATOM     20  C   UNL     1       0.238  10.126  22.810  0.00  0.00    +0.000 C 
ATOM     21  C   UNL     1      -1.196  10.470  23.157  0.00  0.00    +0.000 C 
ATOM     22  C   UNL     1      -0.796   9.038  22.965  0.00  0.00    +0.000 C 
ENDBRANCH  18  20
ENDBRANCH   1  16
BRANCH   3  23
ATOM     23  C   UNL     1       2.562   6.451  18.327  0.00  0.00    +0.000 A 
ATOM     24  C   UNL     1       1.772   5.337  18.050  0.00  0.00    +0.000 A 
ATOM     25  C   UNL     1       2.318   4.226  17.405  0.00  0.00    +0.000 A 
ATOM     26  C   UNL     1       3.669   4.221  17.062  0.00  0.00    +0.000 A 
ATOM     27  C   UNL     1       4.512   5.316  17.341  0.00  0.00    +0.000 A 
ATOM     28  C   UNL     1       3.907   6.442  17.943  0.00  0.00    +0.000 A 
BRANCH  27  29
ATOM     29  C   UNL     1       6.080   5.274  17.029  0.00  0.00    +0.000 C 
ATOM     30  C   UNL     1       6.815   6.613  16.731  0.00  0.00    +0.000 C 
ATOM     31  O   UNL     1       7.897   6.246  17.635  0.00  0.00    +0.000 OA
ATOM     32  C   UNL     1       7.013   5.295  18.276  0.00  0.00    +0.000 C 
BRANCH  29  33
ATOM     33  C   UNL     1       6.431   4.142  16.046  0.00  0.00    +0.000 C 
BRANCH  33  34
ATOM     34  C   UNL     1       7.005   4.651  14.764  0.00  0.00    +0.000 A 
ATOM     35  N   UNL     1       8.015   5.492  14.654  0.00  0.00    +0.000 NA
ATOM     36  N   UNL     1       8.241   5.728  13.320  0.00  0.00    +0.000 NA
ATOM     37  C   UNL     1       7.370   5.021  12.641  0.00  0.00    +0.000 A 
ATOM     38  N   UNL     1       6.569   4.336  13.502  0.00  0.00    +0.000 N 
ATOM     39  C   UNL     1       5.492   3.465  13.118  0.00  0.00    +0.000 C 
ENDBRANCH  33  34
ENDBRANCH  29  33
ENDBRANCH  27  29
ENDBRANCH   3  23
TORSDOF 6
ENDMDL
MODEL 5
REMARK VINA RESULT:      -8.8      2.473      3.499
REMARK  Name = 
REMARK  8 active torsions:
REMARK  status: ('A' for Active; 'I' for Inactive)
REMARK    1  A    between atoms: C_1  and  N_2
REMARK    2  A    between atoms: C_12  and  C_13
REMARK    3  A    between atoms: N_15  and  C_16
REMARK    4  A    between atoms: C_20  and  C_21
REMARK    5  A    between atoms: C_21  and  C_22
REMARK    6  A    between atoms: C_22  and  C_23
REMARK    7  A    between atoms: N_27  and  C_28
REMARK    8  A    between atoms: C_34  and  C_35
REMARK                            x       y       z     vdW  Elec       q    Type
REMARK                         _______ _______ _______ _____ _____    ______ ____
ROOT
ATOM      1  C   UNL     1       1.970   8.673  18.206  0.00  0.00    +0.000 C 
ATOM      2  O   UNL     1       2.532   9.003  17.165  0.00  0.00    +0.000 OA
ATOM      3  N   UNL     1       1.896   7.396  18.727  0.00  0.00    +0.000 N 
ATOM      4  H   UNL     1       1.289   7.288  19.536  0.00  0.00    +0.000 HD
ENDROOT
BRANCH   1  16
ATOM      5  C   UNL     1       2.263  17.046  17.660  0.00  0.00    +0.000 C 
ATOM      6  N   UNL     1       1.919  15.744  18.204  0.00  0.00    +0.000 NA
ATOM      7  C   UNL     1       3.036  14.784  18.142  0.00  0.00    +0.000 C 
ATOM      8  C   UNL     1       2.866  13.533  19.062  0.00  0.00    +0.000 C 
ATOM      9  C   UNL     1       3.384  13.796  20.496  0.00  0.00    +0.000 C 
ATOM     10  C   UNL     1       2.153  14.222  21.301  0.00  0.00    +0.000 C 
ATOM     11  C   UNL     1       1.065  14.388  20.231  0.00  0.00    +0.000 C 
ATOM     12  C   UNL     1       1.276  15.796  19.530  0.00  0.00    +0.000 C 
ATOM     13  N   UNL     1       1.409  13.313  19.269  0.00  0.00    +0.000 N 
ATOM     14  C   UNL     1       1.054  11.986  19.543  0.00  0.00    +0.000 A 
ATOM     15  C   UNL     1       1.461  11.025  18.650  0.00  0.00    +0.000 A 
ATOM     16  C   UNL     1       1.298   9.720  19.027  0.00  0.00    +0.000 A 
ATOM     17  N   UNL     1       0.649   9.325  20.138  0.00  0.00    +0.000 NA
ATOM     18  C   UNL     1       0.147  10.320  20.897  0.00  0.00    +0.000 A 
ATOM     19  N   UNL     1       0.363  11.637  20.646  0.00  0.00    +0.000 NA
BRANCH  18  20
ATOM     20  C   UNL     1      -0.749   9.911  22.043  0.00  0.00    +0.000 C 
ATOM     21  C   UNL     1      -0.153   9.640  23.409  0.00  0.00    +0.000 C 
ATOM     22  C   UNL     1      -1.045  10.827  23.205  0.00  0.00    +0.000 C 
ENDBRANCH  18  20
ENDBRANCH   1  16
BRANCH   3  23
ATOM     23  C   UNL     1       2.501   6.248  18.185  0.00  0.00    +0.000 A 
ATOM     24  C   UNL     1       1.917   4.983  18.225  0.00  0.00    +0.000 A 
ATOM     25  C   UNL     1       2.580   3.881  17.683  0.00  0.00    +0.000 A 
ATOM     26  C   UNL     1       3.847   4.043  17.125  0.00  0.00    +0.000 A 
ATOM     27  C   UNL     1       4.487   5.299  17.082  0.00  0.00    +0.000 A 
ATOM     28  C   UNL     1       3.757   6.397  17.589  0.00  0.00    +0.000 A 
BRANCH  27  29
ATOM     29  C   UNL     1       5.976   5.468  16.525  0.00  0.00    +0.000 C 
ATOM     30  C   UNL     1       7.053   6.095  17.458  0.00  0.00    +0.000 C 
ATOM     31  O   UNL     1       8.000   5.046  17.105  0.00  0.00    +0.000 OA
ATOM     32  C   UNL     1       6.894   4.218  16.671  0.00  0.00    +0.000 C 
BRANCH  29  33
ATOM     33  C   UNL     1       5.983   6.043  15.095  0.00  0.00    +0.000 C 
BRANCH  33  34
ATOM     34  C   UNL     1       6.120   4.983  14.051  0.00  0.00    +0.000 A 
ATOM     35  N   UNL     1       5.264   4.003  13.832  0.00  0.00    +0.000 NA
ATOM     36  N   UNL     1       5.741   3.232  12.801  0.00  0.00    +0.000 NA
ATOM     37  C   UNL     1       6.873   3.759  12.404  0.00  0.00    +0.000 A 
ATOM     38  N   UNL     1       7.157   4.853  13.162  0.00  0.00    +0.000 N 
ATOM     39  C   UNL     1       8.324   5.680  13.021  0.00  0.00    +0.000 C 
ENDBRANCH  33  34
ENDBRANCH  29  33
ENDBRANCH  27  29
ENDBRANCH   3  23
TORSDOF 6
ENDMDL
MODEL 6
REMARK VINA RESULT:      -8.6      1.766      2.641
REMARK  Name = 
REMARK  8 active torsions:
REMARK  status: ('A' for Active; 'I' for Inactive)
REMARK    1  A    between atoms: C_1  and  N_2
REMARK    2  A    between atoms: C_12  and  C_13
REMARK    3  A    between atoms: N_15  and  C_16
REMARK    4  A    between atoms: C_20  and  C_21
REMARK    5  A    between atoms: C_21  and  C_22
REMARK    6  A    between atoms: C_22  and  C_23
REMARK    7  A    between atoms: N_27  and  C_28
REMARK    8  A    between atoms: C_34  and  C_35
REMARK                            x       y       z     vdW  Elec       q    Type
REMARK                         _______ _______ _______ _____ _____    ______ ____
ROOT
ATOM      1  C   UNL     1       1.466   8.884  19.221  0.00  0.00    +0.000 C 
ATOM      2  O   UNL     1       1.437   8.532  20.396  0.00  0.00    +0.000 OA
ATOM      3  N   UNL     1       2.096   8.224  18.184  0.00  0.00    +0.000 N 
ATOM      4  H   UNL     1       2.117   8.721  17.297  0.00  0.00    +0.000 HD
ENDROOT
BRANCH   1  16
ATOM      5  C   UNL     1       3.942  16.899  19.568  0.00  0.00    +0.000 C 
ATOM      6  N   UNL     1       3.049  15.775  19.351  0.00  0.00    +0.000 NA
ATOM      7  C   UNL     1       3.180  14.732  20.385  0.00  0.00    +0.000 C 
ATOM      8  C   UNL     1       1.990  13.721  20.439  0.00  0.00    +0.000 C 
ATOM      9  C   UNL     1       0.835  14.235  21.333  0.00  0.00    +0.000 C 
ATOM     10  C   UNL     1      -0.143  14.924  20.378  0.00  0.00    +0.000 C 
ATOM     11  C   UNL     1       0.618  14.953  19.045  0.00  0.00    +0.000 C 
ATOM     12  C   UNL     1       1.649  16.159  19.093  0.00  0.00    +0.000 C 
ATOM     13  N   UNL     1       1.369  13.675  19.087  0.00  0.00    +0.000 N 
ATOM     14  C   UNL     1       0.720  12.470  18.786  0.00  0.00    +0.000 A 
ATOM     15  C   UNL     1       1.447  11.312  18.911  0.00  0.00    +0.000 A 
ATOM     16  C   UNL     1       0.757  10.134  18.823  0.00  0.00    +0.000 A 
ATOM     17  N   UNL     1      -0.544  10.039  18.491  0.00  0.00    +0.000 NA
ATOM     18  C   UNL     1      -1.163  11.210  18.239  0.00  0.00    +0.000 A 
ATOM     19  N   UNL     1      -0.574  12.421  18.412  0.00  0.00    +0.000 NA
BRANCH  18  20
ATOM     20  C   UNL     1      -2.563  11.128  17.677  0.00  0.00    +0.000 C 
ATOM     21  C   UNL     1      -2.773  11.055  16.179  0.00  0.00    +0.000 C 
ATOM     22  C   UNL     1      -3.107   9.874  17.038  0.00  0.00    +0.000 C 
ENDBRANCH  18  20
ENDBRANCH   1  16
BRANCH   3  23
ATOM     23  C   UNL     1       2.773   6.995  18.280  0.00  0.00    +0.000 A 
ATOM     24  C   UNL     1       2.430   6.002  19.195  0.00  0.00    +0.000 A 
ATOM     25  C   UNL     1       3.156   4.811  19.250  0.00  0.00    +0.000 A 
ATOM     26  C   UNL     1       4.247   4.627  18.402  0.00  0.00    +0.000 A 
ATOM     27  C   UNL     1       4.644   5.612  17.476  0.00  0.00    +0.000 A 
ATOM     28  C   UNL     1       3.849   6.778  17.414  0.00  0.00    +0.000 A 
BRANCH  27  29
ATOM     29  C   UNL     1       5.949   5.440  16.568  0.00  0.00    +0.000 C 
ATOM     30  C   UNL     1       7.332   5.820  17.174  0.00  0.00    +0.000 C 
ATOM     31  O   UNL     1       7.916   4.582  16.673  0.00  0.00    +0.000 OA
ATOM     32  C   UNL     1       6.585   4.018  16.571  0.00  0.00    +0.000 C 
BRANCH  29  33
ATOM     33  C   UNL     1       5.725   5.984  15.145  0.00  0.00    +0.000 C 
BRANCH  33  34
ATOM     34  C   UNL     1       5.913   4.939  14.094  0.00  0.00    +0.000 A 
ATOM     35  N   UNL     1       5.058   3.978  13.802  0.00  0.00    +0.000 NA
ATOM     36  N   UNL     1       5.589   3.214  12.792  0.00  0.00    +0.000 NA
ATOM     37  C   UNL     1       6.754   3.727  12.480  0.00  0.00    +0.000 A 
ATOM     38  N   UNL     1       7.005   4.804  13.274  0.00  0.00    +0.000 N 
ATOM     39  C   UNL     1       8.193   5.612  13.225  0.00  0.00    +0.000 C 
ENDBRANCH  33  34
ENDBRANCH  29  33
ENDBRANCH  27  29
ENDBRANCH   3  23
TORSDOF 6
ENDMDL
MODEL 7
REMARK VINA RESULT:      -8.6      1.868      2.682
REMARK  Name = 
REMARK  8 active torsions:
REMARK  status: ('A' for Active; 'I' for Inactive)
REMARK    1  A    between atoms: C_1  and  N_2
REMARK    2  A    between atoms: C_12  and  C_13
REMARK    3  A    between atoms: N_15  and  C_16
REMARK    4  A    between atoms: C_20  and  C_21
REMARK    5  A    between atoms: C_21  and  C_22
REMARK    6  A    between atoms: C_22  and  C_23
REMARK    7  A    between atoms: N_27  and  C_28
REMARK    8  A    between atoms: C_34  and  C_35
REMARK                            x       y       z     vdW  Elec       q    Type
REMARK                         _______ _______ _______ _____ _____    ______ ____
ROOT
ATOM      1  C   UNL     1       2.251   8.558  18.015  0.00  0.00    +0.000 C 
ATOM      2  O   UNL     1       3.255   8.746  17.334  0.00  0.00    +0.000 OA
ATOM      3  N   UNL     1       1.996   7.457  18.810  0.00  0.00    +0.000 N 
ATOM      4  H   UNL     1       1.061   7.414  19.210  0.00  0.00    +0.000 HD
ENDROOT
BRANCH   1  16
ATOM      5  C   UNL     1       2.346  16.450  20.876  0.00  0.00    +0.000 C 
ATOM      6  N   UNL     1       1.797  15.230  20.312  0.00  0.00    +0.000 NA
ATOM      7  C   UNL     1       2.313  14.014  20.967  0.00  0.00    +0.000 C 
ATOM      8  C   UNL     1       1.473  12.726  20.694  0.00  0.00    +0.000 C 
ATOM      9  C   UNL     1       0.305  12.575  21.698  0.00  0.00    +0.000 C 
ATOM     10  C   UNL     1      -0.912  13.192  21.002  0.00  0.00    +0.000 C 
ATOM     11  C   UNL     1      -0.313  13.849  19.750  0.00  0.00    +0.000 C 
ATOM     12  C   UNL     1       0.329  15.235  20.181  0.00  0.00    +0.000 C 
ATOM     13  N   UNL     1       0.773  12.905  19.393  0.00  0.00    +0.000 N 
ATOM     14  C   UNL     1       0.473  11.710  18.725  0.00  0.00    +0.000 A 
ATOM     15  C   UNL     1       1.510  10.843  18.483  0.00  0.00    +0.000 A 
ATOM     16  C   UNL     1       1.181   9.595  18.026  0.00  0.00    +0.000 A 
ATOM     17  N   UNL     1      -0.063   9.219  17.674  0.00  0.00    +0.000 NA
ATOM     18  C   UNL     1      -1.011  10.169  17.799  0.00  0.00    +0.000 A 
ATOM     19  N   UNL     1      -0.781  11.391  18.347  0.00  0.00    +0.000 NA
BRANCH  18  20
ATOM     20  C   UNL     1      -2.374   9.844  17.233  0.00  0.00    +0.000 C 
ATOM     21  C   UNL     1      -3.304  10.964  16.814  0.00  0.00    +0.000 C 
ATOM     22  C   UNL     1      -2.715  10.054  15.778  0.00  0.00    +0.000 C 
ENDBRANCH  18  20
ENDBRANCH   1  16
BRANCH   3  23
ATOM     23  C   UNL     1       2.869   6.376  19.026  0.00  0.00    +0.000 A 
ATOM     24  C   UNL     1       2.499   5.220  19.710  0.00  0.00    +0.000 A 
ATOM     25  C   UNL     1       3.421   4.190  19.905  0.00  0.00    +0.000 A 
ATOM     26  C   UNL     1       4.726   4.333  19.437  0.00  0.00    +0.000 A 
ATOM     27  C   UNL     1       5.150   5.493  18.759  0.00  0.00    +0.000 A 
ATOM     28  C   UNL     1       4.172   6.486  18.532  0.00  0.00    +0.000 A 
BRANCH  27  29
ATOM     29  C   UNL     1       6.670   5.694  18.302  0.00  0.00    +0.000 C 
ATOM     30  C   UNL     1       7.093   7.072  17.714  0.00  0.00    +0.000 C 
ATOM     31  O   UNL     1       8.285   7.088  18.553  0.00  0.00    +0.000 OA
ATOM     32  C   UNL     1       7.659   6.118  19.428  0.00  0.00    +0.000 C 
BRANCH  29  33
ATOM     33  C   UNL     1       7.180   4.490  17.488  0.00  0.00    +0.000 C 
BRANCH  33  34
ATOM     34  C   UNL     1       6.876   4.611  16.030  0.00  0.00    +0.000 A 
ATOM     35  N   UNL     1       7.658   5.168  15.125  0.00  0.00    +0.000 NA
ATOM     36  N   UNL     1       7.030   5.096  13.906  0.00  0.00    +0.000 NA
ATOM     37  C   UNL     1       5.882   4.490  14.087  0.00  0.00    +0.000 A 
ATOM     38  N   UNL     1       5.737   4.175  15.404  0.00  0.00    +0.000 N 
ATOM     39  C   UNL     1       4.597   3.512  15.977  0.00  0.00    +0.000 C 
ENDBRANCH  33  34
ENDBRANCH  29  33
ENDBRANCH  27  29
ENDBRANCH   3  23
TORSDOF 6
ENDMDL
MODEL 8
REMARK VINA RESULT:      -8.6      1.275      1.458
REMARK  Name = 
REMARK  8 active torsions:
REMARK  status: ('A' for Active; 'I' for Inactive)
REMARK    1  A    between atoms: C_1  and  N_2
REMARK    2  A    between atoms: C_12  and  C_13
REMARK    3  A    between atoms: N_15  and  C_16
REMARK    4  A    between atoms: C_20  and  C_21
REMARK    5  A    between atoms: C_21  and  C_22
REMARK    6  A    between atoms: C_22  and  C_23
REMARK    7  A    between atoms: N_27  and  C_28
REMARK    8  A    between atoms: C_34  and  C_35
REMARK                            x       y       z     vdW  Elec       q    Type
REMARK                         _______ _______ _______ _____ _____    ______ ____
ROOT
ATOM      1  C   UNL     1       2.213   8.719  18.126  0.00  0.00    +0.000 C 
ATOM      2  O   UNL     1       3.367   9.095  17.941  0.00  0.00    +0.000 OA
ATOM      3  N   UNL     1       1.806   7.427  18.395  0.00  0.00    +0.000 N 
ATOM      4  H   UNL     1       0.799   7.278  18.403  0.00  0.00    +0.000 HD
ENDROOT
BRANCH   1  16
ATOM      5  C   UNL     1       1.754  16.471  21.316  0.00  0.00    +0.000 C 
ATOM      6  N   UNL     1       1.305  15.262  20.650  0.00  0.00    +0.000 NA
ATOM      7  C   UNL     1       1.799  14.034  21.299  0.00  0.00    +0.000 C 
ATOM      8  C   UNL     1       1.034  12.734  20.891  0.00  0.00    +0.000 C 
ATOM      9  C   UNL     1      -0.219  12.501  21.770  0.00  0.00    +0.000 C 
ATOM     10  C   UNL     1      -1.384  13.111  20.986  0.00  0.00    +0.000 C 
ATOM     11  C   UNL     1      -0.692  13.843  19.827  0.00  0.00    +0.000 C 
ATOM     12  C   UNL     1      -0.144  15.228  20.377  0.00  0.00    +0.000 C 
ATOM     13  N   UNL     1       0.456  12.950  19.537  0.00  0.00    +0.000 N 
ATOM     14  C   UNL     1       0.264  11.779  18.793  0.00  0.00    +0.000 A 
ATOM     15  C   UNL     1       1.349  10.956  18.617  0.00  0.00    +0.000 A 
ATOM     16  C   UNL     1       1.110   9.721  18.077  0.00  0.00    +0.000 A 
ATOM     17  N   UNL     1      -0.080   9.323  17.589  0.00  0.00    +0.000 NA
ATOM     18  C   UNL     1      -1.068  10.236  17.662  0.00  0.00    +0.000 A 
ATOM     19  N   UNL     1      -0.936  11.438  18.281  0.00  0.00    +0.000 NA
BRANCH  18  20
ATOM     20  C   UNL     1      -2.358   9.896  16.952  0.00  0.00    +0.000 C 
ATOM     21  C   UNL     1      -3.595   9.551  17.756  0.00  0.00    +0.000 C 
ATOM     22  C   UNL     1      -3.552  10.819  16.957  0.00  0.00    +0.000 C 
ENDBRANCH  18  20
ENDBRANCH   1  16
BRANCH   3  23
ATOM     23  C   UNL     1       2.650   6.314  18.560  0.00  0.00    +0.000 A 
ATOM     24  C   UNL     1       2.670   5.535  19.715  0.00  0.00    +0.000 A 
ATOM     25  C   UNL     1       3.546   4.453  19.822  0.00  0.00    +0.000 A 
ATOM     26  C   UNL     1       4.425   4.170  18.777  0.00  0.00    +0.000 A 
ATOM     27  C   UNL     1       4.454   4.944  17.599  0.00  0.00    +0.000 A 
ATOM     28  C   UNL     1       3.513   5.994  17.509  0.00  0.00    +0.000 A 
BRANCH  27  29
ATOM     29  C   UNL     1       5.523   4.675  16.440  0.00  0.00    +0.000 C 
ATOM     30  C   UNL     1       5.232   3.548  15.407  0.00  0.00    +0.000 C 
ATOM     31  O   UNL     1       5.600   4.430  14.308  0.00  0.00    +0.000 OA
ATOM     32  C   UNL     1       5.379   5.571  15.174  0.00  0.00    +0.000 C 
BRANCH  29  33
ATOM     33  C   UNL     1       6.962   4.656  16.991  0.00  0.00    +0.000 C 
BRANCH  33  34
ATOM     34  C   UNL     1       7.434   6.010  17.412  0.00  0.00    +0.000 A 
ATOM     35  N   UNL     1       7.541   7.065  16.628  0.00  0.00    +0.000 NA
ATOM     36  N   UNL     1       8.017   8.115  17.375  0.00  0.00    +0.000 NA
ATOM     37  C   UNL     1       8.185   7.683  18.601  0.00  0.00    +0.000 A 
ATOM     38  N   UNL     1       7.841   6.368  18.672  0.00  0.00    +0.000 N 
ATOM     39  C   UNL     1       7.905   5.556  19.857  0.00  0.00    +0.000 C 
ENDBRANCH  33  34
ENDBRANCH  29  33
ENDBRANCH  27  29
ENDBRANCH   3  23
TORSDOF 6
ENDMDL
MODEL 9
REMARK VINA RESULT:      -8.5      3.226      4.354
REMARK  Name = 
REMARK  8 active torsions:
REMARK  status: ('A' for Active; 'I' for Inactive)
REMARK    1  A    between atoms: C_1  and  N_2
REMARK    2  A    between atoms: C_12  and  C_13
REMARK    3  A    between atoms: N_15  and  C_16
REMARK    4  A    between atoms: C_20  and  C_21
REMARK    5  A    between atoms: C_21  and  C_22
REMARK    6  A    between atoms: C_22  and  C_23
REMARK    7  A    between atoms: N_27  and  C_28
REMARK    8  A    between atoms: C_34  and  C_35
REMARK                            x       y       z     vdW  Elec       q    Type
REMARK                         _______ _______ _______ _____ _____    ______ ____
ROOT
ATOM      1  C   UNL     1       1.084   9.226  18.922  0.00  0.00    +0.000 C 
ATOM      2  O   UNL     1       1.449   8.931  20.056  0.00  0.00    +0.000 OA
ATOM      3  N   UNL     1       1.616   8.748  17.740  0.00  0.00    +0.000 N 
ATOM      4  H   UNL     1       1.268   9.191  16.893  0.00  0.00    +0.000 HD
ENDROOT
BRANCH   1  16
ATOM      5  C   UNL     1      -0.702  16.338  23.010  0.00  0.00    +0.000 C 
ATOM      6  N   UNL     1      -0.888  15.236  22.084  0.00  0.00    +0.000 NA
ATOM      7  C   UNL     1      -0.470  13.939  22.645  0.00  0.00    +0.000 C 
ATOM      8  C   UNL     1      -1.015  12.694  21.876  0.00  0.00    +0.000 C 
ATOM      9  C   UNL     1      -2.419  12.275  22.376  0.00  0.00    +0.000 C 
ATOM     10  C   UNL     1      -3.409  12.959  21.430  0.00  0.00    +0.000 C 
ATOM     11  C   UNL     1      -2.521  13.893  20.597  0.00  0.00    +0.000 C 
ATOM     12  C   UNL     1      -2.225  15.191  21.462  0.00  0.00    +0.000 C 
ATOM     13  N   UNL     1      -1.272  13.104  20.468  0.00  0.00    +0.000 N 
ATOM     14  C   UNL     1      -1.194  12.061  19.535  0.00  0.00    +0.000 A 
ATOM     15  C   UNL     1      -0.038  11.320  19.511  0.00  0.00    +0.000 A 
ATOM     16  C   UNL     1      -0.049  10.180  18.753  0.00  0.00    +0.000 A 
ATOM     17  N   UNL     1      -1.057   9.821  17.936  0.00  0.00    +0.000 NA
ATOM     18  C   UNL     1      -2.101  10.672  17.898  0.00  0.00    +0.000 A 
ATOM     19  N   UNL     1      -2.210  11.762  18.702  0.00  0.00    +0.000 NA
BRANCH  18  20
ATOM     20  C   UNL     1      -3.158  10.402  16.852  0.00  0.00    +0.000 C 
ATOM     21  C   UNL     1      -3.113  11.133  15.526  0.00  0.00    +0.000 C 
ATOM     22  C   UNL     1      -2.859   9.656  15.575  0.00  0.00    +0.000 C 
ENDBRANCH  18  20
ENDBRANCH   1  16
BRANCH   3  23
ATOM     23  C   UNL     1       2.640   7.791  17.624  0.00  0.00    +0.000 A 
ATOM     24  C   UNL     1       3.945   8.108  17.253  0.00  0.00    +0.000 A 
ATOM     25  C   UNL     1       4.910   7.107  17.140  0.00  0.00    +0.000 A 
ATOM     26  C   UNL     1       4.558   5.778  17.372  0.00  0.00    +0.000 A 
ATOM     27  C   UNL     1       3.245   5.408  17.728  0.00  0.00    +0.000 A 
ATOM     28  C   UNL     1       2.313   6.458  17.887  0.00  0.00    +0.000 A 
BRANCH  27  29
ATOM     29  C   UNL     1       2.820   3.876  17.905  0.00  0.00    +0.000 C 
ATOM     30  C   UNL     1       2.966   2.918  16.687  0.00  0.00    +0.000 C 
ATOM     31  O   UNL     1       3.592   1.908  17.530  0.00  0.00    +0.000 OA
ATOM     32  C   UNL     1       3.916   2.939  18.494  0.00  0.00    +0.000 C 
BRANCH  29  33
ATOM     33  C   UNL     1       1.472   3.745  18.640  0.00  0.00    +0.000 C 
BRANCH  33  34
ATOM     34  C   UNL     1       1.635   3.349  20.072  0.00  0.00    +0.000 A 
ATOM     35  N   UNL     1       1.520   2.126  20.550  0.00  0.00    +0.000 NA
ATOM     36  N   UNL     1       1.728   2.167  21.907  0.00  0.00    +0.000 NA
ATOM     37  C   UNL     1       1.973   3.414  22.231  0.00  0.00    +0.000 A 
ATOM     38  N   UNL     1       1.918   4.193  21.116  0.00  0.00    +0.000 N 
ATOM     39  C   UNL     1       2.124   5.616  21.088  0.00  0.00    +0.000 C 
ENDBRANCH  33  34
ENDBRANCH  29  33
ENDBRANCH  27  29
ENDBRANCH   3  23
TORSDOF 6
ENDMDL
