MODEL 1
REMARK VINA RESULT:      -8.7      0.000      0.000
REMARK  Name = 
REMARK  8 active torsions:
REMARK  status: ('A' for Active; 'I' for Inactive)
REMARK    1  A    between atoms: C_1  and  C_2
REMARK    2  A    between atoms: C_2  and  C_3
REMARK    3  A    between atoms: C_2  and  C_10
REMARK    4  A    between atoms: C_3  and  C_4
REMARK    5  A    between atoms: N_8  and  C_9
REMARK    6  A    between atoms: C_14  and  N_15
REMARK    7  A    between atoms: C_16  and  C_18
REMARK    8  A    between atoms: C_20  and  C_21
REMARK                            x       y       z     vdW  Elec       q    Type
REMARK                         _______ _______ _______ _____ _____    ______ ____
ROOT
ATOM      1  C   UNL     1       4.372   4.883  16.891  0.00  0.00    +0.000 A 
ATOM      2  C   UNL     1       3.698   3.654  16.960  0.00  0.00    +0.000 A 
ATOM      3  C   UNL     1       2.492   3.552  17.646  0.00  0.00    +0.000 A 
ATOM      4  C   UNL     1       1.951   4.668  18.279  0.00  0.00    +0.000 A 
ATOM      5  C   UNL     1       2.607   5.897  18.250  0.00  0.00    +0.000 A 
ATOM      6  C   UNL     1       3.810   6.002  17.543  0.00  0.00    +0.000 A 
ENDROOT
BRANCH   5   7
ATOM      7  N   UNL     1       2.097   7.048  18.884  0.00  0.00    +0.000 N 
ATOM      8  C   UNL     1       2.019   8.308  18.313  0.00  0.00    +0.000 C 
ATOM      9  O   UNL     1       2.306   8.616  17.164  0.00  0.00    +0.000 OA
ATOM     10  H   UNL     1       1.689   6.961  19.808  0.00  0.00    +0.000 HD
BRANCH   8  11
ATOM     11  C   UNL     1       1.480   9.370  19.216  0.00  0.00    +0.000 A 
ATOM     12  C   UNL     1       0.955   8.998  20.449  0.00  0.00    +0.000 A 
ATOM     13  C   UNL     1       0.463   9.990  21.296  0.00  0.00    +0.000 A 
ATOM     14  C   UNL     1       0.518  11.320  20.859  0.00  0.00    +0.000 A 
ATOM     15  C   UNL     1       1.054  11.596  19.608  0.00  0.00    +0.000 A 
ATOM     16  N   UNL     1       1.540  10.654  18.771  0.00  0.00    +0.000 NA
BRANCH  13  17
ATOM     17  C   UNL     1      -0.106   9.643  22.646  0.00  0.00    +0.000 C 
ATOM     18  F   UNL     1      -0.918   8.552  22.637  0.00  0.00    +0.000 F 
ATOM     19  F   UNL     1       0.867   9.380  23.560  0.00  0.00    +0.000 F 
ATOM     20  F   UNL     1      -0.845  10.658  23.170  0.00  0.00    +0.000 F 
ENDBRANCH  13  17
ENDBRANCH   8  11
ENDBRANCH   5   7
BRANCH   1  22
ATOM     21  C   UNL     1       5.702   3.924  14.967  0.00  0.00    +0.000 C 
ATOM     22  C   UNL     1       5.647   5.000  16.061  0.00  0.00    +0.000 C 
BRANCH  22  23
ATOM     23  C   UNL     1       6.848   4.988  17.027  0.00  0.00    +0.000 C 
BRANCH  23  24
ATOM     24  C   UNL     1       7.304   6.325  17.503  0.00  0.00    +0.000 A 
ATOM     25  N   UNL     1       7.285   7.442  16.803  0.00  0.00    +0.000 NA
ATOM     26  N   UNL     1       7.947   8.411  17.519  0.00  0.00    +0.000 NA
ATOM     27  C   UNL     1       8.353   7.868  18.641  0.00  0.00    +0.000 A 
ATOM     28  N   UNL     1       7.930   6.576  18.697  0.00  0.00    +0.000 N 
ATOM     29  C   UNL     1       8.112   5.674  19.800  0.00  0.00    +0.000 C 
ENDBRANCH  23  24
ENDBRANCH  22  23
ENDBRANCH   1  22
TORSDOF 6
ENDMDL
MODEL 2
REMARK VINA RESULT:      -8.2      0.769      1.502
REMARK  Name = 
REMARK  8 active torsions:
REMARK  status: ('A' for Active; 'I' for Inactive)
REMARK    1  A    between atoms: C_1  and  C_2
REMARK    2  A    between atoms: C_2  and  C_3
REMARK    3  A    between atoms: C_2  and  C_10
REMARK    4  A    between atoms: C_3  and  C_4
REMARK    5  A    between atoms: N_8  and  C_9
REMARK    6  A    between atoms: C_14  and  N_15
REMARK    7  A    between atoms: C_16  and  C_18
REMARK    8  A    between atoms: C_20  and  C_21
REMARK                            x       y       z     vdW  Elec       q    Type
REMARK                         _______ _______ _______ _____ _____    ______ ____
ROOT
ATOM      1  C   UNL     1       4.645   5.029  16.719  0.00  0.00    +0.000 A 
ATOM      2  C   UNL     1       4.212   3.724  16.999  0.00  0.00    +0.000 A 
ATOM      3  C   UNL     1       3.138   3.509  17.858  0.00  0.00    +0.000 A 
ATOM      4  C   UNL     1       2.494   4.589  18.455  0.00  0.00    +0.000 A 
ATOM      5  C   UNL     1       2.915   5.896  18.216  0.00  0.00    +0.000 A 
ATOM      6  C   UNL     1       3.981   6.111  17.337  0.00  0.00    +0.000 A 
ENDROOT
BRANCH   5   7
ATOM      7  N   UNL     1       2.295   7.017  18.807  0.00  0.00    +0.000 N 
ATOM      8  C   UNL     1       2.204   8.275  18.234  0.00  0.00    +0.000 C 
ATOM      9  O   UNL     1       2.575   8.605  17.117  0.00  0.00    +0.000 OA
ATOM     10  H   UNL     1       1.811   6.902  19.691  0.00  0.00    +0.000 HD
BRANCH   8  11
ATOM     11  C   UNL     1       1.536   9.303  19.089  0.00  0.00    +0.000 A 
ATOM     12  C   UNL     1       1.086   8.933  20.352  0.00  0.00    +0.000 A 
ATOM     13  C   UNL     1       0.473   9.895  21.154  0.00  0.00    +0.000 A 
ATOM     14  C   UNL     1       0.335  11.191  20.644  0.00  0.00    +0.000 A 
ATOM     15  C   UNL     1       0.809  11.467  19.368  0.00  0.00    +0.000 A 
ATOM     16  N   UNL     1       1.409  10.555  18.573  0.00  0.00    +0.000 NA
BRANCH  13  17
ATOM     17  C   UNL     1      -0.022   9.551  22.535  0.00  0.00    +0.000 C 
ATOM     18  F   UNL     1      -0.664  10.574  23.160  0.00  0.00    +0.000 F 
ATOM     19  F   UNL     1      -0.900   8.511  22.520  0.00  0.00    +0.000 F 
ATOM     20  F   UNL     1       0.988   9.176  23.365  0.00  0.00    +0.000 F 
ENDBRANCH  13  17
ENDBRANCH   8  11
ENDBRANCH   5   7
BRANCH   1  22
ATOM     21  C   UNL     1       5.418   4.634  14.345  0.00  0.00    +0.000 C 
ATOM     22  C   UNL     1       5.765   5.252  15.706  0.00  0.00    +0.000 C 
BRANCH  22  23
ATOM     23  C   UNL     1       7.078   4.734  16.326  0.00  0.00    +0.000 C 
BRANCH  23  24
ATOM     24  C   UNL     1       7.357   5.190  17.717  0.00  0.00    +0.000 A 
ATOM     25  N   UNL     1       7.347   4.431  18.796  0.00  0.00    +0.000 NA
ATOM     26  N   UNL     1       7.473   5.245  19.897  0.00  0.00    +0.000 NA
ATOM     27  C   UNL     1       7.561   6.481  19.468  0.00  0.00    +0.000 A 
ATOM     28  N   UNL     1       7.543   6.491  18.108  0.00  0.00    +0.000 N 
ATOM     29  C   UNL     1       7.693   7.648  17.269  0.00  0.00    +0.000 C 
ENDBRANCH  23  24
ENDBRANCH  22  23
ENDBRANCH   1  22
TORSDOF 6
ENDMDL
MODEL 3
REMARK VINA RESULT:      -8.0      3.894      8.686
REMARK  Name = 
REMARK  8 active torsions:
REMARK  status: ('A' for Active; 'I' for Inactive)
REMARK    1  A    between atoms: C_1  and  C_2
REMARK    2  A    between atoms: C_2  and  C_3
REMARK    3  A    between atoms: C_2  and  C_10
REMARK    4  A    between atoms: C_3  and  C_4
REMARK    5  A    between atoms: N_8  and  C_9
REMARK    6  A    between atoms: C_14  and  N_15
REMARK    7  A    between atoms: C_16  and  C_18
REMARK    8  A    between atoms: C_20  and  C_21
REMARK                            x       y       z     vdW  Elec       q    Type
REMARK                         _______ _______ _______ _____ _____    ______ ____
ROOT
ATOM      1  C   UNL     1      -0.510  10.918  20.058  0.00  0.00    +0.000 A 
ATOM      2  C   UNL     1      -0.700  11.410  21.359  0.00  0.00    +0.000 A 
ATOM      3  C   UNL     1      -0.193  10.717  22.453  0.00  0.00    +0.000 A 
ATOM      4  C   UNL     1       0.496   9.522  22.266  0.00  0.00    +0.000 A 
ATOM      5  C   UNL     1       0.679   8.993  20.989  0.00  0.00    +0.000 A 
ATOM      6  C   UNL     1       0.187   9.702  19.888  0.00  0.00    +0.000 A 
ENDROOT
BRANCH   5   7
ATOM      7  N   UNL     1       1.364   7.782  20.757  0.00  0.00    +0.000 N 
ATOM      8  C   UNL     1       2.135   7.500  19.641  0.00  0.00    +0.000 C 
ATOM      9  O   UNL     1       2.406   8.260  18.721  0.00  0.00    +0.000 OA
ATOM     10  H   UNL     1       1.362   7.070  21.478  0.00  0.00    +0.000 HD
BRANCH   8  11
ATOM     11  C   UNL     1       2.717   6.124  19.615  0.00  0.00    +0.000 A 
ATOM     12  C   UNL     1       1.886   5.041  19.882  0.00  0.00    +0.000 A 
ATOM     13  C   UNL     1       2.426   3.756  19.848  0.00  0.00    +0.000 A 
ATOM     14  C   UNL     1       3.787   3.619  19.549  0.00  0.00    +0.000 A 
ATOM     15  C   UNL     1       4.541   4.760  19.302  0.00  0.00    +0.000 A 
ATOM     16  N   UNL     1       4.041   6.014  19.326  0.00  0.00    +0.000 NA
BRANCH  13  17
ATOM     17  C   UNL     1       1.568   2.548  20.119  0.00  0.00    +0.000 C 
ATOM     18  F   UNL     1       1.911   1.456  19.385  0.00  0.00    +0.000 F 
ATOM     19  F   UNL     1       1.627   2.159  21.421  0.00  0.00    +0.000 F 
ATOM     20  F   UNL     1       0.254   2.781  19.857  0.00  0.00    +0.000 F 
ENDBRANCH  13  17
ENDBRANCH   8  11
ENDBRANCH   5   7
BRANCH   1  22
ATOM     21  C   UNL     1      -0.670  13.225  19.038  0.00  0.00    +0.000 C 
ATOM     22  C   UNL     1      -0.994  11.735  18.863  0.00  0.00    +0.000 C 
BRANCH  22  23
ATOM     23  C   UNL     1      -2.489  11.428  18.650  0.00  0.00    +0.000 C 
BRANCH  23  24
ATOM     24  C   UNL     1      -2.846  10.857  17.320  0.00  0.00    +0.000 A 
ATOM     25  N   UNL     1      -2.082  10.069  16.588  0.00  0.00    +0.000 NA
ATOM     26  N   UNL     1      -2.683   9.904  15.362  0.00  0.00    +0.000 NA
ATOM     27  C   UNL     1      -3.801  10.590  15.373  0.00  0.00    +0.000 A 
ATOM     28  N   UNL     1      -3.968  11.163  16.595  0.00  0.00    +0.000 N 
ATOM     29  C   UNL     1      -5.107  11.930  17.020  0.00  0.00    +0.000 C 
ENDBRANCH  23  24
ENDBRANCH  22  23
ENDBRANCH   1  22
TORSDOF 6
ENDMDL
MODEL 4
REMARK VINA RESULT:      -8.0      5.040      8.870
REMARK  Name = 
REMARK  8 active torsions:
REMARK  status: ('A' for Active; 'I' for Inactive)
REMARK    1  A    between atoms: C_1  and  C_2
REMARK    2  A    between atoms: C_2  and  C_3
REMARK    3  A    between atoms: C_2  and  C_10
REMARK    4  A    between atoms: C_3  and  C_4
REMARK    5  A    between atoms: N_8  and  C_9
REMARK    6  A    between atoms: C_14  and  N_15
REMARK    7  A    between atoms: C_16  and  C_18
REMARK    8  A    between atoms: C_20  and  C_21
REMARK                            x       y       z     vdW  Elec       q    Type
REMARK                         _______ _______ _______ _____ _____    ______ ____
ROOT
ATOM      1  C   UNL     1       2.485   6.755  19.319  0.00  0.00    +0.000 A 
ATOM      2  C   UNL     1       2.334   5.716  20.251  0.00  0.00    +0.000 A 
ATOM      3  C   UNL     1       2.862   4.456  19.988  0.00  0.00    +0.000 A 
ATOM      4  C   UNL     1       3.532   4.214  18.793  0.00  0.00    +0.000 A 
ATOM      5  C   UNL     1       3.677   5.217  17.836  0.00  0.00    +0.000 A 
ATOM      6  C   UNL     1       3.163   6.489  18.110  0.00  0.00    +0.000 A 
ENDROOT
BRANCH   5   7
ATOM      7  N   UNL     1       4.342   5.011  16.610  0.00  0.00    +0.000 N 
ATOM      8  C   UNL     1       5.702   4.791  16.464  0.00  0.00    +0.000 C 
ATOM      9  O   UNL     1       6.530   4.673  17.356  0.00  0.00    +0.000 OA
ATOM     10  H   UNL     1       3.795   4.947  15.759  0.00  0.00    +0.000 HD
BRANCH   8  11
ATOM     11  C   UNL     1       6.163   4.648  15.049  0.00  0.00    +0.000 A 
ATOM     12  C   UNL     1       5.337   3.996  14.140  0.00  0.00    +0.000 A 
ATOM     13  C   UNL     1       5.762   3.872  12.817  0.00  0.00    +0.000 A 
ATOM     14  C   UNL     1       7.008   4.409  12.470  0.00  0.00    +0.000 A 
ATOM     15  C   UNL     1       7.767   5.038  13.449  0.00  0.00    +0.000 A 
ATOM     16  N   UNL     1       7.377   5.173  14.734  0.00  0.00    +0.000 NA
BRANCH  13  17
ATOM     17  C   UNL     1       4.903   3.185  11.789  0.00  0.00    +0.000 C 
ATOM     18  F   UNL     1       4.824   3.850  10.605  0.00  0.00    +0.000 F 
ATOM     19  F   UNL     1       5.359   1.938  11.490  0.00  0.00    +0.000 F 
ATOM     20  F   UNL     1       3.621   3.022  12.215  0.00  0.00    +0.000 F 
ENDBRANCH  13  17
ENDBRANCH   8  11
ENDBRANCH   5   7
BRANCH   1  22
ATOM     21  C   UNL     1       0.987   8.120  20.831  0.00  0.00    +0.000 C 
ATOM     22  C   UNL     1       1.979   8.154  19.660  0.00  0.00    +0.000 C 
BRANCH  22  23
ATOM     23  C   UNL     1       1.420   8.786  18.370  0.00  0.00    +0.000 C 
BRANCH  23  24
ATOM     24  C   UNL     1       0.878  10.168  18.512  0.00  0.00    +0.000 A 
ATOM     25  N   UNL     1       1.505  11.190  19.062  0.00  0.00    +0.000 NA
ATOM     26  N   UNL     1       0.617  12.234  19.166  0.00  0.00    +0.000 NA
ATOM     27  C   UNL     1      -0.530  11.830  18.676  0.00  0.00    +0.000 A 
ATOM     28  N   UNL     1      -0.400  10.559  18.210  0.00  0.00    +0.000 N 
ATOM     29  C   UNL     1      -1.415   9.798  17.534  0.00  0.00    +0.000 C 
ENDBRANCH  23  24
ENDBRANCH  22  23
ENDBRANCH   1  22
TORSDOF 6
ENDMDL
MODEL 5
REMARK VINA RESULT:      -8.0      4.403      9.064
REMARK  Name = 
REMARK  8 active torsions:
REMARK  status: ('A' for Active; 'I' for Inactive)
REMARK    1  A    between atoms: C_1  and  C_2
REMARK    2  A    between atoms: C_2  and  C_3
REMARK    3  A    between atoms: C_2  and  C_10
REMARK    4  A    between atoms: C_3  and  C_4
REMARK    5  A    between atoms: N_8  and  C_9
REMARK    6  A    between atoms: C_14  and  N_15
REMARK    7  A    between atoms: C_16  and  C_18
REMARK    8  A    between atoms: C_20  and  C_21
REMARK                            x       y       z     vdW  Elec       q    Type
REMARK                         _______ _______ _______ _____ _____    ______ ____
ROOT
ATOM      1  C   UNL     1      -0.012  10.568  19.947  0.00  0.00    +0.000 A 
ATOM      2  C   UNL     1      -0.327  10.506  21.313  0.00  0.00    +0.000 A 
ATOM      3  C   UNL     1       0.230   9.518  22.118  0.00  0.00    +0.000 A 
ATOM      4  C   UNL     1       1.094   8.574  21.571  0.00  0.00    +0.000 A 
ATOM      5  C   UNL     1       1.408   8.592  20.213  0.00  0.00    +0.000 A 
ATOM      6  C   UNL     1       0.863   9.599  19.408  0.00  0.00    +0.000 A 
ENDROOT
BRANCH   5   7
ATOM      7  N   UNL     1       2.272   7.650  19.617  0.00  0.00    +0.000 N 
ATOM      8  C   UNL     1       2.270   6.288  19.873  0.00  0.00    +0.000 C 
ATOM      9  O   UNL     1       1.491   5.674  20.589  0.00  0.00    +0.000 OA
ATOM     10  H   UNL     1       2.910   7.958  18.892  0.00  0.00    +0.000 HD
BRANCH   8  11
ATOM     11  C   UNL     1       3.320   5.515  19.144  0.00  0.00    +0.000 A 
ATOM     12  C   UNL     1       3.801   6.012  17.937  0.00  0.00    +0.000 A 
ATOM     13  C   UNL     1       4.789   5.296  17.263  0.00  0.00    +0.000 A 
ATOM     14  C   UNL     1       5.247   4.102  17.834  0.00  0.00    +0.000 A 
ATOM     15  C   UNL     1       4.702   3.680  19.040  0.00  0.00    +0.000 A 
ATOM     16  N   UNL     1       3.748   4.356  19.714  0.00  0.00    +0.000 NA
BRANCH  13  17
ATOM     17  C   UNL     1       5.353   5.795  15.959  0.00  0.00    +0.000 C 
ATOM     18  F   UNL     1       6.701   5.980  15.978  0.00  0.00    +0.000 F 
ATOM     19  F   UNL     1       5.107   4.937  14.931  0.00  0.00    +0.000 F 
ATOM     20  F   UNL     1       4.814   6.987  15.587  0.00  0.00    +0.000 F 
ENDBRANCH  13  17
ENDBRANCH   8  11
ENDBRANCH   5   7
BRANCH   1  22
ATOM     21  C   UNL     1       0.063  13.054  19.499  0.00  0.00    +0.000 C 
ATOM     22  C   UNL     1      -0.559  11.710  19.095  0.00  0.00    +0.000 C 
BRANCH  22  23
ATOM     23  C   UNL     1      -2.098  11.670  19.176  0.00  0.00    +0.000 C 
BRANCH  23  24
ATOM     24  C   UNL     1      -2.801  11.351  17.901  0.00  0.00    +0.000 A 
ATOM     25  N   UNL     1      -2.225  10.974  16.775  0.00  0.00    +0.000 NA
ATOM     26  N   UNL     1      -3.183  10.950  15.789  0.00  0.00    +0.000 NA
ATOM     27  C   UNL     1      -4.321  11.307  16.332  0.00  0.00    +0.000 A 
ATOM     28  N   UNL     1      -4.140  11.520  17.664  0.00  0.00    +0.000 N 
ATOM     29  C   UNL     1      -5.165  11.853  18.614  0.00  0.00    +0.000 C 
ENDBRANCH  23  24
ENDBRANCH  22  23
ENDBRANCH   1  22
TORSDOF 6
ENDMDL
MODEL 6
REMARK VINA RESULT:      -7.9      4.290      9.046
REMARK  Name = 
REMARK  8 active torsions:
REMARK  status: ('A' for Active; 'I' for Inactive)
REMARK    1  A    between atoms: C_1  and  C_2
REMARK    2  A    between atoms: C_2  and  C_3
REMARK    3  A    between atoms: C_2  and  C_10
REMARK    4  A    between atoms: C_3  and  C_4
REMARK    5  A    between atoms: N_8  and  C_9
REMARK    6  A    between atoms: C_14  and  N_15
REMARK    7  A    between atoms: C_16  and  C_18
REMARK    8  A    between atoms: C_20  and  C_21
REMARK                            x       y       z     vdW  Elec       q    Type
REMARK                         _______ _______ _______ _____ _____    ______ ____
ROOT
ATOM      1  C   UNL     1       0.111  10.375  19.785  0.00  0.00    +0.000 A 
ATOM      2  C   UNL     1      -0.198  10.201  21.143  0.00  0.00    +0.000 A 
ATOM      3  C   UNL     1       0.356   9.144  21.859  0.00  0.00    +0.000 A 
ATOM      4  C   UNL     1       1.212   8.245  21.229  0.00  0.00    +0.000 A 
ATOM      5  C   UNL     1       1.519   8.376  19.876  0.00  0.00    +0.000 A 
ATOM      6  C   UNL     1       0.977   9.451  19.162  0.00  0.00    +0.000 A 
ENDROOT
BRANCH   5   7
ATOM      7  N   UNL     1       2.375   7.483  19.198  0.00  0.00    +0.000 N 
ATOM      8  C   UNL     1       2.460   6.120  19.436  0.00  0.00    +0.000 C 
ATOM      9  O   UNL     1       1.775   5.463  20.208  0.00  0.00    +0.000 OA
ATOM     10  H   UNL     1       2.933   7.828  18.425  0.00  0.00    +0.000 HD
BRANCH   8  11
ATOM     11  C   UNL     1       3.481   5.406  18.612  0.00  0.00    +0.000 A 
ATOM     12  C   UNL     1       4.821   5.744  18.766  0.00  0.00    +0.000 A 
ATOM     13  C   UNL     1       5.775   5.069  18.004  0.00  0.00    +0.000 A 
ATOM     14  C   UNL     1       5.333   4.082  17.114  0.00  0.00    +0.000 A 
ATOM     15  C   UNL     1       3.972   3.817  17.024  0.00  0.00    +0.000 A 
ATOM     16  N   UNL     1       3.030   4.453  17.751  0.00  0.00    +0.000 NA
BRANCH  13  17
ATOM     17  C   UNL     1       7.240   5.387  18.140  0.00  0.00    +0.000 C 
ATOM     18  F   UNL     1       7.588   5.864  19.365  0.00  0.00    +0.000 F 
ATOM     19  F   UNL     1       8.024   4.296  17.925  0.00  0.00    +0.000 F 
ATOM     20  F   UNL     1       7.649   6.323  17.241  0.00  0.00    +0.000 F 
ENDBRANCH  13  17
ENDBRANCH   8  11
ENDBRANCH   5   7
BRANCH   1  22
ATOM     21  C   UNL     1       0.323  12.868  19.421  0.00  0.00    +0.000 C 
ATOM     22  C   UNL     1      -0.434  11.589  19.036  0.00  0.00    +0.000 C 
BRANCH  22  23
ATOM     23  C   UNL     1      -1.955  11.653  19.274  0.00  0.00    +0.000 C 
BRANCH  23  24
ATOM     24  C   UNL     1      -2.804  11.443  18.066  0.00  0.00    +0.000 A 
ATOM     25  N   UNL     1      -2.370  11.123  16.863  0.00  0.00    +0.000 NA
ATOM     26  N   UNL     1      -3.429  11.197  15.989  0.00  0.00    +0.000 NA
ATOM     27  C   UNL     1      -4.486  11.557  16.676  0.00  0.00    +0.000 A 
ATOM     28  N   UNL     1      -4.153  11.674  17.990  0.00  0.00    +0.000 N 
ATOM     29  C   UNL     1      -5.055  11.978  19.067  0.00  0.00    +0.000 C 
ENDBRANCH  23  24
ENDBRANCH  22  23
ENDBRANCH   1  22
TORSDOF 6
ENDMDL
MODEL 7
REMARK VINA RESULT:      -7.9      4.529      8.967
REMARK  Name = 
REMARK  8 active torsions:
REMARK  status: ('A' for Active; 'I' for Inactive)
REMARK    1  A    between atoms: C_1  and  C_2
REMARK    2  A    between atoms: C_2  and  C_3
REMARK    3  A    between atoms: C_2  and  C_10
REMARK    4  A    between atoms: C_3  and  C_4
REMARK    5  A    between atoms: N_8  and  C_9
REMARK    6  A    between atoms: C_14  and  N_15
REMARK    7  A    between atoms: C_16  and  C_18
REMARK    8  A    between atoms: C_20  and  C_21
REMARK                            x       y       z     vdW  Elec       q    Type
REMARK                         _______ _______ _______ _____ _____    ______ ____
ROOT
ATOM      1  C   UNL     1      -0.493  10.237  19.864  0.00  0.00    +0.000 A 
ATOM      2  C   UNL     1      -0.530  10.461  21.249  0.00  0.00    +0.000 A 
ATOM      3  C   UNL     1       0.351   9.792  22.093  0.00  0.00    +0.000 A 
ATOM      4  C   UNL     1       1.269   8.885  21.569  0.00  0.00    +0.000 A 
ATOM      5  C   UNL     1       1.314   8.622  20.201  0.00  0.00    +0.000 A 
ATOM      6  C   UNL     1       0.441   9.311  19.352  0.00  0.00    +0.000 A 
ENDROOT
BRANCH   5   7
ATOM      7  N   UNL     1       2.222   7.705  19.631  0.00  0.00    +0.000 N 
ATOM      8  C   UNL     1       2.270   6.348  19.908  0.00  0.00    +0.000 C 
ATOM      9  O   UNL     1       1.506   5.716  20.625  0.00  0.00    +0.000 OA
ATOM     10  H   UNL     1       2.857   8.026  18.909  0.00  0.00    +0.000 HD
BRANCH   8  11
ATOM     11  C   UNL     1       3.358   5.605  19.205  0.00  0.00    +0.000 A 
ATOM     12  C   UNL     1       3.998   6.214  18.130  0.00  0.00    +0.000 A 
ATOM     13  C   UNL     1       5.021   5.525  17.481  0.00  0.00    +0.000 A 
ATOM     14  C   UNL     1       5.353   4.245  17.942  0.00  0.00    +0.000 A 
ATOM     15  C   UNL     1       4.654   3.715  19.019  0.00  0.00    +0.000 A 
ATOM     16  N   UNL     1       3.662   4.362  19.666  0.00  0.00    +0.000 NA
BRANCH  13  17
ATOM     17  C   UNL     1       5.755   6.142  16.319  0.00  0.00    +0.000 C 
ATOM     18  F   UNL     1       4.949   6.821  15.458  0.00  0.00    +0.000 F 
ATOM     19  F   UNL     1       6.703   7.030  16.725  0.00  0.00    +0.000 F 
ATOM     20  F   UNL     1       6.408   5.214  15.570  0.00  0.00    +0.000 F 
ENDBRANCH  13  17
ENDBRANCH   8  11
ENDBRANCH   5   7
BRANCH   1  22
ATOM     21  C   UNL     1      -1.887  12.332  19.626  0.00  0.00    +0.000 C 
ATOM     22  C   UNL     1      -1.404  11.044  18.944  0.00  0.00    +0.000 C 
BRANCH  22  23
ATOM     23  C   UNL     1      -2.536  10.117  18.460  0.00  0.00    +0.000 C 
BRANCH  23  24
ATOM     24  C   UNL     1      -2.900  10.242  17.020  0.00  0.00    +0.000 A 
ATOM     25  N   UNL     1      -2.238   9.716  16.008  0.00  0.00    +0.000 NA
ATOM     26  N   UNL     1      -2.780  10.201  14.841  0.00  0.00    +0.000 NA
ATOM     27  C   UNL     1      -3.761  11.009  15.164  0.00  0.00    +0.000 A 
ATOM     28  N   UNL     1      -3.904  11.027  16.517  0.00  0.00    +0.000 N 
ATOM     29  C   UNL     1      -4.918  11.734  17.250  0.00  0.00    +0.000 C 
ENDBRANCH  23  24
ENDBRANCH  22  23
ENDBRANCH   1  22
TORSDOF 6
ENDMDL
MODEL 8
REMARK VINA RESULT:      -7.9      4.775      9.050
REMARK  Name = 
REMARK  8 active torsions:
REMARK  status: ('A' for Active; 'I' for Inactive)
REMARK    1  A    between atoms: C_1  and  C_2
REMARK    2  A    between atoms: C_2  and  C_3
REMARK    3  A    between atoms: C_2  and  C_10
REMARK    4  A    between atoms: C_3  and  C_4
REMARK    5  A    between atoms: N_8  and  C_9
REMARK    6  A    between atoms: C_14  and  N_15
REMARK    7  A    between atoms: C_16  and  C_18
REMARK    8  A    between atoms: C_20  and  C_21
REMARK                            x       y       z     vdW  Elec       q    Type
REMARK                         _______ _______ _______ _____ _____    ______ ____
ROOT
ATOM      1  C   UNL     1      -0.246  10.018  19.329  0.00  0.00    +0.000 A 
ATOM      2  C   UNL     1      -0.543  10.013  20.700  0.00  0.00    +0.000 A 
ATOM      3  C   UNL     1       0.224   9.258  21.583  0.00  0.00    +0.000 A 
ATOM      4  C   UNL     1       1.285   8.492  21.108  0.00  0.00    +0.000 A 
ATOM      5  C   UNL     1       1.590   8.455  19.749  0.00  0.00    +0.000 A 
ATOM      6  C   UNL     1       0.831   9.231  18.866  0.00  0.00    +0.000 A 
ENDROOT
BRANCH   5   7
ATOM      7  N   UNL     1       2.650   7.686  19.226  0.00  0.00    +0.000 N 
ATOM      8  C   UNL     1       2.716   6.302  19.237  0.00  0.00    +0.000 C 
ATOM      9  O   UNL     1       1.855   5.527  19.629  0.00  0.00    +0.000 OA
ATOM     10  H   UNL     1       3.405   8.156  18.739  0.00  0.00    +0.000 HD
BRANCH   8  11
ATOM     11  C   UNL     1       3.971   5.732  18.660  0.00  0.00    +0.000 A 
ATOM     12  C   UNL     1       4.158   5.783  17.283  0.00  0.00    +0.000 A 
ATOM     13  C   UNL     1       5.335   5.261  16.746  0.00  0.00    +0.000 A 
ATOM     14  C   UNL     1       6.272   4.705  17.624  0.00  0.00    +0.000 A 
ATOM     15  C   UNL     1       5.996   4.692  18.986  0.00  0.00    +0.000 A 
ATOM     16  N   UNL     1       4.867   5.193  19.530  0.00  0.00    +0.000 NA
BRANCH  13  17
ATOM     17  C   UNL     1       5.593   5.301  15.263  0.00  0.00    +0.000 C 
ATOM     18  F   UNL     1       6.912   5.260  14.933  0.00  0.00    +0.000 F 
ATOM     19  F   UNL     1       5.011   4.257  14.613  0.00  0.00    +0.000 F 
ATOM     20  F   UNL     1       5.095   6.426  14.683  0.00  0.00    +0.000 F 
ENDBRANCH  13  17
ENDBRANCH   8  11
ENDBRANCH   5   7
BRANCH   1  22
ATOM     21  C   UNL     1      -1.094  12.362  18.910  0.00  0.00    +0.000 C 
ATOM     22  C   UNL     1      -1.039  10.920  18.387  0.00  0.00    +0.000 C 
BRANCH  22  23
ATOM     23  C   UNL     1      -2.418  10.272  18.156  0.00  0.00    +0.000 C 
BRANCH  23  24
ATOM     24  C   UNL     1      -2.889  10.247  16.742  0.00  0.00    +0.000 A 
ATOM     25  N   UNL     1      -2.291   9.632  15.740  0.00  0.00    +0.000 NA
ATOM     26  N   UNL     1      -2.926   9.990  14.574  0.00  0.00    +0.000 NA
ATOM     27  C   UNL     1      -3.899  10.811  14.888  0.00  0.00    +0.000 A 
ATOM     28  N   UNL     1      -3.944  10.963  16.239  0.00  0.00    +0.000 N 
ATOM     29  C   UNL     1      -4.918  11.724  16.972  0.00  0.00    +0.000 C 
ENDBRANCH  23  24
ENDBRANCH  22  23
ENDBRANCH   1  22
TORSDOF 6
ENDMDL
MODEL 9
REMARK VINA RESULT:      -7.9      5.098      9.698
REMARK  Name = 
REMARK  8 active torsions:
REMARK  status: ('A' for Active; 'I' for Inactive)
REMARK    1  A    between atoms: C_1  and  C_2
REMARK    2  A    between atoms: C_2  and  C_3
REMARK    3  A    between atoms: C_2  and  C_10
REMARK    4  A    between atoms: C_3  and  C_4
REMARK    5  A    between atoms: N_8  and  C_9
REMARK    6  A    between atoms: C_14  and  N_15
REMARK    7  A    between atoms: C_16  and  C_18
REMARK    8  A    between atoms: C_20  and  C_21
REMARK                            x       y       z     vdW  Elec       q    Type
REMARK                         _______ _______ _______ _____ _____    ______ ____
ROOT
ATOM      1  C   UNL     1      -1.256  10.605  18.061  0.00  0.00    +0.000 A 
ATOM      2  C   UNL     1      -0.785  11.863  18.470  0.00  0.00    +0.000 A 
ATOM      3  C   UNL     1       0.567  12.052  18.741  0.00  0.00    +0.000 A 
ATOM      4  C   UNL     1       1.460  10.991  18.621  0.00  0.00    +0.000 A 
ATOM      5  C   UNL     1       1.020   9.724  18.241  0.00  0.00    +0.000 A 
ATOM      6  C   UNL     1      -0.336   9.540  17.950  0.00  0.00    +0.000 A 
ENDROOT
BRANCH   5   7
ATOM      7  N   UNL     1       1.889   8.620  18.116  0.00  0.00    +0.000 N 
ATOM      8  C   UNL     1       2.221   7.742  19.135  0.00  0.00    +0.000 C 
ATOM      9  O   UNL     1       1.773   7.732  20.274  0.00  0.00    +0.000 OA
ATOM     10  H   UNL     1       2.262   8.390  17.202  0.00  0.00    +0.000 HD
BRANCH   8  11
ATOM     11  C   UNL     1       3.202   6.683  18.752  0.00  0.00    +0.000 A 
ATOM     12  C   UNL     1       3.787   6.737  17.491  0.00  0.00    +0.000 A 
ATOM     13  C   UNL     1       4.711   5.754  17.138  0.00  0.00    +0.000 A 
ATOM     14  C   UNL     1       5.002   4.753  18.073  0.00  0.00    +0.000 A 
ATOM     15  C   UNL     1       4.363   4.776  19.306  0.00  0.00    +0.000 A 
ATOM     16  N   UNL     1       3.468   5.718  19.674  0.00  0.00    +0.000 NA
BRANCH  13  17
ATOM     17  C   UNL     1       5.382   5.771  15.790  0.00  0.00    +0.000 C 
ATOM     18  F   UNL     1       5.026   6.828  15.012  0.00  0.00    +0.000 F 
ATOM     19  F   UNL     1       6.738   5.820  15.893  0.00  0.00    +0.000 F 
ATOM     20  F   UNL     1       5.104   4.657  15.061  0.00  0.00    +0.000 F 
ENDBRANCH  13  17
ENDBRANCH   8  11
ENDBRANCH   5   7
BRANCH   1  22
ATOM     21  C   UNL     1      -2.873   9.933  16.239  0.00  0.00    +0.000 C 
ATOM     22  C   UNL     1      -2.724  10.436  17.682  0.00  0.00    +0.000 C 
BRANCH  22  23
ATOM     23  C   UNL     1      -3.448  11.765  17.971  0.00  0.00    +0.000 C 
BRANCH  23  24
ATOM     24  C   UNL     1      -4.841  11.641  18.487  0.00  0.00    +0.000 A 
ATOM     25  N   UNL     1      -5.868  11.145  17.824  0.00  0.00    +0.000 NA
ATOM     26  N   UNL     1      -7.006  11.366  18.565  0.00  0.00    +0.000 NA
ATOM     27  C   UNL     1      -6.650  11.987  19.663  0.00  0.00    +0.000 A 
ATOM     28  N   UNL     1      -5.298  12.136  19.681  0.00  0.00    +0.000 N 
ATOM     29  C   UNL     1      -4.523  12.701  20.751  0.00  0.00    +0.000 C 
ENDBRANCH  23  24
ENDBRANCH  22  23
ENDBRANCH   1  22
TORSDOF 6
ENDMDL
