MODEL 1
REMARK VINA RESULT:      -7.7      0.000      0.000
REMARK  Name = 
REMARK  6 active torsions:
REMARK  status: ('A' for Active; 'I' for Inactive)
REMARK    1  A    between atoms: C_1  and  C_2
REMARK    2  A    between atoms: C_2  and  S_3
REMARK    3  A    between atoms: C_2  and  C_10
REMARK    4  A    between atoms: S_3  and  C_4
REMARK    5  A    between atoms: N_8  and  C_9
REMARK    6  A    between atoms: C_14  and  N_15
REMARK                            x       y       z     vdW  Elec       q    Type
REMARK                         _______ _______ _______ _____ _____    ______ ____
ROOT
ATOM      1  C   UNL     1       0.295  10.127  19.400  0.00  0.00    +0.000 A 
ATOM      2  C   UNL     1      -0.199   9.744  20.658  0.00  0.00    +0.000 A 
ATOM      3  C   UNL     1       0.357   8.666  21.346  0.00  0.00    +0.000 A 
ATOM      4  C   UNL     1       1.390   7.924  20.771  0.00  0.00    +0.000 A 
ATOM      5  C   UNL     1       1.855   8.235  19.495  0.00  0.00    +0.000 A 
ATOM      6  C   UNL     1       1.313   9.344  18.827  0.00  0.00    +0.000 A 
ENDROOT
BRANCH   5   7
ATOM      7  N   UNL     1       2.870   7.517  18.823  0.00  0.00    +0.000 N 
ATOM      8  C   UNL     1       3.032   6.153  18.783  0.00  0.00    +0.000 C 
ATOM      9  O   UNL     1       2.220   5.353  19.243  0.00  0.00    +0.000 OA
ATOM     10  N   UNL     1       4.196   5.697  18.163  0.00  0.00    +0.000 N 
ATOM     11  C   UNL     1       5.260   6.498  17.541  0.00  0.00    +0.000 C 
ATOM     12  C   UNL     1       5.302   6.268  16.042  0.00  0.00    +0.000 C 
ATOM     13  S   UNL     1       5.596   4.548  15.705  0.00  0.00    +0.000 S 
ATOM     14  O   UNL     1       5.295   4.314  14.308  0.00  0.00    +0.000 OA
ATOM     15  O   UNL     1       6.899   4.197  16.244  0.00  0.00    +0.000 OA
ATOM     16  C   UNL     1       4.349   3.739  16.678  0.00  0.00    +0.000 C 
ATOM     17  C   UNL     1       4.411   4.245  18.103  0.00  0.00    +0.000 C 
ATOM     18  H   UNL     1       3.441   8.074  18.215  0.00  0.00    +0.000 HD
ENDBRANCH   5   7
BRANCH   1  20
ATOM     19  C   UNL     1       0.659  12.614  18.728  0.00  0.00    +0.000 C 
ATOM     20  C   UNL     1      -0.252  11.380  18.725  0.00  0.00    +0.000 C 
BRANCH  20  21
ATOM     21  S   UNL     1      -1.915  11.833  19.383  0.00  0.00    +0.000 S 
BRANCH  21  22
ATOM     22  C   UNL     1      -2.906  11.550  18.000  0.00  0.00    +0.000 A 
ATOM     23  N   UNL     1      -2.493  11.202  16.802  0.00  0.00    +0.000 NA
ATOM     24  N   UNL     1      -3.598  11.126  15.982  0.00  0.00    +0.000 NA
ATOM     25  C   UNL     1      -4.651  11.415  16.715  0.00  0.00    +0.000 A 
ATOM     26  N   UNL     1      -4.265  11.678  17.995  0.00  0.00    +0.000 N 
ATOM     27  C   UNL     1      -5.138  12.023  19.081  0.00  0.00    +0.000 C 
ENDBRANCH  21  22
ENDBRANCH  20  21
ENDBRANCH   1  20
TORSDOF 4
ENDMDL
MODEL 2
REMARK VINA RESULT:      -7.7      3.413      9.080
REMARK  Name = 
REMARK  6 active torsions:
REMARK  status: ('A' for Active; 'I' for Inactive)
REMARK    1  A    between atoms: C_1  and  C_2
REMARK    2  A    between atoms: C_2  and  S_3
REMARK    3  A    between atoms: C_2  and  C_10
REMARK    4  A    between atoms: S_3  and  C_4
REMARK    5  A    between atoms: N_8  and  C_9
REMARK    6  A    between atoms: C_14  and  N_15
REMARK                            x       y       z     vdW  Elec       q    Type
REMARK                         _______ _______ _______ _____ _____    ______ ____
ROOT
ATOM      1  C   UNL     1       4.164   4.964  16.947  0.00  0.00    +0.000 A 
ATOM      2  C   UNL     1       3.481   3.744  17.079  0.00  0.00    +0.000 A 
ATOM      3  C   UNL     1       2.278   3.671  17.781  0.00  0.00    +0.000 A 
ATOM      4  C   UNL     1       1.757   4.807  18.400  0.00  0.00    +0.000 A 
ATOM      5  C   UNL     1       2.447   6.017  18.348  0.00  0.00    +0.000 A 
ATOM      6  C   UNL     1       3.637   6.088  17.608  0.00  0.00    +0.000 A 
ENDROOT
BRANCH   5   7
ATOM      7  N   UNL     1       2.011   7.207  18.975  0.00  0.00    +0.000 N 
ATOM      8  C   UNL     1       1.951   8.462  18.419  0.00  0.00    +0.000 C 
ATOM      9  O   UNL     1       2.165   8.697  17.232  0.00  0.00    +0.000 OA
ATOM     10  N   UNL     1       1.613   9.497  19.292  0.00  0.00    +0.000 N 
ATOM     11  C   UNL     1       1.304   9.405  20.726  0.00  0.00    +0.000 C 
ATOM     12  C   UNL     1      -0.148   9.755  20.989  0.00  0.00    +0.000 C 
ATOM     13  S   UNL     1      -0.480  11.408  20.428  0.00  0.00    +0.000 S 
ATOM     14  O   UNL     1      -1.917  11.579  20.381  0.00  0.00    +0.000 OA
ATOM     15  O   UNL     1       0.344  12.322  21.202  0.00  0.00    +0.000 OA
ATOM     16  C   UNL     1       0.125  11.385  18.758  0.00  0.00    +0.000 C 
ATOM     17  C   UNL     1       1.543  10.857  18.740  0.00  0.00    +0.000 C 
ATOM     18  H   UNL     1       1.584   7.071  19.873  0.00  0.00    +0.000 HD
ENDBRANCH   5   7
BRANCH   1  20
ATOM     19  C   UNL     1       5.401   4.207  14.788  0.00  0.00    +0.000 C 
ATOM     20  C   UNL     1       5.413   5.038  16.076  0.00  0.00    +0.000 C 
BRANCH  20  21
ATOM     21  S   UNL     1       6.938   4.662  17.045  0.00  0.00    +0.000 S 
BRANCH  21  22
ATOM     22  C   UNL     1       7.445   6.248  17.495  0.00  0.00    +0.000 A 
ATOM     23  N   UNL     1       7.407   7.323  16.740  0.00  0.00    +0.000 NA
ATOM     24  N   UNL     1       7.946   8.364  17.464  0.00  0.00    +0.000 NA
ATOM     25  C   UNL     1       8.279   7.890  18.644  0.00  0.00    +0.000 A 
ATOM     26  N   UNL     1       7.972   6.565  18.713  0.00  0.00    +0.000 N 
ATOM     27  C   UNL     1       8.184   5.711  19.849  0.00  0.00    +0.000 C 
ENDBRANCH  21  22
ENDBRANCH  20  21
ENDBRANCH   1  20
TORSDOF 4
ENDMDL
MODEL 3
REMARK VINA RESULT:      -7.6      3.553      9.421
REMARK  Name = 
REMARK  6 active torsions:
REMARK  status: ('A' for Active; 'I' for Inactive)
REMARK    1  A    between atoms: C_1  and  C_2
REMARK    2  A    between atoms: C_2  and  S_3
REMARK    3  A    between atoms: C_2  and  C_10
REMARK    4  A    between atoms: S_3  and  C_4
REMARK    5  A    between atoms: N_8  and  C_9
REMARK    6  A    between atoms: C_14  and  N_15
REMARK                            x       y       z     vdW  Elec       q    Type
REMARK                         _______ _______ _______ _____ _____    ______ ____
ROOT
ATOM      1  C   UNL     1       4.078   5.532  17.485  0.00  0.00    +0.000 A 
ATOM      2  C   UNL     1       3.485   4.270  17.651  0.00  0.00    +0.000 A 
ATOM      3  C   UNL     1       2.356   4.110  18.454  0.00  0.00    +0.000 A 
ATOM      4  C   UNL     1       1.823   5.201  19.140  0.00  0.00    +0.000 A 
ATOM      5  C   UNL     1       2.430   6.453  19.053  0.00  0.00    +0.000 A 
ATOM      6  C   UNL     1       3.543   6.610  18.213  0.00  0.00    +0.000 A 
ENDROOT
BRANCH   5   7
ATOM      7  N   UNL     1       1.979   7.603  19.740  0.00  0.00    +0.000 N 
ATOM      8  C   UNL     1       1.564   8.790  19.187  0.00  0.00    +0.000 C 
ATOM      9  O   UNL     1       1.416   8.969  17.979  0.00  0.00    +0.000 OA
ATOM     10  N   UNL     1       1.297   9.821  20.089  0.00  0.00    +0.000 N 
ATOM     11  C   UNL     1       1.394   9.785  21.555  0.00  0.00    +0.000 C 
ATOM     12  C   UNL     1       0.024   9.924  22.190  0.00  0.00    +0.000 C 
ATOM     13  S   UNL     1      -0.717  11.460  21.694  0.00  0.00    +0.000 S 
ATOM     14  O   UNL     1      -2.124  11.403  22.033  0.00  0.00    +0.000 OA
ATOM     15  O   UNL     1       0.113  12.545  22.190  0.00  0.00    +0.000 OA
ATOM     16  C   UNL     1      -0.576  11.410  19.924  0.00  0.00    +0.000 C 
ATOM     17  C   UNL     1       0.855  11.109  19.538  0.00  0.00    +0.000 C 
ATOM     18  H   UNL     1       1.832   7.468  20.724  0.00  0.00    +0.000 HD
ENDBRANCH   5   7
BRANCH   1  20
ATOM     19  C   UNL     1       5.069   6.762  15.418  0.00  0.00    +0.000 C 
ATOM     20  C   UNL     1       5.238   5.699  16.510  0.00  0.00    +0.000 C 
BRANCH  20  21
ATOM     21  S   UNL     1       5.714   4.090  15.742  0.00  0.00    +0.000 S 
BRANCH  21  22
ATOM     22  C   UNL     1       6.777   4.622  14.492  0.00  0.00    +0.000 A 
ATOM     23  N   UNL     1       7.790   5.447  14.627  0.00  0.00    +0.000 NA
ATOM     24  N   UNL     1       8.343   5.643  13.380  0.00  0.00    +0.000 NA
ATOM     25  C   UNL     1       7.655   4.916  12.528  0.00  0.00    +0.000 A 
ATOM     26  N   UNL     1       6.666   4.247  13.184  0.00  0.00    +0.000 N 
ATOM     27  C   UNL     1       5.718   3.349  12.585  0.00  0.00    +0.000 C 
ENDBRANCH  21  22
ENDBRANCH  20  21
ENDBRANCH   1  20
TORSDOF 4
ENDMDL
MODEL 4
REMARK VINA RESULT:      -7.5      1.025      1.051
REMARK  Name = 
REMARK  6 active torsions:
REMARK  status: ('A' for Active; 'I' for Inactive)
REMARK    1  A    between atoms: C_1  and  C_2
REMARK    2  A    between atoms: C_2  and  S_3
REMARK    3  A    between atoms: C_2  and  C_10
REMARK    4  A    between atoms: S_3  and  C_4
REMARK    5  A    between atoms: N_8  and  C_9
REMARK    6  A    between atoms: C_14  and  N_15
REMARK                            x       y       z     vdW  Elec       q    Type
REMARK                         _______ _______ _______ _____ _____    ______ ____
ROOT
ATOM      1  C   UNL     1       0.694   9.608  19.458  0.00  0.00    +0.000 A 
ATOM      2  C   UNL     1      -0.027   9.081  20.542  0.00  0.00    +0.000 A 
ATOM      3  C   UNL     1       0.399   7.920  21.186  0.00  0.00    +0.000 A 
ATOM      4  C   UNL     1       1.530   7.240  20.733  0.00  0.00    +0.000 A 
ATOM      5  C   UNL     1       2.227   7.699  19.616  0.00  0.00    +0.000 A 
ATOM      6  C   UNL     1       1.811   8.888  18.998  0.00  0.00    +0.000 A 
ENDROOT
BRANCH   5   7
ATOM      7  N   UNL     1       3.360   7.054  19.068  0.00  0.00    +0.000 N 
ATOM      8  C   UNL     1       3.377   5.897  18.327  0.00  0.00    +0.000 C 
ATOM      9  O   UNL     1       2.365   5.320  17.935  0.00  0.00    +0.000 OA
ATOM     10  N   UNL     1       4.641   5.393  18.018  0.00  0.00    +0.000 N 
ATOM     11  C   UNL     1       5.950   5.954  18.379  0.00  0.00    +0.000 C 
ATOM     12  C   UNL     1       6.693   6.427  17.144  0.00  0.00    +0.000 C 
ATOM     13  S   UNL     1       6.933   5.066  16.028  0.00  0.00    +0.000 S 
ATOM     14  O   UNL     1       7.329   5.610  14.745  0.00  0.00    +0.000 OA
ATOM     15  O   UNL     1       7.762   4.075  16.692  0.00  0.00    +0.000 OA
ATOM     16  C   UNL     1       5.292   4.403  15.860  0.00  0.00    +0.000 C 
ATOM     17  C   UNL     1       4.704   4.153  17.231  0.00  0.00    +0.000 C 
ATOM     18  H   UNL     1       4.209   7.585  19.128  0.00  0.00    +0.000 HD
ENDBRANCH   5   7
BRANCH   1  20
ATOM     19  C   UNL     1       1.361  12.015  18.731  0.00  0.00    +0.000 C 
ATOM     20  C   UNL     1       0.273  10.941  18.849  0.00  0.00    +0.000 C 
BRANCH  20  21
ATOM     21  S   UNL     1      -1.202  11.642  19.707  0.00  0.00    +0.000 S 
BRANCH  21  22
ATOM     22  C   UNL     1      -2.421  11.415  18.508  0.00  0.00    +0.000 A 
ATOM     23  N   UNL     1      -2.263  10.852  17.331  0.00  0.00    +0.000 NA
ATOM     24  N   UNL     1      -3.471  10.915  16.670  0.00  0.00    +0.000 NA
ATOM     25  C   UNL     1      -4.329  11.500  17.475  0.00  0.00    +0.000 A 
ATOM     26  N   UNL     1      -3.717  11.823  18.649  0.00  0.00    +0.000 N 
ATOM     27  C   UNL     1      -4.338  12.466  19.772  0.00  0.00    +0.000 C 
ENDBRANCH  21  22
ENDBRANCH  20  21
ENDBRANCH   1  20
TORSDOF 4
ENDMDL
MODEL 5
REMARK VINA RESULT:      -7.4      3.910      9.326
REMARK  Name = 
REMARK  6 active torsions:
REMARK  status: ('A' for Active; 'I' for Inactive)
REMARK    1  A    between atoms: C_1  and  C_2
REMARK    2  A    between atoms: C_2  and  S_3
REMARK    3  A    between atoms: C_2  and  C_10
REMARK    4  A    between atoms: S_3  and  C_4
REMARK    5  A    between atoms: N_8  and  C_9
REMARK    6  A    between atoms: C_14  and  N_15
REMARK                            x       y       z     vdW  Elec       q    Type
REMARK                         _______ _______ _______ _____ _____    ______ ____
ROOT
ATOM      1  C   UNL     1       3.276   5.315  18.884  0.00  0.00    +0.000 A 
ATOM      2  C   UNL     1       2.723   4.068  19.217  0.00  0.00    +0.000 A 
ATOM      3  C   UNL     1       1.660   3.975  20.115  0.00  0.00    +0.000 A 
ATOM      4  C   UNL     1       1.157   5.122  20.728  0.00  0.00    +0.000 A 
ATOM      5  C   UNL     1       1.730   6.367  20.473  0.00  0.00    +0.000 A 
ATOM      6  C   UNL     1       2.775   6.453  19.540  0.00  0.00    +0.000 A 
ENDROOT
BRANCH   5   7
ATOM      7  N   UNL     1       1.307   7.574  21.076  0.00  0.00    +0.000 N 
ATOM      8  C   UNL     1       1.143   8.792  20.463  0.00  0.00    +0.000 C 
ATOM      9  O   UNL     1       1.232   8.967  19.250  0.00  0.00    +0.000 OA
ATOM     10  N   UNL     1       0.848   9.862  21.309  0.00  0.00    +0.000 N 
ATOM     11  C   UNL     1       0.681   9.840  22.769  0.00  0.00    +0.000 C 
ATOM     12  C   UNL     1      -0.752  10.152  23.154  0.00  0.00    +0.000 C 
ATOM     13  S   UNL     1      -1.203  11.758  22.542  0.00  0.00    +0.000 S 
ATOM     14  O   UNL     1      -2.644  11.875  22.627  0.00  0.00    +0.000 OA
ATOM     15  O   UNL     1      -0.348  12.743  23.182  0.00  0.00    +0.000 OA
ATOM     16  C   UNL     1      -0.760  11.662  20.824  0.00  0.00    +0.000 C 
ATOM     17  C   UNL     1       0.669  11.186  20.695  0.00  0.00    +0.000 C 
ATOM     18  H   UNL     1       0.974   7.474  22.017  0.00  0.00    +0.000 HD
ENDBRANCH   5   7
BRANCH   1  20
ATOM     19  C   UNL     1       4.296   6.606  16.869  0.00  0.00    +0.000 C 
ATOM     20  C   UNL     1       4.358   5.399  17.813  0.00  0.00    +0.000 C 
BRANCH  20  21
ATOM     21  S   UNL     1       4.455   3.843  16.826  0.00  0.00    +0.000 S 
BRANCH  21  22
ATOM     22  C   UNL     1       5.649   4.268  15.655  0.00  0.00    +0.000 A 
ATOM     23  N   UNL     1       5.474   4.349  14.356  0.00  0.00    +0.000 NA
ATOM     24  N   UNL     1       6.687   4.670  13.787  0.00  0.00    +0.000 NA
ATOM     25  C   UNL     1       7.559   4.790  14.764  0.00  0.00    +0.000 A 
ATOM     26  N   UNL     1       6.948   4.556  15.959  0.00  0.00    +0.000 N 
ATOM     27  C   UNL     1       7.579   4.605  17.249  0.00  0.00    +0.000 C 
ENDBRANCH  21  22
ENDBRANCH  20  21
ENDBRANCH   1  20
TORSDOF 4
ENDMDL
MODEL 6
REMARK VINA RESULT:      -7.4      4.466      9.465
REMARK  Name = 
REMARK  6 active torsions:
REMARK  status: ('A' for Active; 'I' for Inactive)
REMARK    1  A    between atoms: C_1  and  C_2
REMARK    2  A    between atoms: C_2  and  S_3
REMARK    3  A    between atoms: C_2  and  C_10
REMARK    4  A    between atoms: S_3  and  C_4
REMARK    5  A    between atoms: N_8  and  C_9
REMARK    6  A    between atoms: C_14  and  N_15
REMARK                            x       y       z     vdW  Elec       q    Type
REMARK                         _______ _______ _______ _____ _____    ______ ____
ROOT
ATOM      1  C   UNL     1       2.200   7.437  19.513  0.00  0.00    +0.000 A 
ATOM      2  C   UNL     1       2.469   7.698  18.159  0.00  0.00    +0.000 A 
ATOM      3  C   UNL     1       2.053   8.888  17.564  0.00  0.00    +0.000 A 
ATOM      4  C   UNL     1       1.323   9.822  18.299  0.00  0.00    +0.000 A 
ATOM      5  C   UNL     1       0.979   9.563  19.625  0.00  0.00    +0.000 A 
ATOM      6  C   UNL     1       1.435   8.378  20.224  0.00  0.00    +0.000 A 
ENDROOT
BRANCH   5   7
ATOM      7  N   UNL     1       0.213  10.435  20.432  0.00  0.00    +0.000 N 
ATOM      8  C   UNL     1      -0.853  11.205  20.037  0.00  0.00    +0.000 C 
ATOM      9  O   UNL     1      -1.369  11.143  18.923  0.00  0.00    +0.000 OA
ATOM     10  N   UNL     1      -1.354  12.087  20.996  0.00  0.00    +0.000 N 
ATOM     11  C   UNL     1      -0.885  12.282  22.376  0.00  0.00    +0.000 C 
ATOM     12  C   UNL     1      -1.935  11.830  23.372  0.00  0.00    +0.000 C 
ATOM     13  S   UNL     1      -3.432  12.758  23.130  0.00  0.00    +0.000 S 
ATOM     14  O   UNL     1      -4.492  12.081  23.848  0.00  0.00    +0.000 OA
ATOM     15  O   UNL     1      -3.145  14.158  23.393  0.00  0.00    +0.000 OA
ATOM     16  C   UNL     1      -3.737  12.564  21.390  0.00  0.00    +0.000 C 
ATOM     17  C   UNL     1      -2.492  12.934  20.614  0.00  0.00    +0.000 C 
ATOM     18  H   UNL     1       0.405  10.368  21.414  0.00  0.00    +0.000 HD
ENDBRANCH   5   7
BRANCH   1  20
ATOM     19  C   UNL     1       4.052   5.611  19.553  0.00  0.00    +0.000 C 
ATOM     20  C   UNL     1       2.769   6.183  20.167  0.00  0.00    +0.000 C 
BRANCH  20  21
ATOM     21  S   UNL     1       1.497   4.853  20.302  0.00  0.00    +0.000 S 
BRANCH  21  22
ATOM     22  C   UNL     1       1.923   3.852  18.963  0.00  0.00    +0.000 A 
ATOM     23  N   UNL     1       1.528   4.003  17.719  0.00  0.00    +0.000 NA
ATOM     24  N   UNL     1       2.056   2.966  16.981  0.00  0.00    +0.000 NA
ATOM     25  C   UNL     1       2.770   2.226  17.800  0.00  0.00    +0.000 A 
ATOM     26  N   UNL     1       2.724   2.751  19.056  0.00  0.00    +0.000 N 
ATOM     27  C   UNL     1       3.389   2.220  20.213  0.00  0.00    +0.000 C 
ENDBRANCH  21  22
ENDBRANCH  20  21
ENDBRANCH   1  20
TORSDOF 4
ENDMDL
MODEL 7
REMARK VINA RESULT:      -7.4      2.170      2.680
REMARK  Name = 
REMARK  6 active torsions:
REMARK  status: ('A' for Active; 'I' for Inactive)
REMARK    1  A    between atoms: C_1  and  C_2
REMARK    2  A    between atoms: C_2  and  S_3
REMARK    3  A    between atoms: C_2  and  C_10
REMARK    4  A    between atoms: S_3  and  C_4
REMARK    5  A    between atoms: N_8  and  C_9
REMARK    6  A    between atoms: C_14  and  N_15
REMARK                            x       y       z     vdW  Elec       q    Type
REMARK                         _______ _______ _______ _____ _____    ______ ____
ROOT
ATOM      1  C   UNL     1       0.341  10.403  20.107  0.00  0.00    +0.000 A 
ATOM      2  C   UNL     1       0.379  10.857  21.436  0.00  0.00    +0.000 A 
ATOM      3  C   UNL     1       0.869  10.042  22.455  0.00  0.00    +0.000 A 
ATOM      4  C   UNL     1       1.290   8.742  22.174  0.00  0.00    +0.000 A 
ATOM      5  C   UNL     1       1.199   8.237  20.878  0.00  0.00    +0.000 A 
ATOM      6  C   UNL     1       0.739   9.079  19.853  0.00  0.00    +0.000 A 
ENDROOT
BRANCH   5   7
ATOM      7  N   UNL     1       1.569   6.923  20.510  0.00  0.00    +0.000 N 
ATOM      8  C   UNL     1       2.448   6.557  19.519  0.00  0.00    +0.000 C 
ATOM      9  O   UNL     1       3.135   7.353  18.883  0.00  0.00    +0.000 OA
ATOM     10  N   UNL     1       2.538   5.188  19.263  0.00  0.00    +0.000 N 
ATOM     11  C   UNL     1       1.818   4.095  19.932  0.00  0.00    +0.000 C 
ATOM     12  C   UNL     1       2.774   3.220  20.719  0.00  0.00    +0.000 C 
ATOM     13  S   UNL     1       3.995   2.530  19.629  0.00  0.00    +0.000 S 
ATOM     14  O   UNL     1       5.065   1.993  20.445  0.00  0.00    +0.000 OA
ATOM     15  O   UNL     1       3.314   1.684  18.663  0.00  0.00    +0.000 OA
ATOM     16  C   UNL     1       4.618   3.962  18.780  0.00  0.00    +0.000 C 
ATOM     17  C   UNL     1       3.463   4.753  18.207  0.00  0.00    +0.000 C 
ATOM     18  H   UNL     1       1.246   6.210  21.137  0.00  0.00    +0.000 HD
ENDBRANCH   5   7
BRANCH   1  20
ATOM     19  C   UNL     1       0.856  12.524  18.692  0.00  0.00    +0.000 C 
ATOM     20  C   UNL     1      -0.089  11.355  18.996  0.00  0.00    +0.000 C 
BRANCH  20  21
ATOM     21  S   UNL     1      -1.798  11.994  19.274  0.00  0.00    +0.000 S 
BRANCH  21  22
ATOM     22  C   UNL     1      -2.577  11.496  17.818  0.00  0.00    +0.000 A 
ATOM     23  N   UNL     1      -1.991  11.036  16.737  0.00  0.00    +0.000 NA
ATOM     24  N   UNL     1      -2.969  10.803  15.795  0.00  0.00    +0.000 NA
ATOM     25  C   UNL     1      -4.123  11.115  16.342  0.00  0.00    +0.000 A 
ATOM     26  N   UNL     1      -3.927  11.546  17.619  0.00  0.00    +0.000 N 
ATOM     27  C   UNL     1      -4.954  11.965  18.531  0.00  0.00    +0.000 C 
ENDBRANCH  21  22
ENDBRANCH  20  21
ENDBRANCH   1  20
TORSDOF 4
ENDMDL
MODEL 8
REMARK VINA RESULT:      -7.4      3.535      4.477
REMARK  Name = 
REMARK  6 active torsions:
REMARK  status: ('A' for Active; 'I' for Inactive)
REMARK    1  A    between atoms: C_1  and  C_2
REMARK    2  A    between atoms: C_2  and  S_3
REMARK    3  A    between atoms: C_2  and  C_10
REMARK    4  A    between atoms: S_3  and  C_4
REMARK    5  A    between atoms: N_8  and  C_9
REMARK    6  A    between atoms: C_14  and  N_15
REMARK                            x       y       z     vdW  Elec       q    Type
REMARK                         _______ _______ _______ _____ _____    ______ ____
ROOT
ATOM      1  C   UNL     1       0.736  10.426  20.567  0.00  0.00    +0.000 A 
ATOM      2  C   UNL     1       1.044  11.338  19.544  0.00  0.00    +0.000 A 
ATOM      3  C   UNL     1       1.590  10.902  18.338  0.00  0.00    +0.000 A 
ATOM      4  C   UNL     1       1.878   9.551  18.146  0.00  0.00    +0.000 A 
ATOM      5  C   UNL     1       1.650   8.630  19.167  0.00  0.00    +0.000 A 
ATOM      6  C   UNL     1       1.066   9.074  20.363  0.00  0.00    +0.000 A 
ENDROOT
BRANCH   5   7
ATOM      7  N   UNL     1       1.945   7.250  19.071  0.00  0.00    +0.000 N 
ATOM      8  C   UNL     1       2.920   6.663  18.303  0.00  0.00    +0.000 C 
ATOM      9  O   UNL     1       3.766   7.292  17.670  0.00  0.00    +0.000 OA
ATOM     10  N   UNL     1       2.918   5.268  18.281  0.00  0.00    +0.000 N 
ATOM     11  C   UNL     1       2.008   4.355  18.987  0.00  0.00    +0.000 C 
ATOM     12  C   UNL     1       2.751   3.561  20.043  0.00  0.00    +0.000 C 
ATOM     13  S   UNL     1       4.049   2.614  19.283  0.00  0.00    +0.000 S 
ATOM     14  O   UNL     1       4.931   2.150  20.333  0.00  0.00    +0.000 OA
ATOM     15  O   UNL     1       3.440   1.668  18.363  0.00  0.00    +0.000 OA
ATOM     16  C   UNL     1       4.921   3.837  18.333  0.00  0.00    +0.000 C 
ATOM     17  C   UNL     1       3.943   4.599  17.467  0.00  0.00    +0.000 C 
ATOM     18  H   UNL     1       1.467   6.676  19.741  0.00  0.00    +0.000 HD
ENDBRANCH   5   7
BRANCH   1  20
ATOM     19  C   UNL     1      -0.381   9.842  22.842  0.00  0.00    +0.000 C 
ATOM     20  C   UNL     1       0.032  10.915  21.827  0.00  0.00    +0.000 C 
BRANCH  20  21
ATOM     21  S   UNL     1      -1.420  11.979  21.423  0.00  0.00    +0.000 S 
BRANCH  21  22
ATOM     22  C   UNL     1      -1.219  13.260  22.561  0.00  0.00    +0.000 A 
ATOM     23  N   UNL     1      -0.197  14.082  22.637  0.00  0.00    +0.000 NA
ATOM     24  N   UNL     1      -0.411  14.919  23.711  0.00  0.00    +0.000 NA
ATOM     25  C   UNL     1      -1.566  14.587  24.243  0.00  0.00    +0.000 A 
ATOM     26  N   UNL     1      -2.117  13.555  23.546  0.00  0.00    +0.000 N 
ATOM     27  C   UNL     1      -3.379  12.929  23.827  0.00  0.00    +0.000 C 
ENDBRANCH  21  22
ENDBRANCH  20  21
ENDBRANCH   1  20
TORSDOF 4
ENDMDL
MODEL 9
REMARK VINA RESULT:      -7.3      3.689      9.022
REMARK  Name = 
REMARK  6 active torsions:
REMARK  status: ('A' for Active; 'I' for Inactive)
REMARK    1  A    between atoms: C_1  and  C_2
REMARK    2  A    between atoms: C_2  and  S_3
REMARK    3  A    between atoms: C_2  and  C_10
REMARK    4  A    between atoms: S_3  and  C_4
REMARK    5  A    between atoms: N_8  and  C_9
REMARK    6  A    between atoms: C_14  and  N_15
REMARK                            x       y       z     vdW  Elec       q    Type
REMARK                         _______ _______ _______ _____ _____    ______ ____
ROOT
ATOM      1  C   UNL     1       4.384   5.099  16.999  0.00  0.00    +0.000 A 
ATOM      2  C   UNL     1       3.875   3.931  17.590  0.00  0.00    +0.000 A 
ATOM      3  C   UNL     1       2.746   3.978  18.406  0.00  0.00    +0.000 A 
ATOM      4  C   UNL     1       2.128   5.199  18.682  0.00  0.00    +0.000 A 
ATOM      5  C   UNL     1       2.651   6.384  18.167  0.00  0.00    +0.000 A 
ATOM      6  C   UNL     1       3.766   6.321  17.318  0.00  0.00    +0.000 A 
ENDROOT
BRANCH   5   7
ATOM      7  N   UNL     1       2.112   7.666  18.423  0.00  0.00    +0.000 N 
ATOM      8  C   UNL     1       1.577   8.118  19.605  0.00  0.00    +0.000 C 
ATOM      9  O   UNL     1       1.606   7.485  20.658  0.00  0.00    +0.000 OA
ATOM     10  N   UNL     1       0.986   9.382  19.559  0.00  0.00    +0.000 N 
ATOM     11  C   UNL     1       0.879  10.288  18.407  0.00  0.00    +0.000 C 
ATOM     12  C   UNL     1       1.707  11.539  18.624  0.00  0.00    +0.000 C 
ATOM     13  S   UNL     1       1.146  12.386  20.083  0.00  0.00    +0.000 S 
ATOM     14  O   UNL     1       2.154  13.362  20.442  0.00  0.00    +0.000 OA
ATOM     15  O   UNL     1      -0.231  12.797  19.867  0.00  0.00    +0.000 OA
ATOM     16  C   UNL     1       1.162  11.102  21.312  0.00  0.00    +0.000 C 
ATOM     17  C   UNL     1       0.396   9.902  20.801  0.00  0.00    +0.000 C 
ATOM     18  H   UNL     1       2.268   8.335  17.692  0.00  0.00    +0.000 HD
ENDBRANCH   5   7
BRANCH   1  20
ATOM     19  C   UNL     1       5.383   4.016  14.855  0.00  0.00    +0.000 C 
ATOM     20  C   UNL     1       5.548   5.002  16.018  0.00  0.00    +0.000 C 
BRANCH  20  21
ATOM     21  S   UNL     1       7.142   4.677  16.888  0.00  0.00    +0.000 S 
BRANCH  21  22
ATOM     22  C   UNL     1       7.553   6.262  17.429  0.00  0.00    +0.000 A 
ATOM     23  N   UNL     1       7.516   7.365  16.716  0.00  0.00    +0.000 NA
ATOM     24  N   UNL     1       7.965   8.396  17.511  0.00  0.00    +0.000 NA
ATOM     25  C   UNL     1       8.246   7.888  18.691  0.00  0.00    +0.000 A 
ATOM     26  N   UNL     1       7.991   6.550  18.690  0.00  0.00    +0.000 N 
ATOM     27  C   UNL     1       8.169   5.659  19.803  0.00  0.00    +0.000 C 
ENDBRANCH  21  22
ENDBRANCH  20  21
ENDBRANCH   1  20
TORSDOF 4
ENDMDL
