MODEL 1
REMARK VINA RESULT:      -8.3      0.000      0.000
REMARK  Name = 
REMARK  10 active torsions:
REMARK  status: ('A' for Active; 'I' for Inactive)
REMARK    1  A    between atoms: C_1  and  C_2
REMARK    2  A    between atoms: C_2  and  S_3
REMARK    3  A    between atoms: C_2  and  C_10
REMARK    4  A    between atoms: S_3  and  C_4
REMARK    5  A    between atoms: N_8  and  C_9
REMARK    6  A    between atoms: C_12  and  N_13
REMARK    7  A    between atoms: N_13  and  C_14
REMARK    8  A    between atoms: C_14  and  C_15
REMARK    9  A    between atoms: C_15  and  O_16
REMARK   10  A    between atoms: C_26  and  C_27
REMARK                            x       y       z     vdW  Elec       q    Type
REMARK                         _______ _______ _______ _____ _____    ______ ____
ROOT
ATOM      1  C   UNL     1      -0.069  10.175  21.122  0.00  0.00    +0.000 A 
ATOM      2  C   UNL     1       0.096  11.231  20.217  0.00  0.00    +0.000 A 
ATOM      3  C   UNL     1       0.790  11.036  19.018  0.00  0.00    +0.000 A 
ATOM      4  N   UNL     1       1.402   9.872  18.732  0.00  0.00    +0.000 NA
ATOM      5  C   UNL     1       1.309   8.853  19.603  0.00  0.00    +0.000 A 
ATOM      6  N   UNL     1       1.983   7.638  19.352  0.00  0.00    +0.000 N 
ATOM      7  C   UNL     1       1.724   6.435  20.119  0.00  0.00    +0.000 C 
ATOM      8  C   UNL     1       2.690   5.444  19.568  0.00  0.00    +0.000 A 
ATOM      9  C   UNL     1       3.462   6.062  18.584  0.00  0.00    +0.000 A 
ATOM     10  C   UNL     1       4.498   5.407  17.945  0.00  0.00    +0.000 A 
ATOM     11  C   UNL     1       4.746   4.082  18.307  0.00  0.00    +0.000 A 
ATOM     12  C   UNL     1       3.954   3.440  19.277  0.00  0.00    +0.000 A 
ATOM     13  C   UNL     1       2.902   4.115  19.926  0.00  0.00    +0.000 A 
ATOM     14  C   UNL     1       2.995   7.452  18.416  0.00  0.00    +0.000 C 
ATOM     15  O   UNL     1       3.499   8.208  17.607  0.00  0.00    +0.000 OA
ATOM     16  C   UNL     1       0.558   8.976  20.772  0.00  0.00    +0.000 A 
ENDROOT
BRANCH  13  17
ATOM     17  C   UNL     1       2.060   3.399  20.951  0.00  0.00    +0.000 C 
ATOM     18  F   UNL     1       2.239   2.047  20.955  0.00  0.00    +0.000 F 
ATOM     19  F   UNL     1       2.327   3.809  22.220  0.00  0.00    +0.000 F 
ATOM     20  F   UNL     1       0.728   3.593  20.763  0.00  0.00    +0.000 F 
ENDBRANCH  13  17
BRANCH   1  22
ATOM     21  C   UNL     1      -0.130   9.676  23.608  0.00  0.00    +0.000 C 
ATOM     22  C   UNL     1      -0.853  10.349  22.436  0.00  0.00    +0.000 C 
BRANCH  22  23
ATOM     23  S   UNL     1      -1.109  12.122  22.902  0.00  0.00    +0.000 S 
BRANCH  23  24
ATOM     24  C   UNL     1      -2.819  12.318  22.923  0.00  0.00    +0.000 A 
ATOM     25  N   UNL     1      -3.643  12.056  23.910  0.00  0.00    +0.000 NA
ATOM     26  N   UNL     1      -4.923  12.334  23.471  0.00  0.00    +0.000 NA
ATOM     27  C   UNL     1      -4.834  12.750  22.227  0.00  0.00    +0.000 A 
ATOM     28  N   UNL     1      -3.527  12.764  21.841  0.00  0.00    +0.000 N 
ATOM     29  C   UNL     1      -3.043  13.174  20.552  0.00  0.00    +0.000 C 
ENDBRANCH  23  24
ENDBRANCH  22  23
ENDBRANCH   1  22
BRANCH   3  30
ATOM     30  N   UNL     1       0.769  12.083  18.076  0.00  0.00    +0.000 N 
ATOM     31  H   UNL     1      -0.194  12.384  17.942  0.00  0.00    +0.000 HD
BRANCH  30  32
ATOM     32  C   UNL     1       1.660  13.222  18.370  0.00  0.00    +0.000 C 
BRANCH  32  33
ATOM     33  C   UNL     1       0.838  14.451  18.791  0.00  0.00    +0.000 C 
BRANCH  33  34
ATOM     34  O   UNL     1      -0.521  14.287  18.366  0.00  0.00    +0.000 OA
ATOM     35  H   UNL     1      -0.995  14.069  19.194  0.00  0.00    +0.000 HD
ENDBRANCH  33  34
ENDBRANCH  32  33
ENDBRANCH  30  32
ENDBRANCH   3  30
TORSDOF 8
ENDMDL
MODEL 2
REMARK VINA RESULT:      -8.1      1.045      1.599
REMARK  Name = 
REMARK  10 active torsions:
REMARK  status: ('A' for Active; 'I' for Inactive)
REMARK    1  A    between atoms: C_1  and  C_2
REMARK    2  A    between atoms: C_2  and  S_3
REMARK    3  A    between atoms: C_2  and  C_10
REMARK    4  A    between atoms: S_3  and  C_4
REMARK    5  A    between atoms: N_8  and  C_9
REMARK    6  A    between atoms: C_12  and  N_13
REMARK    7  A    between atoms: N_13  and  C_14
REMARK    8  A    between atoms: C_14  and  C_15
REMARK    9  A    between atoms: C_15  and  O_16
REMARK   10  A    between atoms: C_26  and  C_27
REMARK                            x       y       z     vdW  Elec       q    Type
REMARK                         _______ _______ _______ _____ _____    ______ ____
ROOT
ATOM      1  C   UNL     1      -0.142  10.129  21.192  0.00  0.00    +0.000 A 
ATOM      2  C   UNL     1      -0.047  11.174  20.265  0.00  0.00    +0.000 A 
ATOM      3  C   UNL     1       0.610  10.983  19.045  0.00  0.00    +0.000 A 
ATOM      4  N   UNL     1       1.254   9.836  18.756  0.00  0.00    +0.000 NA
ATOM      5  C   UNL     1       1.228   8.830  19.647  0.00  0.00    +0.000 A 
ATOM      6  N   UNL     1       1.937   7.636  19.391  0.00  0.00    +0.000 N 
ATOM      7  C   UNL     1       1.749   6.438  20.186  0.00  0.00    +0.000 C 
ATOM      8  C   UNL     1       2.731   5.473  19.617  0.00  0.00    +0.000 A 
ATOM      9  C   UNL     1       3.444   6.101  18.596  0.00  0.00    +0.000 A 
ATOM     10  C   UNL     1       4.480   5.473  17.930  0.00  0.00    +0.000 A 
ATOM     11  C   UNL     1       4.789   4.163  18.304  0.00  0.00    +0.000 A 
ATOM     12  C   UNL     1       4.056   3.511  19.313  0.00  0.00    +0.000 A 
ATOM     13  C   UNL     1       3.004   4.159  19.989  0.00  0.00    +0.000 A 
ATOM     14  C   UNL     1       2.921   7.470  18.421  0.00  0.00    +0.000 C 
ATOM     15  O   UNL     1       3.368   8.229  17.582  0.00  0.00    +0.000 OA
ATOM     16  C   UNL     1       0.516   8.948  20.839  0.00  0.00    +0.000 A 
ENDROOT
BRANCH  13  17
ATOM     17  C   UNL     1       2.226   3.431  21.055  0.00  0.00    +0.000 C 
ATOM     18  F   UNL     1       2.400   3.949  22.305  0.00  0.00    +0.000 F 
ATOM     19  F   UNL     1       0.885   3.459  20.829  0.00  0.00    +0.000 F 
ATOM     20  F   UNL     1       2.567   2.119  21.150  0.00  0.00    +0.000 F 
ENDBRANCH  13  17
BRANCH   1  22
ATOM     21  C   UNL     1      -0.091   9.679  23.688  0.00  0.00    +0.000 C 
ATOM     22  C   UNL     1      -0.884  10.297  22.531  0.00  0.00    +0.000 C 
BRANCH  22  23
ATOM     23  S   UNL     1      -1.195  12.068  22.972  0.00  0.00    +0.000 S 
BRANCH  23  24
ATOM     24  C   UNL     1      -2.732  12.419  22.280  0.00  0.00    +0.000 A 
ATOM     25  N   UNL     1      -3.017  12.591  21.010  0.00  0.00    +0.000 NA
ATOM     26  N   UNL     1      -4.364  12.884  20.921  0.00  0.00    +0.000 NA
ATOM     27  C   UNL     1      -4.851  12.886  22.142  0.00  0.00    +0.000 A 
ATOM     28  N   UNL     1      -3.861  12.592  23.031  0.00  0.00    +0.000 N 
ATOM     29  C   UNL     1      -4.021  12.491  24.455  0.00  0.00    +0.000 C 
ENDBRANCH  23  24
ENDBRANCH  22  23
ENDBRANCH   1  22
BRANCH   3  30
ATOM     30  N   UNL     1       0.517  12.012  18.087  0.00  0.00    +0.000 N 
ATOM     31  H   UNL     1       0.775  11.636  17.177  0.00  0.00    +0.000 HD
BRANCH  30  32
ATOM     32  C   UNL     1      -0.776  12.721  18.038  0.00  0.00    +0.000 C 
BRANCH  32  33
ATOM     33  C   UNL     1      -1.883  11.781  17.532  0.00  0.00    +0.000 C 
BRANCH  33  34
ATOM     34  O   UNL     1      -3.129  12.135  18.145  0.00  0.00    +0.000 OA
ATOM     35  H   UNL     1      -3.526  11.270  18.374  0.00  0.00    +0.000 HD
ENDBRANCH  33  34
ENDBRANCH  32  33
ENDBRANCH  30  32
ENDBRANCH   3  30
TORSDOF 8
ENDMDL
MODEL 3
REMARK VINA RESULT:      -8.1      0.949      1.240
REMARK  Name = 
REMARK  10 active torsions:
REMARK  status: ('A' for Active; 'I' for Inactive)
REMARK    1  A    between atoms: C_1  and  C_2
REMARK    2  A    between atoms: C_2  and  S_3
REMARK    3  A    between atoms: C_2  and  C_10
REMARK    4  A    between atoms: S_3  and  C_4
REMARK    5  A    between atoms: N_8  and  C_9
REMARK    6  A    between atoms: C_12  and  N_13
REMARK    7  A    between atoms: N_13  and  C_14
REMARK    8  A    between atoms: C_14  and  C_15
REMARK    9  A    between atoms: C_15  and  O_16
REMARK   10  A    between atoms: C_26  and  C_27
REMARK                            x       y       z     vdW  Elec       q    Type
REMARK                         _______ _______ _______ _____ _____    ______ ____
ROOT
ATOM      1  C   UNL     1      -0.185  10.270  21.186  0.00  0.00    +0.000 A 
ATOM      2  C   UNL     1      -0.070  11.325  20.272  0.00  0.00    +0.000 A 
ATOM      3  C   UNL     1       0.598  11.142  19.056  0.00  0.00    +0.000 A 
ATOM      4  N   UNL     1       1.232   9.992  18.760  0.00  0.00    +0.000 NA
ATOM      5  C   UNL     1       1.187   8.976  19.638  0.00  0.00    +0.000 A 
ATOM      6  N   UNL     1       1.886   7.777  19.375  0.00  0.00    +0.000 N 
ATOM      7  C   UNL     1       1.677   6.572  20.153  0.00  0.00    +0.000 C 
ATOM      8  C   UNL     1       2.654   5.603  19.582  0.00  0.00    +0.000 A 
ATOM      9  C   UNL     1       3.384   6.236  18.576  0.00  0.00    +0.000 A 
ATOM     10  C   UNL     1       4.420   5.605  17.913  0.00  0.00    +0.000 A 
ATOM     11  C   UNL     1       4.712   4.288  18.274  0.00  0.00    +0.000 A 
ATOM     12  C   UNL     1       3.961   3.631  19.267  0.00  0.00    +0.000 A 
ATOM     13  C   UNL     1       2.910   4.282  19.940  0.00  0.00    +0.000 A 
ATOM     14  C   UNL     1       2.878   7.613  18.413  0.00  0.00    +0.000 C 
ATOM     15  O   UNL     1       3.341   8.377  17.588  0.00  0.00    +0.000 OA
ATOM     16  C   UNL     1       0.463   9.086  20.825  0.00  0.00    +0.000 A 
ENDROOT
BRANCH  13  17
ATOM     17  C   UNL     1       2.113   3.550  20.990  0.00  0.00    +0.000 C 
ATOM     18  F   UNL     1       0.764   3.696  20.851  0.00  0.00    +0.000 F 
ATOM     19  F   UNL     1       2.342   2.209  20.974  0.00  0.00    +0.000 F 
ATOM     20  F   UNL     1       2.400   3.967  22.252  0.00  0.00    +0.000 F 
ENDBRANCH  13  17
BRANCH   1  22
ATOM     21  C   UNL     1      -0.185   9.753  23.669  0.00  0.00    +0.000 C 
ATOM     22  C   UNL     1      -0.939  10.430  22.519  0.00  0.00    +0.000 C 
BRANCH  22  23
ATOM     23  S   UNL     1      -1.192  12.198  23.003  0.00  0.00    +0.000 S 
BRANCH  23  24
ATOM     24  C   UNL     1      -2.902  12.386  23.063  0.00  0.00    +0.000 A 
ATOM     25  N   UNL     1      -3.723  11.957  23.993  0.00  0.00    +0.000 NA
ATOM     26  N   UNL     1      -5.005  12.305  23.613  0.00  0.00    +0.000 NA
ATOM     27  C   UNL     1      -4.919  12.931  22.459  0.00  0.00    +0.000 A 
ATOM     28  N   UNL     1      -3.614  13.012  22.077  0.00  0.00    +0.000 N 
ATOM     29  C   UNL     1      -3.134  13.640  20.878  0.00  0.00    +0.000 C 
ENDBRANCH  23  24
ENDBRANCH  22  23
ENDBRANCH   1  22
BRANCH   3  30
ATOM     30  N   UNL     1       0.525  12.184  18.110  0.00  0.00    +0.000 N 
ATOM     31  H   UNL     1       0.931  11.860  17.236  0.00  0.00    +0.000 HD
BRANCH  30  32
ATOM     32  C   UNL     1      -0.815  12.767  17.907  0.00  0.00    +0.000 C 
BRANCH  32  33
ATOM     33  C   UNL     1      -1.789  11.700  17.381  0.00  0.00    +0.000 C 
BRANCH  33  34
ATOM     34  O   UNL     1      -3.132  12.067  17.721  0.00  0.00    +0.000 OA
ATOM     35  H   UNL     1      -3.103  13.044  17.745  0.00  0.00    +0.000 HD
ENDBRANCH  33  34
ENDBRANCH  32  33
ENDBRANCH  30  32
ENDBRANCH   3  30
TORSDOF 8
ENDMDL
MODEL 4
REMARK VINA RESULT:      -8.0      3.501      4.768
REMARK  Name = 
REMARK  10 active torsions:
REMARK  status: ('A' for Active; 'I' for Inactive)
REMARK    1  A    between atoms: C_1  and  C_2
REMARK    2  A    between atoms: C_2  and  S_3
REMARK    3  A    between atoms: C_2  and  C_10
REMARK    4  A    between atoms: S_3  and  C_4
REMARK    5  A    between atoms: N_8  and  C_9
REMARK    6  A    between atoms: C_12  and  N_13
REMARK    7  A    between atoms: N_13  and  C_14
REMARK    8  A    between atoms: C_14  and  C_15
REMARK    9  A    between atoms: C_15  and  O_16
REMARK   10  A    between atoms: C_26  and  C_27
REMARK                            x       y       z     vdW  Elec       q    Type
REMARK                         _______ _______ _______ _____ _____    ______ ____
ROOT
ATOM      1  C   UNL     1       0.809  10.439  19.271  0.00  0.00    +0.000 A 
ATOM      2  C   UNL     1       0.045  10.252  20.430  0.00  0.00    +0.000 A 
ATOM      3  C   UNL     1       0.139   9.060  21.156  0.00  0.00    +0.000 A 
ATOM      4  N   UNL     1       0.881   8.022  20.727  0.00  0.00    +0.000 NA
ATOM      5  C   UNL     1       1.585   8.148  19.589  0.00  0.00    +0.000 A 
ATOM      6  N   UNL     1       2.330   7.058  19.089  0.00  0.00    +0.000 N 
ATOM      7  C   UNL     1       3.295   7.205  18.017  0.00  0.00    +0.000 C 
ATOM      8  C   UNL     1       3.776   5.816  17.774  0.00  0.00    +0.000 A 
ATOM      9  C   UNL     1       3.100   4.947  18.629  0.00  0.00    +0.000 A 
ATOM     10  C   UNL     1       3.284   3.578  18.580  0.00  0.00    +0.000 A 
ATOM     11  C   UNL     1       4.193   3.081  17.644  0.00  0.00    +0.000 A 
ATOM     12  C   UNL     1       4.903   3.953  16.797  0.00  0.00    +0.000 A 
ATOM     13  C   UNL     1       4.707   5.346  16.851  0.00  0.00    +0.000 A 
ATOM     14  C   UNL     1       2.200   5.734  19.496  0.00  0.00    +0.000 C 
ATOM     15  O   UNL     1       1.500   5.211  20.342  0.00  0.00    +0.000 OA
ATOM     16  C   UNL     1       1.586   9.347  18.877  0.00  0.00    +0.000 A 
ENDROOT
BRANCH  13  17
ATOM     17  C   UNL     1       5.491   6.258  15.942  0.00  0.00    +0.000 C 
ATOM     18  F   UNL     1       6.314   7.117  16.610  0.00  0.00    +0.000 F 
ATOM     19  F   UNL     1       6.293   5.571  15.085  0.00  0.00    +0.000 F 
ATOM     20  F   UNL     1       4.692   7.041  15.169  0.00  0.00    +0.000 F 
ENDBRANCH  13  17
BRANCH   1  22
ATOM     21  C   UNL     1      -0.519  12.545  18.785  0.00  0.00    +0.000 C 
ATOM     22  C   UNL     1       0.752  11.750  18.466  0.00  0.00    +0.000 C 
BRANCH  22  23
ATOM     23  S   UNL     1       2.188  12.870  18.797  0.00  0.00    +0.000 S 
BRANCH  23  24
ATOM     24  C   UNL     1       1.728  13.756  20.199  0.00  0.00    +0.000 A 
ATOM     25  N   UNL     1       1.619  13.310  21.428  0.00  0.00    +0.000 NA
ATOM     26  N   UNL     1       1.193  14.360  22.218  0.00  0.00    +0.000 NA
ATOM     27  C   UNL     1       1.050  15.409  21.439  0.00  0.00    +0.000 A 
ATOM     28  N   UNL     1       1.383  15.079  20.160  0.00  0.00    +0.000 N 
ATOM     29  C   UNL     1       1.363  15.973  19.036  0.00  0.00    +0.000 C 
ENDBRANCH  23  24
ENDBRANCH  22  23
ENDBRANCH   1  22
BRANCH   3  30
ATOM     30  N   UNL     1      -0.517   9.003  22.402  0.00  0.00    +0.000 N 
ATOM     31  H   UNL     1      -0.267   8.132  22.864  0.00  0.00    +0.000 HD
BRANCH  30  32
ATOM     32  C   UNL     1      -0.309  10.168  23.284  0.00  0.00    +0.000 C 
BRANCH  32  33
ATOM     33  C   UNL     1      -1.434  11.198  23.083  0.00  0.00    +0.000 C 
BRANCH  33  34
ATOM     34  O   UNL     1      -0.888  12.521  23.138  0.00  0.00    +0.000 OA
ATOM     35  H   UNL     1      -1.385  13.004  22.447  0.00  0.00    +0.000 HD
ENDBRANCH  33  34
ENDBRANCH  32  33
ENDBRANCH  30  32
ENDBRANCH   3  30
TORSDOF 8
ENDMDL
MODEL 5
REMARK VINA RESULT:      -8.0      0.867      1.448
REMARK  Name = 
REMARK  10 active torsions:
REMARK  status: ('A' for Active; 'I' for Inactive)
REMARK    1  A    between atoms: C_1  and  C_2
REMARK    2  A    between atoms: C_2  and  S_3
REMARK    3  A    between atoms: C_2  and  C_10
REMARK    4  A    between atoms: S_3  and  C_4
REMARK    5  A    between atoms: N_8  and  C_9
REMARK    6  A    between atoms: C_12  and  N_13
REMARK    7  A    between atoms: N_13  and  C_14
REMARK    8  A    between atoms: C_14  and  C_15
REMARK    9  A    between atoms: C_15  and  O_16
REMARK   10  A    between atoms: C_26  and  C_27
REMARK                            x       y       z     vdW  Elec       q    Type
REMARK                         _______ _______ _______ _____ _____    ______ ____
ROOT
ATOM      1  C   UNL     1      -0.040  10.159  21.097  0.00  0.00    +0.000 A 
ATOM      2  C   UNL     1       0.139  11.214  20.193  0.00  0.00    +0.000 A 
ATOM      3  C   UNL     1       0.845  11.015  19.001  0.00  0.00    +0.000 A 
ATOM      4  N   UNL     1       1.456   9.849  18.722  0.00  0.00    +0.000 NA
ATOM      5  C   UNL     1       1.349   8.831  19.593  0.00  0.00    +0.000 A 
ATOM      6  N   UNL     1       2.022   7.613  19.350  0.00  0.00    +0.000 N 
ATOM      7  C   UNL     1       1.750   6.411  20.115  0.00  0.00    +0.000 C 
ATOM      8  C   UNL     1       2.719   5.416  19.574  0.00  0.00    +0.000 A 
ATOM      9  C   UNL     1       3.503   6.031  18.598  0.00  0.00    +0.000 A 
ATOM     10  C   UNL     1       4.543   5.372  17.971  0.00  0.00    +0.000 A 
ATOM     11  C   UNL     1       4.783   4.046  18.335  0.00  0.00    +0.000 A 
ATOM     12  C   UNL     1       3.978   3.408  19.298  0.00  0.00    +0.000 A 
ATOM     13  C   UNL     1       2.922   4.087  19.935  0.00  0.00    +0.000 A 
ATOM     14  C   UNL     1       3.043   7.423  18.424  0.00  0.00    +0.000 C 
ATOM     15  O   UNL     1       3.558   8.176  17.620  0.00  0.00    +0.000 OA
ATOM     16  C   UNL     1       0.587   8.958  20.754  0.00  0.00    +0.000 A 
ENDROOT
BRANCH  13  17
ATOM     17  C   UNL     1       2.067   3.375  20.952  0.00  0.00    +0.000 C 
ATOM     18  F   UNL     1       0.729   3.497  20.720  0.00  0.00    +0.000 F 
ATOM     19  F   UNL     1       2.313   2.038  20.992  0.00  0.00    +0.000 F 
ATOM     20  F   UNL     1       2.264   3.833  22.217  0.00  0.00    +0.000 F 
ENDBRANCH  13  17
BRANCH   1  22
ATOM     21  C   UNL     1      -0.104   9.705  23.591  0.00  0.00    +0.000 C 
ATOM     22  C   UNL     1      -0.837  10.336  22.402  0.00  0.00    +0.000 C 
BRANCH  22  23
ATOM     23  S   UNL     1      -1.142  12.110  22.833  0.00  0.00    +0.000 S 
BRANCH  23  24
ATOM     24  C   UNL     1      -2.693  12.452  22.171  0.00  0.00    +0.000 A 
ATOM     25  N   UNL     1      -3.002  12.641  20.910  0.00  0.00    +0.000 NA
ATOM     26  N   UNL     1      -4.354  12.917  20.847  0.00  0.00    +0.000 NA
ATOM     27  C   UNL     1      -4.821  12.893  22.076  0.00  0.00    +0.000 A 
ATOM     28  N   UNL     1      -3.813  12.597  22.943  0.00  0.00    +0.000 N 
ATOM     29  C   UNL     1      -3.948  12.471  24.368  0.00  0.00    +0.000 C 
ENDBRANCH  23  24
ENDBRANCH  22  23
ENDBRANCH   1  22
BRANCH   3  30
ATOM     30  N   UNL     1       0.837  12.062  18.058  0.00  0.00    +0.000 N 
ATOM     31  H   UNL     1      -0.097  12.140  17.664  0.00  0.00    +0.000 HD
BRANCH  30  32
ATOM     32  C   UNL     1       1.335  13.362  18.546  0.00  0.00    +0.000 C 
BRANCH  32  33
ATOM     33  C   UNL     1       2.867  13.425  18.437  0.00  0.00    +0.000 C 
BRANCH  33  34
ATOM     34  O   UNL     1       3.239  14.423  17.478  0.00  0.00    +0.000 OA
ATOM     35  H   UNL     1       3.306  15.240  18.012  0.00  0.00    +0.000 HD
ENDBRANCH  33  34
ENDBRANCH  32  33
ENDBRANCH  30  32
ENDBRANCH   3  30
TORSDOF 8
ENDMDL
MODEL 6
REMARK VINA RESULT:      -7.9      5.267      9.444
REMARK  Name = 
REMARK  10 active torsions:
REMARK  status: ('A' for Active; 'I' for Inactive)
REMARK    1  A    between atoms: C_1  and  C_2
REMARK    2  A    between atoms: C_2  and  S_3
REMARK    3  A    between atoms: C_2  and  C_10
REMARK    4  A    between atoms: S_3  and  C_4
REMARK    5  A    between atoms: N_8  and  C_9
REMARK    6  A    between atoms: C_12  and  N_13
REMARK    7  A    between atoms: N_13  and  C_14
REMARK    8  A    between atoms: C_14  and  C_15
REMARK    9  A    between atoms: C_15  and  O_16
REMARK   10  A    between atoms: C_26  and  C_27
REMARK                            x       y       z     vdW  Elec       q    Type
REMARK                         _______ _______ _______ _____ _____    ______ ____
ROOT
ATOM      1  C   UNL     1       4.418   4.993  16.763  0.00  0.00    +0.000 A 
ATOM      2  C   UNL     1       4.335   3.703  17.303  0.00  0.00    +0.000 A 
ATOM      3  C   UNL     1       3.506   3.444  18.400  0.00  0.00    +0.000 A 
ATOM      4  N   UNL     1       2.839   4.427  19.035  0.00  0.00    +0.000 NA
ATOM      5  C   UNL     1       2.938   5.686  18.575  0.00  0.00    +0.000 A 
ATOM      6  N   UNL     1       2.290   6.743  19.252  0.00  0.00    +0.000 N 
ATOM      7  C   UNL     1       2.156   8.066  18.674  0.00  0.00    +0.000 C 
ATOM      8  C   UNL     1       1.486   8.857  19.744  0.00  0.00    +0.000 A 
ATOM      9  C   UNL     1       1.291   8.041  20.857  0.00  0.00    +0.000 A 
ATOM     10  C   UNL     1       0.756   8.523  22.036  0.00  0.00    +0.000 A 
ATOM     11  C   UNL     1       0.395   9.871  22.080  0.00  0.00    +0.000 A 
ATOM     12  C   UNL     1       0.560  10.697  20.951  0.00  0.00    +0.000 A 
ATOM     13  C   UNL     1       1.109  10.198  19.754  0.00  0.00    +0.000 A 
ATOM     14  C   UNL     1       1.770   6.681  20.541  0.00  0.00    +0.000 C 
ATOM     15  O   UNL     1       1.703   5.770  21.345  0.00  0.00    +0.000 OA
ATOM     16  C   UNL     1       3.687   5.976  17.435  0.00  0.00    +0.000 A 
ENDROOT
BRANCH  13  17
ATOM     17  C   UNL     1       1.262  11.101  18.557  0.00  0.00    +0.000 C 
ATOM     18  F   UNL     1       0.483  10.737  17.497  0.00  0.00    +0.000 F 
ATOM     19  F   UNL     1       0.929  12.390  18.833  0.00  0.00    +0.000 F 
ATOM     20  F   UNL     1       2.536  11.132  18.082  0.00  0.00    +0.000 F 
ENDBRANCH  13  17
BRANCH   1  22
ATOM     21  C   UNL     1       5.212   6.786  15.155  0.00  0.00    +0.000 C 
ATOM     22  C   UNL     1       5.296   5.304  15.538  0.00  0.00    +0.000 C 
BRANCH  22  23
ATOM     23  S   UNL     1       7.086   4.916  15.809  0.00  0.00    +0.000 S 
BRANCH  23  24
ATOM     24  C   UNL     1       7.354   5.261  17.473  0.00  0.00    +0.000 A 
ATOM     25  N   UNL     1       7.373   4.412  18.474  0.00  0.00    +0.000 NA
ATOM     26  N   UNL     1       7.591   5.135  19.631  0.00  0.00    +0.000 NA
ATOM     27  C   UNL     1       7.690   6.402  19.294  0.00  0.00    +0.000 A 
ATOM     28  N   UNL     1       7.555   6.529  17.944  0.00  0.00    +0.000 N 
ATOM     29  C   UNL     1       7.621   7.763  17.212  0.00  0.00    +0.000 C 
ENDBRANCH  23  24
ENDBRANCH  22  23
ENDBRANCH   1  22
BRANCH   3  30
ATOM     30  N   UNL     1       3.332   2.100  18.782  0.00  0.00    +0.000 N 
ATOM     31  H   UNL     1       4.054   1.855  19.456  0.00  0.00    +0.000 HD
BRANCH  30  32
ATOM     32  C   UNL     1       1.986   1.747  19.272  0.00  0.00    +0.000 C 
BRANCH  32  33
ATOM     33  C   UNL     1       1.789   2.255  20.710  0.00  0.00    +0.000 C 
BRANCH  33  34
ATOM     34  O   UNL     1       0.636   3.103  20.765  0.00  0.00    +0.000 OA
ATOM     35  H   UNL     1       0.084   2.695  21.462  0.00  0.00    +0.000 HD
ENDBRANCH  33  34
ENDBRANCH  32  33
ENDBRANCH  30  32
ENDBRANCH   3  30
TORSDOF 8
ENDMDL
MODEL 7
REMARK VINA RESULT:      -7.9      1.499      1.744
REMARK  Name = 
REMARK  10 active torsions:
REMARK  status: ('A' for Active; 'I' for Inactive)
REMARK    1  A    between atoms: C_1  and  C_2
REMARK    2  A    between atoms: C_2  and  S_3
REMARK    3  A    between atoms: C_2  and  C_10
REMARK    4  A    between atoms: S_3  and  C_4
REMARK    5  A    between atoms: N_8  and  C_9
REMARK    6  A    between atoms: C_12  and  N_13
REMARK    7  A    between atoms: N_13  and  C_14
REMARK    8  A    between atoms: C_14  and  C_15
REMARK    9  A    between atoms: C_15  and  O_16
REMARK   10  A    between atoms: C_26  and  C_27
REMARK                            x       y       z     vdW  Elec       q    Type
REMARK                         _______ _______ _______ _____ _____    ______ ____
ROOT
ATOM      1  C   UNL     1       0.626   9.903  19.977  0.00  0.00    +0.000 A 
ATOM      2  C   UNL     1       1.176  10.994  19.292  0.00  0.00    +0.000 A 
ATOM      3  C   UNL     1       2.056  10.792  18.224  0.00  0.00    +0.000 A 
ATOM      4  N   UNL     1       2.481   9.563  17.875  0.00  0.00    +0.000 NA
ATOM      5  C   UNL     1       2.014   8.496  18.546  0.00  0.00    +0.000 A 
ATOM      6  N   UNL     1       2.482   7.200  18.235  0.00  0.00    +0.000 N 
ATOM      7  C   UNL     1       1.843   6.002  18.745  0.00  0.00    +0.000 C 
ATOM      8  C   UNL     1       2.696   4.895  18.231  0.00  0.00    +0.000 A 
ATOM      9  C   UNL     1       3.760   5.439  17.512  0.00  0.00    +0.000 A 
ATOM     10  C   UNL     1       4.763   4.652  16.978  0.00  0.00    +0.000 A 
ATOM     11  C   UNL     1       4.673   3.272  17.167  0.00  0.00    +0.000 A 
ATOM     12  C   UNL     1       3.587   2.710  17.866  0.00  0.00    +0.000 A 
ATOM     13  C   UNL     1       2.571   3.519  18.410  0.00  0.00    +0.000 A 
ATOM     14  C   UNL     1       3.613   6.907  17.480  0.00  0.00    +0.000 C 
ATOM     15  O   UNL     1       4.410   7.622  16.904  0.00  0.00    +0.000 OA
ATOM     16  C   UNL     1       1.072   8.645  19.563  0.00  0.00    +0.000 A 
ENDROOT
BRANCH  13  17
ATOM     17  C   UNL     1       1.412   2.891  19.141  0.00  0.00    +0.000 C 
ATOM     18  F   UNL     1       0.264   2.847  18.406  0.00  0.00    +0.000 F 
ATOM     19  F   UNL     1       1.664   1.605  19.506  0.00  0.00    +0.000 F 
ATOM     20  F   UNL     1       1.092   3.553  20.284  0.00  0.00    +0.000 F 
ENDBRANCH  13  17
BRANCH   1  22
ATOM     21  C   UNL     1      -0.075   9.118  22.284  0.00  0.00    +0.000 C 
ATOM     22  C   UNL     1      -0.368  10.091  21.137  0.00  0.00    +0.000 C 
BRANCH  22  23
ATOM     23  S   UNL     1      -0.337  11.798  21.852  0.00  0.00    +0.000 S 
BRANCH  23  24
ATOM     24  C   UNL     1      -1.967  12.098  22.319  0.00  0.00    +0.000 A 
ATOM     25  N   UNL     1      -2.521  11.866  23.485  0.00  0.00    +0.000 NA
ATOM     26  N   UNL     1      -3.851  12.231  23.396  0.00  0.00    +0.000 NA
ATOM     27  C   UNL     1      -4.060  12.668  22.174  0.00  0.00    +0.000 A 
ATOM     28  N   UNL     1      -2.901  12.610  21.461  0.00  0.00    +0.000 N 
ATOM     29  C   UNL     1      -2.741  13.018  20.093  0.00  0.00    +0.000 C 
ENDBRANCH  23  24
ENDBRANCH  22  23
ENDBRANCH   1  22
BRANCH   3  30
ATOM     30  N   UNL     1       2.433  11.920  17.468  0.00  0.00    +0.000 N 
ATOM     31  H   UNL     1       2.016  11.848  16.543  0.00  0.00    +0.000 HD
BRANCH  30  32
ATOM     32  C   UNL     1       2.154  13.227  18.094  0.00  0.00    +0.000 C 
BRANCH  32  33
ATOM     33  C   UNL     1       3.459  14.017  18.285  0.00  0.00    +0.000 C 
BRANCH  33  34
ATOM     34  O   UNL     1       3.624  14.940  17.202  0.00  0.00    +0.000 OA
ATOM     35  H   UNL     1       3.412  15.807  17.604  0.00  0.00    +0.000 HD
ENDBRANCH  33  34
ENDBRANCH  32  33
ENDBRANCH  30  32
ENDBRANCH   3  30
TORSDOF 8
ENDMDL
MODEL 8
REMARK VINA RESULT:      -7.8      5.165     10.227
REMARK  Name = 
REMARK  10 active torsions:
REMARK  status: ('A' for Active; 'I' for Inactive)
REMARK    1  A    between atoms: C_1  and  C_2
REMARK    2  A    between atoms: C_2  and  S_3
REMARK    3  A    between atoms: C_2  and  C_10
REMARK    4  A    between atoms: S_3  and  C_4
REMARK    5  A    between atoms: N_8  and  C_9
REMARK    6  A    between atoms: C_12  and  N_13
REMARK    7  A    between atoms: N_13  and  C_14
REMARK    8  A    between atoms: C_14  and  C_15
REMARK    9  A    between atoms: C_15  and  O_16
REMARK   10  A    between atoms: C_26  and  C_27
REMARK                            x       y       z     vdW  Elec       q    Type
REMARK                         _______ _______ _______ _____ _____    ______ ____
ROOT
ATOM      1  C   UNL     1       4.286   5.820  17.437  0.00  0.00    +0.000 A 
ATOM      2  C   UNL     1       3.848   4.583  17.926  0.00  0.00    +0.000 A 
ATOM      3  C   UNL     1       2.744   4.509  18.783  0.00  0.00    +0.000 A 
ATOM      4  N   UNL     1       2.126   5.613  19.244  0.00  0.00    +0.000 NA
ATOM      5  C   UNL     1       2.555   6.820  18.836  0.00  0.00    +0.000 A 
ATOM      6  N   UNL     1       1.958   7.996  19.343  0.00  0.00    +0.000 N 
ATOM      7  C   UNL     1       2.205   9.302  18.764  0.00  0.00    +0.000 C 
ATOM      8  C   UNL     1       1.444  10.233  19.643  0.00  0.00    +0.000 A 
ATOM      9  C   UNL     1       0.842   9.500  20.666  0.00  0.00    +0.000 A 
ATOM     10  C   UNL     1       0.129  10.108  21.682  0.00  0.00    +0.000 A 
ATOM     11  C   UNL     1       0.012  11.498  21.649  0.00  0.00    +0.000 A 
ATOM     12  C   UNL     1       0.591  12.245  20.604  0.00  0.00    +0.000 A 
ATOM     13  C   UNL     1       1.319  11.618  19.575  0.00  0.00    +0.000 A 
ATOM     14  C   UNL     1       1.136   8.068  20.463  0.00  0.00    +0.000 C 
ATOM     15  O   UNL     1       0.716   7.211  21.216  0.00  0.00    +0.000 OA
ATOM     16  C   UNL     1       3.598   6.937  17.918  0.00  0.00    +0.000 A 
ENDROOT
BRANCH  13  17
ATOM     17  C   UNL     1       1.917  12.440  18.461  0.00  0.00    +0.000 C 
ATOM     18  F   UNL     1       2.956  13.227  18.861  0.00  0.00    +0.000 F 
ATOM     19  F   UNL     1       2.406  11.669  17.453  0.00  0.00    +0.000 F 
ATOM     20  F   UNL     1       1.016  13.283  17.890  0.00  0.00    +0.000 F 
ENDBRANCH  13  17
BRANCH   1  22
ATOM     21  C   UNL     1       6.730   6.451  17.186  0.00  0.00    +0.000 C 
ATOM     22  C   UNL     1       5.478   5.933  16.469  0.00  0.00    +0.000 C 
BRANCH  22  23
ATOM     23  S   UNL     1       5.932   4.320  15.684  0.00  0.00    +0.000 S 
BRANCH  23  24
ATOM     24  C   UNL     1       6.909   4.758  14.336  0.00  0.00    +0.000 A 
ATOM     25  N   UNL     1       7.943   5.567  14.326  0.00  0.00    +0.000 NA
ATOM     26  N   UNL     1       8.397   5.648  13.024  0.00  0.00    +0.000 NA
ATOM     27  C   UNL     1       7.619   4.888  12.285  0.00  0.00    +0.000 A 
ATOM     28  N   UNL     1       6.672   4.302  13.069  0.00  0.00    +0.000 N 
ATOM     29  C   UNL     1       5.656   3.394  12.613  0.00  0.00    +0.000 C 
ENDBRANCH  23  24
ENDBRANCH  22  23
ENDBRANCH   1  22
BRANCH   3  30
ATOM     30  N   UNL     1       2.247   3.229  19.096  0.00  0.00    +0.000 N 
ATOM     31  H   UNL     1       3.023   2.641  19.392  0.00  0.00    +0.000 HD
BRANCH  30  32
ATOM     32  C   UNL     1       1.137   3.197  20.067  0.00  0.00    +0.000 C 
BRANCH  32  33
ATOM     33  C   UNL     1       1.588   2.527  21.375  0.00  0.00    +0.000 C 
BRANCH  33  34
ATOM     34  O   UNL     1       2.259   3.488  22.199  0.00  0.00    +0.000 OA
ATOM     35  H   UNL     1       2.773   2.937  22.823  0.00  0.00    +0.000 HD
ENDBRANCH  33  34
ENDBRANCH  32  33
ENDBRANCH  30  32
ENDBRANCH   3  30
TORSDOF 8
ENDMDL
MODEL 9
REMARK VINA RESULT:      -7.7      5.279      9.595
REMARK  Name = 
REMARK  10 active torsions:
REMARK  status: ('A' for Active; 'I' for Inactive)
REMARK    1  A    between atoms: C_1  and  C_2
REMARK    2  A    between atoms: C_2  and  S_3
REMARK    3  A    between atoms: C_2  and  C_10
REMARK    4  A    between atoms: S_3  and  C_4
REMARK    5  A    between atoms: N_8  and  C_9
REMARK    6  A    between atoms: C_12  and  N_13
REMARK    7  A    between atoms: N_13  and  C_14
REMARK    8  A    between atoms: C_14  and  C_15
REMARK    9  A    between atoms: C_15  and  O_16
REMARK   10  A    between atoms: C_26  and  C_27
REMARK                            x       y       z     vdW  Elec       q    Type
REMARK                         _______ _______ _______ _____ _____    ______ ____
ROOT
ATOM      1  C   UNL     1       4.406   4.932  16.695  0.00  0.00    +0.000 A 
ATOM      2  C   UNL     1       4.242   3.623  17.167  0.00  0.00    +0.000 A 
ATOM      3  C   UNL     1       3.361   3.353  18.219  0.00  0.00    +0.000 A 
ATOM      4  N   UNL     1       2.716   4.334  18.877  0.00  0.00    +0.000 NA
ATOM      5  C   UNL     1       2.891   5.608  18.485  0.00  0.00    +0.000 A 
ATOM      6  N   UNL     1       2.268   6.661  19.190  0.00  0.00    +0.000 N 
ATOM      7  C   UNL     1       2.217   8.016  18.674  0.00  0.00    +0.000 C 
ATOM      8  C   UNL     1       1.544   8.786  19.757  0.00  0.00    +0.000 A 
ATOM      9  C   UNL     1       1.268   7.927  20.821  0.00  0.00    +0.000 A 
ATOM     10  C   UNL     1       0.711   8.377  22.003  0.00  0.00    +0.000 A 
ATOM     11  C   UNL     1       0.412   9.737  22.100  0.00  0.00    +0.000 A 
ATOM     12  C   UNL     1       0.659  10.608  21.020  0.00  0.00    +0.000 A 
ATOM     13  C   UNL     1       1.230  10.141  19.821  0.00  0.00    +0.000 A 
ATOM     14  C   UNL     1       1.695   6.562  20.454  0.00  0.00    +0.000 C 
ATOM     15  O   UNL     1       1.556   5.619  21.209  0.00  0.00    +0.000 OA
ATOM     16  C   UNL     1       3.696   5.916  17.388  0.00  0.00    +0.000 A 
ENDROOT
BRANCH  13  17
ATOM     17  C   UNL     1       1.470  11.092  18.676  0.00  0.00    +0.000 C 
ATOM     18  F   UNL     1       2.166  12.210  19.033  0.00  0.00    +0.000 F 
ATOM     19  F   UNL     1       2.183  10.521  17.668  0.00  0.00    +0.000 F 
ATOM     20  F   UNL     1       0.315  11.541  18.116  0.00  0.00    +0.000 F 
ENDBRANCH  13  17
BRANCH   1  22
ATOM     21  C   UNL     1       5.252   6.739  15.129  0.00  0.00    +0.000 C 
ATOM     22  C   UNL     1       5.344   5.259  15.520  0.00  0.00    +0.000 C 
BRANCH  22  23
ATOM     23  S   UNL     1       7.124   4.908  15.890  0.00  0.00    +0.000 S 
BRANCH  23  24
ATOM     24  C   UNL     1       7.291   5.257  17.567  0.00  0.00    +0.000 A 
ATOM     25  N   UNL     1       7.185   4.421  18.573  0.00  0.00    +0.000 NA
ATOM     26  N   UNL     1       7.363   5.144  19.737  0.00  0.00    +0.000 NA
ATOM     27  C   UNL     1       7.565   6.398  19.398  0.00  0.00    +0.000 A 
ATOM     28  N   UNL     1       7.536   6.516  18.040  0.00  0.00    +0.000 N 
ATOM     29  C   UNL     1       7.731   7.734  17.305  0.00  0.00    +0.000 C 
ENDBRANCH  23  24
ENDBRANCH  22  23
ENDBRANCH   1  22
BRANCH   3  30
ATOM     30  N   UNL     1       3.110   2.001  18.527  0.00  0.00    +0.000 N 
ATOM     31  H   UNL     1       2.839   1.516  17.674  0.00  0.00    +0.000 HD
BRANCH  30  32
ATOM     32  C   UNL     1       4.197   1.297  19.233  0.00  0.00    +0.000 C 
BRANCH  32  33
ATOM     33  C   UNL     1       4.722   2.153  20.398  0.00  0.00    +0.000 C 
BRANCH  33  34
ATOM     34  O   UNL     1       5.432   1.321  21.323  0.00  0.00    +0.000 OA
ATOM     35  H   UNL     1       6.331   1.266  20.940  0.00  0.00    +0.000 HD
ENDBRANCH  33  34
ENDBRANCH  32  33
ENDBRANCH  30  32
ENDBRANCH   3  30
TORSDOF 8
ENDMDL
