MODEL 1
REMARK VINA RESULT:      -8.3      0.000      0.000
REMARK  Name = 
REMARK  11 active torsions:
REMARK  status: ('A' for Active; 'I' for Inactive)
REMARK    1  A    between atoms: C_1  and  C_2
REMARK    2  A    between atoms: C_2  and  S_3
REMARK    3  A    between atoms: C_2  and  C_10
REMARK    4  A    between atoms: S_3  and  C_4
REMARK    5  A    between atoms: N_8  and  C_9
REMARK    6  A    between atoms: C_14  and  N_15
REMARK    7  A    between atoms: C_16  and  C_18
REMARK    8  A    between atoms: C_22  and  O_23
REMARK    9  A    between atoms: O_23  and  C_24
REMARK   10  A    between atoms: C_24  and  C_25
REMARK   11  A    between atoms: C_25  and  O_27
REMARK                            x       y       z     vdW  Elec       q    Type
REMARK                         _______ _______ _______ _____ _____    ______ ____
ROOT
ATOM      1  N   UNL     1       1.255   9.176  19.254  0.00  0.00    +0.000 N 
ATOM      2  C   UNL     1       1.578   8.318  20.309  0.00  0.00    +0.000 C 
ATOM      3  O   UNL     1       1.538   8.586  21.503  0.00  0.00    +0.000 OA
ATOM      4  H   UNL     1       1.428   8.833  18.316  0.00  0.00    +0.000 HD
ENDROOT
BRANCH   2   5
ATOM      5  C   UNL     1       1.929   6.917  19.974  0.00  0.00    +0.000 A 
ATOM      6  C   UNL     1       2.609   6.728  18.774  0.00  0.00    +0.000 A 
ATOM      7  C   UNL     1       3.009   5.444  18.433  0.00  0.00    +0.000 A 
ATOM      8  C   UNL     1       3.927   5.258  17.407  0.00  0.00    +0.000 A 
ATOM      9  C   UNL     1       4.382   3.986  17.080  0.00  0.00    +0.000 A 
ATOM     10  C   UNL     1       3.793   2.865  17.661  0.00  0.00    +0.000 A 
ATOM     11  C   UNL     1       2.864   3.046  18.701  0.00  0.00    +0.000 A 
ATOM     12  C   UNL     1       2.544   4.346  19.166  0.00  0.00    +0.000 A 
ATOM     13  C   UNL     1       1.831   4.647  20.341  0.00  0.00    +0.000 A 
ATOM     14  N   UNL     1       1.575   5.905  20.803  0.00  0.00    +0.000 NA
BRANCH   9  15
ATOM     15  O   UNL     1       5.461   4.017  16.259  0.00  0.00    +0.000 OA
BRANCH  15  16
ATOM     16  C   UNL     1       5.737   5.191  15.504  0.00  0.00    +0.000 C 
BRANCH  16  17
ATOM     17  C   UNL     1       6.745   4.747  14.462  0.00  0.00    +0.000 C 
ATOM     18  O   UNL     1       7.718   5.406  14.121  0.00  0.00    +0.000 OA
BRANCH  17  19
ATOM     19  O   UNL     1       6.460   3.539  13.905  0.00  0.00    +0.000 OA
ATOM     20  H   UNL     1       5.515   3.531  13.621  0.00  0.00    +0.000 HD
ENDBRANCH  17  19
ENDBRANCH  16  17
ENDBRANCH  15  16
ENDBRANCH   9  15
ENDBRANCH   2   5
BRANCH   1  25
ATOM     21  C   UNL     1      -1.064  11.996  20.174  0.00  0.00    +0.000 A 
ATOM     22  C   UNL     1      -0.317  13.085  19.698  0.00  0.00    +0.000 A 
ATOM     23  C   UNL     1       0.922  12.899  19.096  0.00  0.00    +0.000 A 
ATOM     24  C   UNL     1       1.444  11.617  18.960  0.00  0.00    +0.000 A 
ATOM     25  C   UNL     1       0.748  10.494  19.412  0.00  0.00    +0.000 A 
ATOM     26  C   UNL     1      -0.497  10.696  20.040  0.00  0.00    +0.000 A 
BRANCH  21  28
ATOM     27  C   UNL     1      -3.543  12.536  19.677  0.00  0.00    +0.000 C 
ATOM     28  C   UNL     1      -2.482  12.193  20.741  0.00  0.00    +0.000 C 
BRANCH  28  29
ATOM     29  S   UNL     1      -2.495  13.514  22.017  0.00  0.00    +0.000 S 
BRANCH  29  30
ATOM     30  C   UNL     1      -3.765  12.999  23.073  0.00  0.00    +0.000 A 
ATOM     31  N   UNL     1      -3.719  12.063  23.992  0.00  0.00    +0.000 NA
ATOM     32  N   UNL     1      -4.957  12.014  24.602  0.00  0.00    +0.000 NA
ATOM     33  C   UNL     1      -5.716  12.926  24.035  0.00  0.00    +0.000 A 
ATOM     34  N   UNL     1      -5.014  13.550  23.049  0.00  0.00    +0.000 N 
ATOM     35  C   UNL     1      -5.519  14.551  22.150  0.00  0.00    +0.000 C 
ENDBRANCH  29  30
ENDBRANCH  28  29
ENDBRANCH  21  28
ENDBRANCH   1  25
TORSDOF 9
ENDMDL
MODEL 2
REMARK VINA RESULT:      -8.2      3.263      4.554
REMARK  Name = 
REMARK  11 active torsions:
REMARK  status: ('A' for Active; 'I' for Inactive)
REMARK    1  A    between atoms: C_1  and  C_2
REMARK    2  A    between atoms: C_2  and  S_3
REMARK    3  A    between atoms: C_2  and  C_10
REMARK    4  A    between atoms: S_3  and  C_4
REMARK    5  A    between atoms: N_8  and  C_9
REMARK    6  A    between atoms: C_14  and  N_15
REMARK    7  A    between atoms: C_16  and  C_18
REMARK    8  A    between atoms: C_22  and  O_23
REMARK    9  A    between atoms: O_23  and  C_24
REMARK   10  A    between atoms: C_24  and  C_25
REMARK   11  A    between atoms: C_25  and  O_27
REMARK                            x       y       z     vdW  Elec       q    Type
REMARK                         _______ _______ _______ _____ _____    ______ ____
ROOT
ATOM      1  N   UNL     1       1.237   9.201  19.287  0.00  0.00    +0.000 N 
ATOM      2  C   UNL     1       1.584   8.349  20.339  0.00  0.00    +0.000 C 
ATOM      3  O   UNL     1       1.576   8.627  21.532  0.00  0.00    +0.000 OA
ATOM      4  H   UNL     1       1.385   8.851  18.347  0.00  0.00    +0.000 HD
ENDROOT
BRANCH   2   5
ATOM      5  C   UNL     1       1.922   6.945  20.005  0.00  0.00    +0.000 A 
ATOM      6  C   UNL     1       2.574   6.746  18.792  0.00  0.00    +0.000 A 
ATOM      7  C   UNL     1       2.962   5.458  18.450  0.00  0.00    +0.000 A 
ATOM      8  C   UNL     1       3.855   5.261  17.405  0.00  0.00    +0.000 A 
ATOM      9  C   UNL     1       4.298   3.985  17.076  0.00  0.00    +0.000 A 
ATOM     10  C   UNL     1       3.718   2.870  17.677  0.00  0.00    +0.000 A 
ATOM     11  C   UNL     1       2.812   3.062  18.736  0.00  0.00    +0.000 A 
ATOM     12  C   UNL     1       2.508   4.366  19.199  0.00  0.00    +0.000 A 
ATOM     13  C   UNL     1       1.823   4.678  20.389  0.00  0.00    +0.000 A 
ATOM     14  N   UNL     1       1.582   5.940  20.848  0.00  0.00    +0.000 NA
BRANCH   9  15
ATOM     15  O   UNL     1       5.359   4.007  16.231  0.00  0.00    +0.000 OA
BRANCH  15  16
ATOM     16  C   UNL     1       5.772   5.238  15.651  0.00  0.00    +0.000 C 
BRANCH  16  17
ATOM     17  C   UNL     1       7.120   5.526  16.282  0.00  0.00    +0.000 C 
ATOM     18  O   UNL     1       7.554   6.649  16.496  0.00  0.00    +0.000 OA
BRANCH  17  19
ATOM     19  O   UNL     1       7.836   4.407  16.574  0.00  0.00    +0.000 OA
ATOM     20  H   UNL     1       8.674   4.416  16.052  0.00  0.00    +0.000 HD
ENDBRANCH  17  19
ENDBRANCH  16  17
ENDBRANCH  15  16
ENDBRANCH   9  15
ENDBRANCH   2   5
BRANCH   1  25
ATOM     21  C   UNL     1       0.979  12.949  19.033  0.00  0.00    +0.000 A 
ATOM     22  C   UNL     1      -0.186  13.160  19.787  0.00  0.00    +0.000 A 
ATOM     23  C   UNL     1      -0.875  12.097  20.359  0.00  0.00    +0.000 A 
ATOM     24  C   UNL     1      -0.415  10.796  20.186  0.00  0.00    +0.000 A 
ATOM     25  C   UNL     1       0.738  10.522  19.448  0.00  0.00    +0.000 A 
ATOM     26  C   UNL     1       1.417  11.605  18.855  0.00  0.00    +0.000 A 
BRANCH  21  28
ATOM     27  C   UNL     1       3.314  13.855  18.391  0.00  0.00    +0.000 C 
ATOM     28  C   UNL     1       1.801  14.133  18.492  0.00  0.00    +0.000 C 
BRANCH  28  29
ATOM     29  S   UNL     1       1.557  15.625  19.535  0.00  0.00    +0.000 S 
BRANCH  29  30
ATOM     30  C   UNL     1       1.371  16.877  18.357  0.00  0.00    +0.000 A 
ATOM     31  N   UNL     1       2.302  17.431  17.615  0.00  0.00    +0.000 NA
ATOM     32  N   UNL     1       1.691  18.366  16.804  0.00  0.00    +0.000 NA
ATOM     33  C   UNL     1       0.405  18.348  17.076  0.00  0.00    +0.000 A 
ATOM     34  N   UNL     1       0.164  17.445  18.066  0.00  0.00    +0.000 N 
ATOM     35  C   UNL     1      -1.104  17.189  18.693  0.00  0.00    +0.000 C 
ENDBRANCH  29  30
ENDBRANCH  28  29
ENDBRANCH  21  28
ENDBRANCH   1  25
TORSDOF 9
ENDMDL
MODEL 3
REMARK VINA RESULT:      -8.1      3.638      5.591
REMARK  Name = 
REMARK  11 active torsions:
REMARK  status: ('A' for Active; 'I' for Inactive)
REMARK    1  A    between atoms: C_1  and  C_2
REMARK    2  A    between atoms: C_2  and  S_3
REMARK    3  A    between atoms: C_2  and  C_10
REMARK    4  A    between atoms: S_3  and  C_4
REMARK    5  A    between atoms: N_8  and  C_9
REMARK    6  A    between atoms: C_14  and  N_15
REMARK    7  A    between atoms: C_16  and  C_18
REMARK    8  A    between atoms: C_22  and  O_23
REMARK    9  A    between atoms: O_23  and  C_24
REMARK   10  A    between atoms: C_24  and  C_25
REMARK   11  A    between atoms: C_25  and  O_27
REMARK                            x       y       z     vdW  Elec       q    Type
REMARK                         _______ _______ _______ _____ _____    ______ ____
ROOT
ATOM      1  N   UNL     1       1.528   9.395  18.761  0.00  0.00    +0.000 N 
ATOM      2  C   UNL     1       1.591   8.603  19.911  0.00  0.00    +0.000 C 
ATOM      3  O   UNL     1       1.325   8.956  21.053  0.00  0.00    +0.000 OA
ATOM      4  H   UNL     1       1.870   8.982  17.901  0.00  0.00    +0.000 HD
ENDROOT
BRANCH   2   5
ATOM      5  C   UNL     1       1.935   7.171  19.741  0.00  0.00    +0.000 A 
ATOM      6  C   UNL     1       2.579   6.833  18.555  0.00  0.00    +0.000 A 
ATOM      7  C   UNL     1       2.971   5.516  18.364  0.00  0.00    +0.000 A 
ATOM      8  C   UNL     1       3.858   5.203  17.342  0.00  0.00    +0.000 A 
ATOM      9  C   UNL     1       4.306   3.899  17.162  0.00  0.00    +0.000 A 
ATOM     10  C   UNL     1       3.737   2.860  17.894  0.00  0.00    +0.000 A 
ATOM     11  C   UNL     1       2.838   3.170  18.931  0.00  0.00    +0.000 A 
ATOM     12  C   UNL     1       2.529   4.518  19.240  0.00  0.00    +0.000 A 
ATOM     13  C   UNL     1       1.852   4.964  20.390  0.00  0.00    +0.000 A 
ATOM     14  N   UNL     1       1.607   6.270  20.700  0.00  0.00    +0.000 NA
BRANCH   9  15
ATOM     15  O   UNL     1       5.360   3.826  16.312  0.00  0.00    +0.000 OA
BRANCH  15  16
ATOM     16  C   UNL     1       5.609   4.894  15.406  0.00  0.00    +0.000 C 
BRANCH  16  17
ATOM     17  C   UNL     1       7.120   4.981  15.321  0.00  0.00    +0.000 C 
ATOM     18  O   UNL     1       7.731   5.430  14.361  0.00  0.00    +0.000 OA
BRANCH  17  19
ATOM     19  O   UNL     1       7.758   4.484  16.415  0.00  0.00    +0.000 OA
ATOM     20  H   UNL     1       8.328   5.189  16.803  0.00  0.00    +0.000 HD
ENDBRANCH  17  19
ENDBRANCH  16  17
ENDBRANCH  15  16
ENDBRANCH   9  15
ENDBRANCH   2   5
BRANCH   1  25
ATOM     21  C   UNL     1       1.535  13.155  18.968  0.00  0.00    +0.000 A 
ATOM     22  C   UNL     1       0.176  13.410  18.731  0.00  0.00    +0.000 A 
ATOM     23  C   UNL     1      -0.721  12.374  18.500  0.00  0.00    +0.000 A 
ATOM     24  C   UNL     1      -0.276  11.056  18.499  0.00  0.00    +0.000 A 
ATOM     25  C   UNL     1       1.064  10.739  18.731  0.00  0.00    +0.000 A 
ATOM     26  C   UNL     1       1.968  11.798  18.942  0.00  0.00    +0.000 A 
BRANCH  21  28
ATOM     27  C   UNL     1       1.902  15.364  20.262  0.00  0.00    +0.000 C 
ATOM     28  C   UNL     1       2.506  14.294  19.331  0.00  0.00    +0.000 C 
BRANCH  28  29
ATOM     29  S   UNL     1       3.123  15.129  17.816  0.00  0.00    +0.000 S 
BRANCH  29  30
ATOM     30  C   UNL     1       4.404  16.116  18.431  0.00  0.00    +0.000 A 
ATOM     31  N   UNL     1       4.314  17.309  18.973  0.00  0.00    +0.000 NA
ATOM     32  N   UNL     1       5.587  17.701  19.337  0.00  0.00    +0.000 NA
ATOM     33  C   UNL     1       6.411  16.730  19.009  0.00  0.00    +0.000 A 
ATOM     34  N   UNL     1       5.713  15.726  18.411  0.00  0.00    +0.000 N 
ATOM     35  C   UNL     1       6.266  14.527  17.843  0.00  0.00    +0.000 C 
ENDBRANCH  29  30
ENDBRANCH  28  29
ENDBRANCH  21  28
ENDBRANCH   1  25
TORSDOF 9
ENDMDL
MODEL 4
REMARK VINA RESULT:      -8.1      3.653      5.447
REMARK  Name = 
REMARK  11 active torsions:
REMARK  status: ('A' for Active; 'I' for Inactive)
REMARK    1  A    between atoms: C_1  and  C_2
REMARK    2  A    between atoms: C_2  and  S_3
REMARK    3  A    between atoms: C_2  and  C_10
REMARK    4  A    between atoms: S_3  and  C_4
REMARK    5  A    between atoms: N_8  and  C_9
REMARK    6  A    between atoms: C_14  and  N_15
REMARK    7  A    between atoms: C_16  and  C_18
REMARK    8  A    between atoms: C_22  and  O_23
REMARK    9  A    between atoms: O_23  and  C_24
REMARK   10  A    between atoms: C_24  and  C_25
REMARK   11  A    between atoms: C_25  and  O_27
REMARK                            x       y       z     vdW  Elec       q    Type
REMARK                         _______ _______ _______ _____ _____    ______ ____
ROOT
ATOM      1  N   UNL     1       0.968   9.975  19.380  0.00  0.00    +0.000 N 
ATOM      2  C   UNL     1       1.735   9.231  18.479  0.00  0.00    +0.000 C 
ATOM      3  O   UNL     1       2.183   9.623  17.409  0.00  0.00    +0.000 OA
ATOM      4  H   UNL     1       0.593   9.479  20.181  0.00  0.00    +0.000 HD
ENDROOT
BRANCH   2   5
ATOM      5  C   UNL     1       2.121   7.856  18.876  0.00  0.00    +0.000 A 
ATOM      6  C   UNL     1       2.704   7.075  17.884  0.00  0.00    +0.000 A 
ATOM      7  C   UNL     1       3.133   5.796  18.211  0.00  0.00    +0.000 A 
ATOM      8  C   UNL     1       3.967   5.105  17.342  0.00  0.00    +0.000 A 
ATOM      9  C   UNL     1       4.451   3.844  17.671  0.00  0.00    +0.000 A 
ATOM     10  C   UNL     1       3.966   3.183  18.797  0.00  0.00    +0.000 A 
ATOM     11  C   UNL     1       3.121   3.877  19.681  0.00  0.00    +0.000 A 
ATOM     12  C   UNL     1       2.782   5.232  19.443  0.00  0.00    +0.000 A 
ATOM     13  C   UNL     1       2.158   6.098  20.361  0.00  0.00    +0.000 A 
ATOM     14  N   UNL     1       1.885   7.416  20.136  0.00  0.00    +0.000 NA
BRANCH   9  15
ATOM     15  O   UNL     1       5.454   3.445  16.849  0.00  0.00    +0.000 OA
BRANCH  15  16
ATOM     16  C   UNL     1       5.794   4.234  15.716  0.00  0.00    +0.000 C 
BRANCH  16  17
ATOM     17  C   UNL     1       7.145   4.832  16.057  0.00  0.00    +0.000 C 
ATOM     18  O   UNL     1       7.579   5.870  15.577  0.00  0.00    +0.000 OA
BRANCH  17  19
ATOM     19  O   UNL     1       7.863   4.089  16.941  0.00  0.00    +0.000 OA
ATOM     20  H   UNL     1       7.249   3.496  17.437  0.00  0.00    +0.000 HD
ENDBRANCH  17  19
ENDBRANCH  16  17
ENDBRANCH  15  16
ENDBRANCH   9  15
ENDBRANCH   2   5
BRANCH   1  25
ATOM     21  C   UNL     1       1.244  13.725  19.587  0.00  0.00    +0.000 A 
ATOM     22  C   UNL     1       0.031  14.088  18.983  0.00  0.00    +0.000 A 
ATOM     23  C   UNL     1      -0.854  13.125  18.510  0.00  0.00    +0.000 A 
ATOM     24  C   UNL     1      -0.542  11.775  18.630  0.00  0.00    +0.000 A 
ATOM     25  C   UNL     1       0.649  11.352  19.224  0.00  0.00    +0.000 A 
ATOM     26  C   UNL     1       1.548  12.336  19.680  0.00  0.00    +0.000 A 
BRANCH  21  28
ATOM     27  C   UNL     1       1.843  15.131  21.673  0.00  0.00    +0.000 C 
ATOM     28  C   UNL     1       2.172  14.786  20.207  0.00  0.00    +0.000 C 
BRANCH  28  29
ATOM     29  S   UNL     1       2.131  16.338  19.226  0.00  0.00    +0.000 S 
BRANCH  29  30
ATOM     30  C   UNL     1       3.772  16.876  19.312  0.00  0.00    +0.000 A 
ATOM     31  N   UNL     1       4.249  17.909  19.968  0.00  0.00    +0.000 NA
ATOM     32  N   UNL     1       5.615  17.938  19.767  0.00  0.00    +0.000 NA
ATOM     33  C   UNL     1       5.926  16.919  18.997  0.00  0.00    +0.000 A 
ATOM     34  N   UNL     1       4.793  16.241  18.664  0.00  0.00    +0.000 N 
ATOM     35  C   UNL     1       4.706  15.114  17.776  0.00  0.00    +0.000 C 
ENDBRANCH  29  30
ENDBRANCH  28  29
ENDBRANCH  21  28
ENDBRANCH   1  25
TORSDOF 9
ENDMDL
MODEL 5
REMARK VINA RESULT:      -7.9      1.092      1.313
REMARK  Name = 
REMARK  11 active torsions:
REMARK  status: ('A' for Active; 'I' for Inactive)
REMARK    1  A    between atoms: C_1  and  C_2
REMARK    2  A    between atoms: C_2  and  S_3
REMARK    3  A    between atoms: C_2  and  C_10
REMARK    4  A    between atoms: S_3  and  C_4
REMARK    5  A    between atoms: N_8  and  C_9
REMARK    6  A    between atoms: C_14  and  N_15
REMARK    7  A    between atoms: C_16  and  C_18
REMARK    8  A    between atoms: C_22  and  O_23
REMARK    9  A    between atoms: O_23  and  C_24
REMARK   10  A    between atoms: C_24  and  C_25
REMARK   11  A    between atoms: C_25  and  O_27
REMARK                            x       y       z     vdW  Elec       q    Type
REMARK                         _______ _______ _______ _____ _____    ______ ____
ROOT
ATOM      1  N   UNL     1       1.441   9.373  19.278  0.00  0.00    +0.000 N 
ATOM      2  C   UNL     1       1.630   8.424  20.287  0.00  0.00    +0.000 C 
ATOM      3  O   UNL     1       1.420   8.583  21.483  0.00  0.00    +0.000 OA
ATOM      4  H   UNL     1       1.749   9.118  18.347  0.00  0.00    +0.000 HD
ENDROOT
BRANCH   2   5
ATOM      5  C   UNL     1       2.049   7.062  19.880  0.00  0.00    +0.000 A 
ATOM      6  C   UNL     1       2.805   6.977  18.714  0.00  0.00    +0.000 A 
ATOM      7  C   UNL     1       3.269   5.733  18.312  0.00  0.00    +0.000 A 
ATOM      8  C   UNL     1       4.251   5.647  17.334  0.00  0.00    +0.000 A 
ATOM      9  C   UNL     1       4.769   4.415  16.950  0.00  0.00    +0.000 A 
ATOM     10  C   UNL     1       4.187   3.239  17.417  0.00  0.00    +0.000 A 
ATOM     11  C   UNL     1       3.192   3.319  18.408  0.00  0.00    +0.000 A 
ATOM     12  C   UNL     1       2.800   4.573  18.939  0.00  0.00    +0.000 A 
ATOM     13  C   UNL     1       2.010   4.770  20.087  0.00  0.00    +0.000 A 
ATOM     14  N   UNL     1       1.683   5.984  20.616  0.00  0.00    +0.000 NA
BRANCH   9  15
ATOM     15  O   UNL     1       5.893   4.537  16.201  0.00  0.00    +0.000 OA
BRANCH  15  16
ATOM     16  C   UNL     1       6.797   5.606  16.455  0.00  0.00    +0.000 C 
BRANCH  16  17
ATOM     17  C   UNL     1       7.572   5.168  17.682  0.00  0.00    +0.000 C 
ATOM     18  O   UNL     1       7.649   5.818  18.715  0.00  0.00    +0.000 OA
BRANCH  17  19
ATOM     19  O   UNL     1       8.211   3.977  17.528  0.00  0.00    +0.000 OA
ATOM     20  H   UNL     1       9.100   4.032  17.954  0.00  0.00    +0.000 HD
ENDBRANCH  17  19
ENDBRANCH  16  17
ENDBRANCH  15  16
ENDBRANCH   9  15
ENDBRANCH   2   5
BRANCH   1  25
ATOM     21  C   UNL     1      -0.907  12.094  20.401  0.00  0.00    +0.000 A 
ATOM     22  C   UNL     1      -0.252  13.213  19.862  0.00  0.00    +0.000 A 
ATOM     23  C   UNL     1       0.936  13.078  19.153  0.00  0.00    +0.000 A 
ATOM     24  C   UNL     1       1.499  11.819  18.971  0.00  0.00    +0.000 A 
ATOM     25  C   UNL     1       0.894  10.669  19.481  0.00  0.00    +0.000 A 
ATOM     26  C   UNL     1      -0.299  10.819  20.216  0.00  0.00    +0.000 A 
BRANCH  21  28
ATOM     27  C   UNL     1      -3.409  12.700  20.154  0.00  0.00    +0.000 C 
ATOM     28  C   UNL     1      -2.277  12.231  21.090  0.00  0.00    +0.000 C 
BRANCH  28  29
ATOM     29  S   UNL     1      -2.178  13.398  22.505  0.00  0.00    +0.000 S 
BRANCH  29  30
ATOM     30  C   UNL     1      -3.654  13.081  23.351  0.00  0.00    +0.000 A 
ATOM     31  N   UNL     1      -3.973  12.012  24.043  0.00  0.00    +0.000 NA
ATOM     32  N   UNL     1      -5.238  12.209  24.559  0.00  0.00    +0.000 NA
ATOM     33  C   UNL     1      -5.647  13.395  24.167  0.00  0.00    +0.000 A 
ATOM     34  N   UNL     1      -4.693  13.967  23.382  0.00  0.00    +0.000 N 
ATOM     35  C   UNL     1      -4.796  15.228  22.700  0.00  0.00    +0.000 C 
ENDBRANCH  29  30
ENDBRANCH  28  29
ENDBRANCH  21  28
ENDBRANCH   1  25
TORSDOF 9
ENDMDL
MODEL 6
REMARK VINA RESULT:      -7.9      2.283      3.026
REMARK  Name = 
REMARK  11 active torsions:
REMARK  status: ('A' for Active; 'I' for Inactive)
REMARK    1  A    between atoms: C_1  and  C_2
REMARK    2  A    between atoms: C_2  and  S_3
REMARK    3  A    between atoms: C_2  and  C_10
REMARK    4  A    between atoms: S_3  and  C_4
REMARK    5  A    between atoms: N_8  and  C_9
REMARK    6  A    between atoms: C_14  and  N_15
REMARK    7  A    between atoms: C_16  and  C_18
REMARK    8  A    between atoms: C_22  and  O_23
REMARK    9  A    between atoms: O_23  and  C_24
REMARK   10  A    between atoms: C_24  and  C_25
REMARK   11  A    between atoms: C_25  and  O_27
REMARK                            x       y       z     vdW  Elec       q    Type
REMARK                         _______ _______ _______ _____ _____    ______ ____
ROOT
ATOM      1  N   UNL     1       1.229   9.088  18.628  0.00  0.00    +0.000 N 
ATOM      2  C   UNL     1       1.505   8.416  19.822  0.00  0.00    +0.000 C 
ATOM      3  O   UNL     1       1.347   8.852  20.955  0.00  0.00    +0.000 OA
ATOM      4  H   UNL     1       1.502   8.625  17.768  0.00  0.00    +0.000 HD
ENDROOT
BRANCH   2   5
ATOM      5  C   UNL     1       1.960   7.008  19.729  0.00  0.00    +0.000 A 
ATOM      6  C   UNL     1       2.528   6.628  18.518  0.00  0.00    +0.000 A 
ATOM      7  C   UNL     1       3.019   5.336  18.390  0.00  0.00    +0.000 A 
ATOM      8  C   UNL     1       3.840   5.013  17.318  0.00  0.00    +0.000 A 
ATOM      9  C   UNL     1       4.386   3.740  17.196  0.00  0.00    +0.000 A 
ATOM     10  C   UNL     1       3.977   2.722  18.053  0.00  0.00    +0.000 A 
ATOM     11  C   UNL     1       3.146   3.042  19.142  0.00  0.00    +0.000 A 
ATOM     12  C   UNL     1       2.745   4.381  19.377  0.00  0.00    +0.000 A 
ATOM     13  C   UNL     1       2.131   4.864  20.547  0.00  0.00    +0.000 A 
ATOM     14  N   UNL     1       1.797   6.166  20.779  0.00  0.00    +0.000 NA
BRANCH   9  15
ATOM     15  O   UNL     1       5.366   3.685  16.260  0.00  0.00    +0.000 OA
BRANCH  15  16
ATOM     16  C   UNL     1       5.597   4.806  15.414  0.00  0.00    +0.000 C 
BRANCH  16  17
ATOM     17  C   UNL     1       7.105   4.949  15.372  0.00  0.00    +0.000 C 
ATOM     18  O   UNL     1       7.724   5.434  14.435  0.00  0.00    +0.000 OA
BRANCH  17  19
ATOM     19  O   UNL     1       7.732   4.461  16.476  0.00  0.00    +0.000 OA
ATOM     20  H   UNL     1       8.615   4.107  16.214  0.00  0.00    +0.000 HD
ENDBRANCH  17  19
ENDBRANCH  16  17
ENDBRANCH  15  16
ENDBRANCH   9  15
ENDBRANCH   2   5
BRANCH   1  25
ATOM     21  C   UNL     1       0.860  12.833  18.760  0.00  0.00    +0.000 A 
ATOM     22  C   UNL     1      -0.503  12.950  18.444  0.00  0.00    +0.000 A 
ATOM     23  C   UNL     1      -1.280  11.828  18.185  0.00  0.00    +0.000 A 
ATOM     24  C   UNL     1      -0.711  10.560  18.234  0.00  0.00    +0.000 A 
ATOM     25  C   UNL     1       0.639  10.379  18.545  0.00  0.00    +0.000 A 
ATOM     26  C   UNL     1       1.423  11.525  18.784  0.00  0.00    +0.000 A 
BRANCH  21  28
ATOM     27  C   UNL     1       3.013  14.210  18.368  0.00  0.00    +0.000 C 
ATOM     28  C   UNL     1       1.694  14.066  19.153  0.00  0.00    +0.000 C 
BRANCH  28  29
ATOM     29  S   UNL     1       2.089  14.040  20.946  0.00  0.00    +0.000 S 
BRANCH  29  30
ATOM     30  C   UNL     1       0.594  14.533  21.663  0.00  0.00    +0.000 A 
ATOM     31  N   UNL     1       0.181  15.756  21.904  0.00  0.00    +0.000 NA
ATOM     32  N   UNL     1      -1.079  15.670  22.463  0.00  0.00    +0.000 NA
ATOM     33  C   UNL     1      -1.393  14.395  22.542  0.00  0.00    +0.000 A 
ATOM     34  N   UNL     1      -0.357  13.644  22.075  0.00  0.00    +0.000 N 
ATOM     35  C   UNL     1      -0.284  12.209  22.067  0.00  0.00    +0.000 C 
ENDBRANCH  29  30
ENDBRANCH  28  29
ENDBRANCH  21  28
ENDBRANCH   1  25
TORSDOF 9
ENDMDL
MODEL 7
REMARK VINA RESULT:      -7.9      2.203      2.914
REMARK  Name = 
REMARK  11 active torsions:
REMARK  status: ('A' for Active; 'I' for Inactive)
REMARK    1  A    between atoms: C_1  and  C_2
REMARK    2  A    between atoms: C_2  and  S_3
REMARK    3  A    between atoms: C_2  and  C_10
REMARK    4  A    between atoms: S_3  and  C_4
REMARK    5  A    between atoms: N_8  and  C_9
REMARK    6  A    between atoms: C_14  and  N_15
REMARK    7  A    between atoms: C_16  and  C_18
REMARK    8  A    between atoms: C_22  and  O_23
REMARK    9  A    between atoms: O_23  and  C_24
REMARK   10  A    between atoms: C_24  and  C_25
REMARK   11  A    between atoms: C_25  and  O_27
REMARK                            x       y       z     vdW  Elec       q    Type
REMARK                         _______ _______ _______ _____ _____    ______ ____
ROOT
ATOM      1  N   UNL     1       1.102   9.440  18.921  0.00  0.00    +0.000 N 
ATOM      2  C   UNL     1       1.147   8.672  20.088  0.00  0.00    +0.000 C 
ATOM      3  O   UNL     1       0.616   8.943  21.158  0.00  0.00    +0.000 OA
ATOM      4  H   UNL     1       1.672   9.125  18.144  0.00  0.00    +0.000 HD
ENDROOT
BRANCH   2   5
ATOM      5  C   UNL     1       1.832   7.359  20.022  0.00  0.00    +0.000 A 
ATOM      6  C   UNL     1       2.736   7.194  18.977  0.00  0.00    +0.000 A 
ATOM      7  C   UNL     1       3.445   6.004  18.894  0.00  0.00    +0.000 A 
ATOM      8  C   UNL     1       4.546   5.915  18.053  0.00  0.00    +0.000 A 
ATOM      9  C   UNL     1       5.304   4.751  17.991  0.00  0.00    +0.000 A 
ATOM     10  C   UNL     1       4.867   3.600  18.641  0.00  0.00    +0.000 A 
ATOM     11  C   UNL     1       3.753   3.683  19.496  0.00  0.00    +0.000 A 
ATOM     12  C   UNL     1       3.095   4.920  19.708  0.00  0.00    +0.000 A 
ATOM     13  C   UNL     1       2.141   5.184  20.709  0.00  0.00    +0.000 A 
ATOM     14  N   UNL     1       1.554   6.395  20.934  0.00  0.00    +0.000 NA
BRANCH   9  15
ATOM     15  O   UNL     1       6.481   4.934  17.340  0.00  0.00    +0.000 OA
BRANCH  15  16
ATOM     16  C   UNL     1       7.705   4.657  18.009  0.00  0.00    +0.000 C 
BRANCH  16  17
ATOM     17  C   UNL     1       7.895   5.823  18.959  0.00  0.00    +0.000 C 
ATOM     18  O   UNL     1       8.079   6.978  18.603  0.00  0.00    +0.000 OA
BRANCH  17  19
ATOM     19  O   UNL     1       7.868   5.467  20.272  0.00  0.00    +0.000 OA
ATOM     20  H   UNL     1       6.944   5.225  20.521  0.00  0.00    +0.000 HD
ENDBRANCH  17  19
ENDBRANCH  16  17
ENDBRANCH  15  16
ENDBRANCH   9  15
ENDBRANCH   2   5
BRANCH   1  25
ATOM     21  C   UNL     1       0.134  13.069  19.186  0.00  0.00    +0.000 A 
ATOM     22  C   UNL     1      -1.114  13.031  18.546  0.00  0.00    +0.000 A 
ATOM     23  C   UNL     1      -1.623  11.844  18.032  0.00  0.00    +0.000 A 
ATOM     24  C   UNL     1      -0.891  10.666  18.144  0.00  0.00    +0.000 A 
ATOM     25  C   UNL     1       0.356  10.641  18.772  0.00  0.00    +0.000 A 
ATOM     26  C   UNL     1       0.871  11.853  19.270  0.00  0.00    +0.000 A 
BRANCH  21  28
ATOM     27  C   UNL     1       2.064  14.241  20.446  0.00  0.00    +0.000 C 
ATOM     28  C   UNL     1       0.647  14.360  19.850  0.00  0.00    +0.000 C 
BRANCH  28  29
ATOM     29  S   UNL     1      -0.495  14.905  21.181  0.00  0.00    +0.000 S 
BRANCH  29  30
ATOM     30  C   UNL     1      -0.834  13.425  22.009  0.00  0.00    +0.000 A 
ATOM     31  N   UNL     1       0.008  12.654  22.660  0.00  0.00    +0.000 NA
ATOM     32  N   UNL     1      -0.710  11.595  23.178  0.00  0.00    +0.000 NA
ATOM     33  C   UNL     1      -1.967  11.757  22.829  0.00  0.00    +0.000 A 
ATOM     34  N   UNL     1      -2.085  12.881  22.069  0.00  0.00    +0.000 N 
ATOM     35  C   UNL     1      -3.283  13.356  21.434  0.00  0.00    +0.000 C 
ENDBRANCH  29  30
ENDBRANCH  28  29
ENDBRANCH  21  28
ENDBRANCH   1  25
TORSDOF 9
ENDMDL
MODEL 8
REMARK VINA RESULT:      -7.8      3.434      5.206
REMARK  Name = 
REMARK  11 active torsions:
REMARK  status: ('A' for Active; 'I' for Inactive)
REMARK    1  A    between atoms: C_1  and  C_2
REMARK    2  A    between atoms: C_2  and  S_3
REMARK    3  A    between atoms: C_2  and  C_10
REMARK    4  A    between atoms: S_3  and  C_4
REMARK    5  A    between atoms: N_8  and  C_9
REMARK    6  A    between atoms: C_14  and  N_15
REMARK    7  A    between atoms: C_16  and  C_18
REMARK    8  A    between atoms: C_22  and  O_23
REMARK    9  A    between atoms: O_23  and  C_24
REMARK   10  A    between atoms: C_24  and  C_25
REMARK   11  A    between atoms: C_25  and  O_27
REMARK                            x       y       z     vdW  Elec       q    Type
REMARK                         _______ _______ _______ _____ _____    ______ ____
ROOT
ATOM      1  N   UNL     1       1.349   9.280  18.794  0.00  0.00    +0.000 N 
ATOM      2  C   UNL     1       1.531   8.540  19.965  0.00  0.00    +0.000 C 
ATOM      3  O   UNL     1       1.366   8.940  21.111  0.00  0.00    +0.000 OA
ATOM      4  H   UNL     1       1.616   8.833  17.924  0.00  0.00    +0.000 HD
ENDROOT
BRANCH   2   5
ATOM      5  C   UNL     1       1.881   7.106  19.826  0.00  0.00    +0.000 A 
ATOM      6  C   UNL     1       2.590   6.759  18.680  0.00  0.00    +0.000 A 
ATOM      7  C   UNL     1       2.990   5.440  18.521  0.00  0.00    +0.000 A 
ATOM      8  C   UNL     1       3.932   5.117  17.552  0.00  0.00    +0.000 A 
ATOM      9  C   UNL     1       4.386   3.812  17.407  0.00  0.00    +0.000 A 
ATOM     10  C   UNL     1       3.776   2.779  18.115  0.00  0.00    +0.000 A 
ATOM     11  C   UNL     1       2.822   3.098  19.098  0.00  0.00    +0.000 A 
ATOM     12  C   UNL     1       2.499   4.449  19.379  0.00  0.00    +0.000 A 
ATOM     13  C   UNL     1       1.759   4.905  20.486  0.00  0.00    +0.000 A 
ATOM     14  N   UNL     1       1.500   6.213  20.772  0.00  0.00    +0.000 NA
BRANCH   9  15
ATOM     15  O   UNL     1       5.486   3.731  16.618  0.00  0.00    +0.000 OA
BRANCH  15  16
ATOM     16  C   UNL     1       5.602   4.581  15.483  0.00  0.00    +0.000 C 
BRANCH  16  17
ATOM     17  C   UNL     1       7.084   4.887  15.383  0.00  0.00    +0.000 C 
ATOM     18  O   UNL     1       7.598   5.507  14.462  0.00  0.00    +0.000 OA
BRANCH  17  19
ATOM     19  O   UNL     1       7.816   4.383  16.412  0.00  0.00    +0.000 OA
ATOM     20  H   UNL     1       8.744   4.239  16.106  0.00  0.00    +0.000 HD
ENDBRANCH  17  19
ENDBRANCH  16  17
ENDBRANCH  15  16
ENDBRANCH   9  15
ENDBRANCH   2   5
BRANCH   1  25
ATOM     21  C   UNL     1       1.320  13.039  18.575  0.00  0.00    +0.000 A 
ATOM     22  C   UNL     1      -0.057  13.276  18.708  0.00  0.00    +0.000 A 
ATOM     23  C   UNL     1      -0.956  12.226  18.857  0.00  0.00    +0.000 A 
ATOM     24  C   UNL     1      -0.497  10.913  18.874  0.00  0.00    +0.000 A 
ATOM     25  C   UNL     1       0.861  10.614  18.749  0.00  0.00    +0.000 A 
ATOM     26  C   UNL     1       1.761  11.684  18.576  0.00  0.00    +0.000 A 
BRANCH  21  28
ATOM     27  C   UNL     1       3.754  13.784  18.122  0.00  0.00    +0.000 C 
ATOM     28  C   UNL     1       2.325  14.204  18.519  0.00  0.00    +0.000 C 
BRANCH  28  29
ATOM     29  S   UNL     1       2.406  15.071  20.136  0.00  0.00    +0.000 S 
BRANCH  29  30
ATOM     30  C   UNL     1       3.784  16.097  19.939  0.00  0.00    +0.000 A 
ATOM     31  N   UNL     1       3.912  17.131  19.139  0.00  0.00    +0.000 NA
ATOM     32  N   UNL     1       5.173  17.658  19.334  0.00  0.00    +0.000 NA
ATOM     33  C   UNL     1       5.771  16.930  20.250  0.00  0.00    +0.000 A 
ATOM     34  N   UNL     1       4.944  15.920  20.638  0.00  0.00    +0.000 N 
ATOM     35  C   UNL     1       5.262  14.868  21.564  0.00  0.00    +0.000 C 
ENDBRANCH  29  30
ENDBRANCH  28  29
ENDBRANCH  21  28
ENDBRANCH   1  25
TORSDOF 9
ENDMDL
MODEL 9
REMARK VINA RESULT:      -7.8      3.307      4.647
REMARK  Name = 
REMARK  11 active torsions:
REMARK  status: ('A' for Active; 'I' for Inactive)
REMARK    1  A    between atoms: C_1  and  C_2
REMARK    2  A    between atoms: C_2  and  S_3
REMARK    3  A    between atoms: C_2  and  C_10
REMARK    4  A    between atoms: S_3  and  C_4
REMARK    5  A    between atoms: N_8  and  C_9
REMARK    6  A    between atoms: C_14  and  N_15
REMARK    7  A    between atoms: C_16  and  C_18
REMARK    8  A    between atoms: C_22  and  O_23
REMARK    9  A    between atoms: O_23  and  C_24
REMARK   10  A    between atoms: C_24  and  C_25
REMARK   11  A    between atoms: C_25  and  O_27
REMARK                            x       y       z     vdW  Elec       q    Type
REMARK                         _______ _______ _______ _____ _____    ______ ____
ROOT
ATOM      1  N   UNL     1       0.909   9.582  19.091  0.00  0.00    +0.000 N 
ATOM      2  C   UNL     1       1.299   8.832  20.204  0.00  0.00    +0.000 C 
ATOM      3  O   UNL     1       1.201   9.167  21.378  0.00  0.00    +0.000 OA
ATOM      4  H   UNL     1       1.143   9.204  18.180  0.00  0.00    +0.000 HD
ENDROOT
BRANCH   2   5
ATOM      5  C   UNL     1       1.812   7.462  19.965  0.00  0.00    +0.000 A 
ATOM      6  C   UNL     1       2.553   7.281  18.801  0.00  0.00    +0.000 A 
ATOM      7  C   UNL     1       3.102   6.032  18.550  0.00  0.00    +0.000 A 
ATOM      8  C   UNL     1       4.072   5.890  17.567  0.00  0.00    +0.000 A 
ATOM      9  C   UNL     1       4.674   4.659  17.331  0.00  0.00    +0.000 A 
ATOM     10  C   UNL     1       4.189   3.515  17.960  0.00  0.00    +0.000 A 
ATOM     11  C   UNL     1       3.207   3.651  18.958  0.00  0.00    +0.000 A 
ATOM     12  C   UNL     1       2.731   4.932  19.333  0.00  0.00    +0.000 A 
ATOM     13  C   UNL     1       1.946   5.220  20.466  0.00  0.00    +0.000 A 
ATOM     14  N   UNL     1       1.539   6.466  20.843  0.00  0.00    +0.000 NA
BRANCH   9  15
ATOM     15  O   UNL     1       5.773   4.763  16.544  0.00  0.00    +0.000 OA
BRANCH  15  16
ATOM     16  C   UNL     1       6.820   5.654  16.909  0.00  0.00    +0.000 C 
BRANCH  16  17
ATOM     17  C   UNL     1       7.500   4.985  18.086  0.00  0.00    +0.000 C 
ATOM     18  O   UNL     1       7.315   5.294  19.255  0.00  0.00    +0.000 OA
BRANCH  17  19
ATOM     19  O   UNL     1       8.375   4.006  17.728  0.00  0.00    +0.000 OA
ATOM     20  H   UNL     1       8.865   3.704  18.529  0.00  0.00    +0.000 HD
ENDBRANCH  17  19
ENDBRANCH  16  17
ENDBRANCH  15  16
ENDBRANCH   9  15
ENDBRANCH   2   5
BRANCH   1  25
ATOM     21  C   UNL     1       0.395  13.297  19.429  0.00  0.00    +0.000 A 
ATOM     22  C   UNL     1      -1.005  13.354  19.341  0.00  0.00    +0.000 A 
ATOM     23  C   UNL     1      -1.762  12.201  19.166  0.00  0.00    +0.000 A 
ATOM     24  C   UNL     1      -1.134  10.963  19.072  0.00  0.00    +0.000 A 
ATOM     25  C   UNL     1       0.255  10.842  19.156  0.00  0.00    +0.000 A 
ATOM     26  C   UNL     1       1.014  12.019  19.311  0.00  0.00    +0.000 A 
BRANCH  21  28
ATOM     27  C   UNL     1       0.880  15.767  18.837  0.00  0.00    +0.000 C 
ATOM     28  C   UNL     1       1.224  14.559  19.731  0.00  0.00    +0.000 C 
BRANCH  28  29
ATOM     29  S   UNL     1       3.020  14.211  19.567  0.00  0.00    +0.000 S 
BRANCH  29  30
ATOM     30  C   UNL     1       3.634  14.689  21.111  0.00  0.00    +0.000 A 
ATOM     31  N   UNL     1       3.681  13.979  22.215  0.00  0.00    +0.000 NA
ATOM     32  N   UNL     1       4.273  14.759  23.189  0.00  0.00    +0.000 NA
ATOM     33  C   UNL     1       4.571  15.918  22.645  0.00  0.00    +0.000 A 
ATOM     34  N   UNL     1       4.161  15.927  21.347  0.00  0.00    +0.000 N 
ATOM     35  C   UNL     1       4.239  17.038  20.438  0.00  0.00    +0.000 C 
ENDBRANCH  29  30
ENDBRANCH  28  29
ENDBRANCH  21  28
ENDBRANCH   1  25
TORSDOF 9
ENDMDL
