MODEL 1
REMARK VINA RESULT:     -10.0      0.000      0.000
REMARK  Name = 
REMARK  8 active torsions:
REMARK  status: ('A' for Active; 'I' for Inactive)
REMARK    1  A    between atoms: C_1  and  N_2
REMARK    2  A    between atoms: C_6  and  C_7
REMARK    3  A    between atoms: C_7  and  C_8
REMARK    4  A    between atoms: C_8  and  C_9
REMARK    5  A    between atoms: C_13  and  N_14
REMARK    6  A    between atoms: C_19  and  C_20
REMARK    7  A    between atoms: C_20  and  N_21
REMARK    8  A    between atoms: C_31  and  C_32
REMARK                            x       y       z     vdW  Elec       q    Type
REMARK                         _______ _______ _______ _____ _____    ______ ____
ROOT
ATOM      1  N   UNL     1       2.342   7.446  19.299  0.00  0.00    +0.000 N 
ATOM      2  C   UNL     1       1.575   7.783  20.474  0.00  0.00    +0.000 C 
ATOM      3  C   UNL     1       1.041   9.132  20.216  0.00  0.00    +0.000 A 
ATOM      4  C   UNL     1       1.362   9.528  18.911  0.00  0.00    +0.000 A 
ATOM      5  C   UNL     1       0.913  10.753  18.428  0.00  0.00    +0.000 A 
ATOM      6  C   UNL     1       0.134  11.568  19.290  0.00  0.00    +0.000 A 
ATOM      7  C   UNL     1      -0.151  11.126  20.610  0.00  0.00    +0.000 A 
ATOM      8  C   UNL     1       0.319   9.905  21.102  0.00  0.00    +0.000 A 
ATOM      9  C   UNL     1       2.231   8.451  18.317  0.00  0.00    +0.000 C 
ATOM     10  O   UNL     1       2.749   8.524  17.217  0.00  0.00    +0.000 OA
ENDROOT
BRANCH   1  15
ATOM     11  C   UNL     1       5.389   5.294  18.820  0.00  0.00    +0.000 A 
ATOM     12  C   UNL     1       4.880   4.054  19.226  0.00  0.00    +0.000 A 
ATOM     13  C   UNL     1       3.565   3.924  19.710  0.00  0.00    +0.000 A 
ATOM     14  C   UNL     1       2.696   5.027  19.782  0.00  0.00    +0.000 A 
ATOM     15  C   UNL     1       3.145   6.271  19.367  0.00  0.00    +0.000 A 
ATOM     16  C   UNL     1       4.488   6.363  18.932  0.00  0.00    +0.000 A 
BRANCH  11  17
ATOM     17  C   UNL     1       6.886   5.558  18.263  0.00  0.00    +0.000 C 
ATOM     18  C   UNL     1       7.939   5.920  19.346  0.00  0.00    +0.000 C 
ATOM     19  O   UNL     1       8.194   7.214  18.771  0.00  0.00    +0.000 OA
ATOM     20  C   UNL     1       7.232   6.983  17.721  0.00  0.00    +0.000 C 
BRANCH  17  21
ATOM     21  C   UNL     1       7.338   4.423  17.312  0.00  0.00    +0.000 C 
BRANCH  21  27
ATOM     22  C   UNL     1       4.667   3.492  15.853  0.00  0.00    +0.000 C 
ATOM     23  N   UNL     1       5.797   4.165  15.270  0.00  0.00    +0.000 N 
ATOM     24  C   UNL     1       5.919   4.463  13.945  0.00  0.00    +0.000 A 
ATOM     25  N   UNL     1       7.061   5.071  13.739  0.00  0.00    +0.000 NA
ATOM     26  N   UNL     1       7.707   5.163  14.946  0.00  0.00    +0.000 NA
ATOM     27  C   UNL     1       6.949   4.610  15.876  0.00  0.00    +0.000 A 
ENDBRANCH  21  27
ENDBRANCH  17  21
ENDBRANCH  11  17
ENDBRANCH   1  15
BRANCH   8  28
ATOM     28  C   UNL     1       0.075   9.494  22.525  0.00  0.00    +0.000 C 
ATOM     29  F   UNL     1      -0.738   8.407  22.657  0.00  0.00    +0.000 F 
ATOM     30  F   UNL     1       1.227   9.173  23.174  0.00  0.00    +0.000 F 
ATOM     31  F   UNL     1      -0.517  10.475  23.258  0.00  0.00    +0.000 F 
ENDBRANCH   8  28
BRANCH   6  32
ATOM     32  C   UNL     1      -0.462  12.916  18.877  0.00  0.00    +0.000 C 
BRANCH  32  33
ATOM     33  N   UNL     1      -0.043  13.986  19.792  0.00  0.00    +0.000 NA
ATOM     34  C   UNL     1       1.395  14.230  19.865  0.00  0.00    +0.000 C 
ATOM     35  C   UNL     1       1.953  15.179  18.803  0.00  0.00    +0.000 C 
ATOM     36  C   UNL     1       1.089  16.401  18.529  0.00  0.00    +0.000 C 
ATOM     37  O   UNL     1       1.323  17.444  19.488  0.00  0.00    +0.000 OA
ATOM     38  C   UNL     1       0.229  18.362  19.357  0.00  0.00    +0.000 C 
ATOM     39  C   UNL     1      -0.948  17.574  18.793  0.00  0.00    +0.000 C 
ATOM     40  C   UNL     1      -0.410  16.162  18.579  0.00  0.00    +0.000 C 
ATOM     41  C   UNL     1      -0.801  15.233  19.734  0.00  0.00    +0.000 C 
ENDBRANCH  32  33
ENDBRANCH   6  32
TORSDOF 7
ENDMDL
MODEL 2
REMARK VINA RESULT:      -9.9      2.971      9.975
REMARK  Name = 
REMARK  8 active torsions:
REMARK  status: ('A' for Active; 'I' for Inactive)
REMARK    1  A    between atoms: C_1  and  N_2
REMARK    2  A    between atoms: C_6  and  C_7
REMARK    3  A    between atoms: C_7  and  C_8
REMARK    4  A    between atoms: C_8  and  C_9
REMARK    5  A    between atoms: C_13  and  N_14
REMARK    6  A    between atoms: C_19  and  C_20
REMARK    7  A    between atoms: C_20  and  N_21
REMARK    8  A    between atoms: C_31  and  C_32
REMARK                            x       y       z     vdW  Elec       q    Type
REMARK                         _______ _______ _______ _____ _____    ______ ____
ROOT
ATOM      1  N   UNL     1       1.430   8.092  20.269  0.00  0.00    +0.000 N 
ATOM      2  C   UNL     1       1.563   6.777  20.849  0.00  0.00    +0.000 C 
ATOM      3  C   UNL     1       2.276   5.976  19.839  0.00  0.00    +0.000 A 
ATOM      4  C   UNL     1       2.661   6.795  18.769  0.00  0.00    +0.000 A 
ATOM      5  C   UNL     1       3.396   6.260  17.716  0.00  0.00    +0.000 A 
ATOM      6  C   UNL     1       3.733   4.883  17.767  0.00  0.00    +0.000 A 
ATOM      7  C   UNL     1       3.306   4.092  18.868  0.00  0.00    +0.000 A 
ATOM      8  C   UNL     1       2.548   4.626  19.915  0.00  0.00    +0.000 A 
ATOM      9  C   UNL     1       2.091   8.165  19.027  0.00  0.00    +0.000 C 
ATOM     10  O   UNL     1       2.177   9.096  18.245  0.00  0.00    +0.000 OA
ENDROOT
BRANCH   1  15
ATOM     11  C   UNL     1      -0.823  11.074  20.694  0.00  0.00    +0.000 A 
ATOM     12  C   UNL     1      -0.967  11.075  22.086  0.00  0.00    +0.000 A 
ATOM     13  C   UNL     1      -0.382  10.076  22.886  0.00  0.00    +0.000 A 
ATOM     14  C   UNL     1       0.397   9.049  22.324  0.00  0.00    +0.000 A 
ATOM     15  C   UNL     1       0.591   9.018  20.953  0.00  0.00    +0.000 A 
ATOM     16  C   UNL     1      -0.055  10.015  20.185  0.00  0.00    +0.000 A 
BRANCH  11  17
ATOM     17  C   UNL     1      -1.464  12.162  19.682  0.00  0.00    +0.000 C 
ATOM     18  C   UNL     1      -0.531  12.621  18.528  0.00  0.00    +0.000 C 
ATOM     19  O   UNL     1      -0.534  13.990  18.971  0.00  0.00    +0.000 OA
ATOM     20  C   UNL     1      -1.398  13.672  20.082  0.00  0.00    +0.000 C 
BRANCH  17  21
ATOM     21  C   UNL     1      -2.870  11.724  19.205  0.00  0.00    +0.000 C 
BRANCH  21  27
ATOM     22  C   UNL     1      -5.205  12.078  17.071  0.00  0.00    +0.000 C 
ATOM     23  N   UNL     1      -3.972  11.356  16.911  0.00  0.00    +0.000 N 
ATOM     24  C   UNL     1      -3.634  10.641  15.800  0.00  0.00    +0.000 A 
ATOM     25  N   UNL     1      -2.452  10.102  15.971  0.00  0.00    +0.000 NA
ATOM     26  N   UNL     1      -2.010  10.457  17.221  0.00  0.00    +0.000 NA
ATOM     27  C   UNL     1      -2.930  11.211  17.797  0.00  0.00    +0.000 A 
ENDBRANCH  21  27
ENDBRANCH  17  21
ENDBRANCH  11  17
ENDBRANCH   1  15
BRANCH   8  28
ATOM     28  C   UNL     1       2.038   3.757  21.027  0.00  0.00    +0.000 C 
ATOM     29  F   UNL     1       2.350   4.211  22.274  0.00  0.00    +0.000 F 
ATOM     30  F   UNL     1       0.683   3.636  21.007  0.00  0.00    +0.000 F 
ATOM     31  F   UNL     1       2.536   2.492  20.972  0.00  0.00    +0.000 F 
ENDBRANCH   8  28
BRANCH   6  32
ATOM     32  C   UNL     1       4.574   4.173  16.703  0.00  0.00    +0.000 C 
BRANCH  32  33
ATOM     33  N   UNL     1       4.960   5.097  15.627  0.00  0.00    +0.000 NA
ATOM     34  C   UNL     1       6.140   5.917  15.890  0.00  0.00    +0.000 C 
ATOM     35  C   UNL     1       7.480   5.262  15.551  0.00  0.00    +0.000 C 
ATOM     36  C   UNL     1       7.494   4.484  14.244  0.00  0.00    +0.000 C 
ATOM     37  O   UNL     1       7.706   5.347  13.115  0.00  0.00    +0.000 OA
ATOM     38  C   UNL     1       7.341   4.586  11.955  0.00  0.00    +0.000 C 
ATOM     39  C   UNL     1       6.340   3.531  12.412  0.00  0.00    +0.000 C 
ATOM     40  C   UNL     1       6.214   3.735  13.919  0.00  0.00    +0.000 C 
ATOM     41  C   UNL     1       4.968   4.557  14.270  0.00  0.00    +0.000 C 
ENDBRANCH  32  33
ENDBRANCH   6  32
TORSDOF 7
ENDMDL
MODEL 3
REMARK VINA RESULT:      -9.6      2.892      9.948
REMARK  Name = 
REMARK  8 active torsions:
REMARK  status: ('A' for Active; 'I' for Inactive)
REMARK    1  A    between atoms: C_1  and  N_2
REMARK    2  A    between atoms: C_6  and  C_7
REMARK    3  A    between atoms: C_7  and  C_8
REMARK    4  A    between atoms: C_8  and  C_9
REMARK    5  A    between atoms: C_13  and  N_14
REMARK    6  A    between atoms: C_19  and  C_20
REMARK    7  A    between atoms: C_20  and  N_21
REMARK    8  A    between atoms: C_31  and  C_32
REMARK                            x       y       z     vdW  Elec       q    Type
REMARK                         _______ _______ _______ _____ _____    ______ ____
ROOT
ATOM      1  N   UNL     1       1.440   8.162  20.215  0.00  0.00    +0.000 N 
ATOM      2  C   UNL     1       1.526   6.837  20.780  0.00  0.00    +0.000 C 
ATOM      3  C   UNL     1       2.245   6.032  19.777  0.00  0.00    +0.000 A 
ATOM      4  C   UNL     1       2.676   6.856  18.728  0.00  0.00    +0.000 A 
ATOM      5  C   UNL     1       3.425   6.317  17.686  0.00  0.00    +0.000 A 
ATOM      6  C   UNL     1       3.727   4.932  17.725  0.00  0.00    +0.000 A 
ATOM      7  C   UNL     1       3.253   4.137  18.804  0.00  0.00    +0.000 A 
ATOM      8  C   UNL     1       2.482   4.675  19.840  0.00  0.00    +0.000 A 
ATOM      9  C   UNL     1       2.133   8.236  18.991  0.00  0.00    +0.000 C 
ATOM     10  O   UNL     1       2.261   9.175  18.225  0.00  0.00    +0.000 OA
ENDROOT
BRANCH   1  15
ATOM     11  C   UNL     1      -0.866  11.109  20.599  0.00  0.00    +0.000 A 
ATOM     12  C   UNL     1      -0.955  11.169  21.995  0.00  0.00    +0.000 A 
ATOM     13  C   UNL     1      -0.315  10.220  22.814  0.00  0.00    +0.000 A 
ATOM     14  C   UNL     1       0.465   9.186  22.267  0.00  0.00    +0.000 A 
ATOM     15  C   UNL     1       0.606   9.099  20.891  0.00  0.00    +0.000 A 
ATOM     16  C   UNL     1      -0.094  10.046  20.107  0.00  0.00    +0.000 A 
BRANCH  11  17
ATOM     17  C   UNL     1      -1.572  12.136  19.567  0.00  0.00    +0.000 C 
ATOM     18  C   UNL     1      -3.118  12.236  19.688  0.00  0.00    +0.000 C 
ATOM     19  O   UNL     1      -3.328  11.760  18.347  0.00  0.00    +0.000 OA
ATOM     20  C   UNL     1      -1.909  11.624  18.129  0.00  0.00    +0.000 C 
BRANCH  17  21
ATOM     21  C   UNL     1      -0.859  13.510  19.568  0.00  0.00    +0.000 C 
BRANCH  21  27
ATOM     22  C   UNL     1       1.273  14.437  21.741  0.00  0.00    +0.000 C 
ATOM     23  N   UNL     1       1.531  13.886  20.438  0.00  0.00    +0.000 N 
ATOM     24  C   UNL     1       2.773  13.727  19.898  0.00  0.00    +0.000 A 
ATOM     25  N   UNL     1       2.665  13.205  18.701  0.00  0.00    +0.000 NA
ATOM     26  N   UNL     1       1.329  13.028  18.444  0.00  0.00    +0.000 NA
ATOM     27  C   UNL     1       0.637  13.445  19.489  0.00  0.00    +0.000 A 
ENDBRANCH  21  27
ENDBRANCH  17  21
ENDBRANCH  11  17
ENDBRANCH   1  15
BRANCH   8  28
ATOM     28  C   UNL     1       1.923   3.803  20.926  0.00  0.00    +0.000 C 
ATOM     29  F   UNL     1       2.252   2.485  20.803  0.00  0.00    +0.000 F 
ATOM     30  F   UNL     1       2.354   4.177  22.161  0.00  0.00    +0.000 F 
ATOM     31  F   UNL     1       0.564   3.830  20.970  0.00  0.00    +0.000 F 
ENDBRANCH   8  28
BRANCH   6  32
ATOM     32  C   UNL     1       4.577   4.217  16.672  0.00  0.00    +0.000 C 
BRANCH  32  33
ATOM     33  N   UNL     1       4.972   5.134  15.595  0.00  0.00    +0.000 NA
ATOM     34  C   UNL     1       6.157   5.948  15.859  0.00  0.00    +0.000 C 
ATOM     35  C   UNL     1       7.494   5.284  15.527  0.00  0.00    +0.000 C 
ATOM     36  C   UNL     1       7.507   4.502  14.222  0.00  0.00    +0.000 C 
ATOM     37  O   UNL     1       7.727   5.360  13.091  0.00  0.00    +0.000 OA
ATOM     38  C   UNL     1       7.361   4.597  11.932  0.00  0.00    +0.000 C 
ATOM     39  C   UNL     1       6.352   3.551  12.389  0.00  0.00    +0.000 C 
ATOM     40  C   UNL     1       6.223   3.760  13.896  0.00  0.00    +0.000 C 
ATOM     41  C   UNL     1       4.981   4.590  14.240  0.00  0.00    +0.000 C 
ENDBRANCH  32  33
ENDBRANCH   6  32
TORSDOF 7
ENDMDL
MODEL 4
REMARK VINA RESULT:      -9.6      2.962      9.986
REMARK  Name = 
REMARK  8 active torsions:
REMARK  status: ('A' for Active; 'I' for Inactive)
REMARK    1  A    between atoms: C_1  and  N_2
REMARK    2  A    between atoms: C_6  and  C_7
REMARK    3  A    between atoms: C_7  and  C_8
REMARK    4  A    between atoms: C_8  and  C_9
REMARK    5  A    between atoms: C_13  and  N_14
REMARK    6  A    between atoms: C_19  and  C_20
REMARK    7  A    between atoms: C_20  and  N_21
REMARK    8  A    between atoms: C_31  and  C_32
REMARK                            x       y       z     vdW  Elec       q    Type
REMARK                         _______ _______ _______ _____ _____    ______ ____
ROOT
ATOM      1  N   UNL     1       1.451   8.003  20.331  0.00  0.00    +0.000 N 
ATOM      2  C   UNL     1       1.551   6.668  20.873  0.00  0.00    +0.000 C 
ATOM      3  C   UNL     1       2.253   5.882  19.844  0.00  0.00    +0.000 A 
ATOM      4  C   UNL     1       2.663   6.724  18.801  0.00  0.00    +0.000 A 
ATOM      5  C   UNL     1       3.394   6.205  17.737  0.00  0.00    +0.000 A 
ATOM      6  C   UNL     1       3.701   4.820  17.748  0.00  0.00    +0.000 A 
ATOM      7  C   UNL     1       3.248   4.006  18.822  0.00  0.00    +0.000 A 
ATOM      8  C   UNL     1       2.496   4.525  19.880  0.00  0.00    +0.000 A 
ATOM      9  C   UNL     1       2.122   8.098  19.096  0.00  0.00    +0.000 C 
ATOM     10  O   UNL     1       2.233   9.050  18.343  0.00  0.00    +0.000 OA
ENDROOT
BRANCH   1  15
ATOM     11  C   UNL     1      -0.817  10.964  20.813  0.00  0.00    +0.000 A 
ATOM     12  C   UNL     1      -0.910  10.976  22.210  0.00  0.00    +0.000 A 
ATOM     13  C   UNL     1      -0.286   9.990  22.997  0.00  0.00    +0.000 A 
ATOM     14  C   UNL     1       0.483   8.966  22.415  0.00  0.00    +0.000 A 
ATOM     15  C   UNL     1       0.627   8.926  21.038  0.00  0.00    +0.000 A 
ATOM     16  C   UNL     1      -0.057   9.909  20.286  0.00  0.00    +0.000 A 
BRANCH  11  17
ATOM     17  C   UNL     1      -1.506  12.037  19.816  0.00  0.00    +0.000 C 
ATOM     18  C   UNL     1      -2.610  12.921  20.458  0.00  0.00    +0.000 C 
ATOM     19  O   UNL     1      -3.629  12.419  19.575  0.00  0.00    +0.000 OA
ATOM     20  C   UNL     1      -2.685  11.553  18.911  0.00  0.00    +0.000 C 
BRANCH  17  21
ATOM     21  C   UNL     1      -0.439  12.844  19.038  0.00  0.00    +0.000 C 
BRANCH  21  27
ATOM     22  C   UNL     1       2.666  12.692  18.352  0.00  0.00    +0.000 C 
ATOM     23  N   UNL     1       2.055  13.207  19.548  0.00  0.00    +0.000 N 
ATOM     24  C   UNL     1       2.745  13.673  20.628  0.00  0.00    +0.000 A 
ATOM     25  N   UNL     1       1.899  14.066  21.549  0.00  0.00    +0.000 NA
ATOM     26  N   UNL     1       0.632  13.845  21.071  0.00  0.00    +0.000 NA
ATOM     27  C   UNL     1       0.721  13.319  19.862  0.00  0.00    +0.000 A 
ENDBRANCH  21  27
ENDBRANCH  17  21
ENDBRANCH  11  17
ENDBRANCH   1  15
BRANCH   8  28
ATOM     28  C   UNL     1       1.959   3.634  20.962  0.00  0.00    +0.000 C 
ATOM     29  F   UNL     1       2.350   2.332  20.853  0.00  0.00    +0.000 F 
ATOM     30  F   UNL     1       2.351   4.034  22.202  0.00  0.00    +0.000 F 
ATOM     31  F   UNL     1       0.599   3.598  20.984  0.00  0.00    +0.000 F 
ENDBRANCH   8  28
BRANCH   6  32
ATOM     32  C   UNL     1       4.533   4.124  16.668  0.00  0.00    +0.000 C 
BRANCH  32  33
ATOM     33  N   UNL     1       4.917   5.063  15.605  0.00  0.00    +0.000 NA
ATOM     34  C   UNL     1       6.077   5.904  15.892  0.00  0.00    +0.000 C 
ATOM     35  C   UNL     1       7.434   5.278  15.569  0.00  0.00    +0.000 C 
ATOM     36  C   UNL     1       7.483   4.511  14.256  0.00  0.00    +0.000 C 
ATOM     37  O   UNL     1       7.695   5.387  13.137  0.00  0.00    +0.000 OA
ATOM     38  C   UNL     1       7.362   4.628  11.966  0.00  0.00    +0.000 C 
ATOM     39  C   UNL     1       6.375   3.550  12.400  0.00  0.00    +0.000 C 
ATOM     40  C   UNL     1       6.223   3.740  13.907  0.00  0.00    +0.000 C 
ATOM     41  C   UNL     1       4.956   4.534  14.245  0.00  0.00    +0.000 C 
ENDBRANCH  32  33
ENDBRANCH   6  32
TORSDOF 7
ENDMDL
MODEL 5
REMARK VINA RESULT:      -9.5      1.427      2.309
REMARK  Name = 
REMARK  8 active torsions:
REMARK  status: ('A' for Active; 'I' for Inactive)
REMARK    1  A    between atoms: C_1  and  N_2
REMARK    2  A    between atoms: C_6  and  C_7
REMARK    3  A    between atoms: C_7  and  C_8
REMARK    4  A    between atoms: C_8  and  C_9
REMARK    5  A    between atoms: C_13  and  N_14
REMARK    6  A    between atoms: C_19  and  C_20
REMARK    7  A    between atoms: C_20  and  N_21
REMARK    8  A    between atoms: C_31  and  C_32
REMARK                            x       y       z     vdW  Elec       q    Type
REMARK                         _______ _______ _______ _____ _____    ______ ____
ROOT
ATOM      1  N   UNL     1       2.189   7.424  19.175  0.00  0.00    +0.000 N 
ATOM      2  C   UNL     1       1.459   7.772  20.370  0.00  0.00    +0.000 C 
ATOM      3  C   UNL     1       1.004   9.157  20.159  0.00  0.00    +0.000 A 
ATOM      4  C   UNL     1       1.333   9.572  18.861  0.00  0.00    +0.000 A 
ATOM      5  C   UNL     1       0.953  10.836  18.421  0.00  0.00    +0.000 A 
ATOM      6  C   UNL     1       0.237  11.670  19.317  0.00  0.00    +0.000 A 
ATOM      7  C   UNL     1      -0.058  11.207  20.628  0.00  0.00    +0.000 A 
ATOM      8  C   UNL     1       0.342   9.945  21.077  0.00  0.00    +0.000 A 
ATOM      9  C   UNL     1       2.127   8.462  18.225  0.00  0.00    +0.000 C 
ATOM     10  O   UNL     1       2.635   8.536  17.119  0.00  0.00    +0.000 OA
ENDROOT
BRANCH   1  15
ATOM     11  C   UNL     1       4.571   4.782  17.952  0.00  0.00    +0.000 A 
ATOM     12  C   UNL     1       4.349   3.789  18.913  0.00  0.00    +0.000 A 
ATOM     13  C   UNL     1       3.470   3.994  19.992  0.00  0.00    +0.000 A 
ATOM     14  C   UNL     1       2.754   5.196  20.137  0.00  0.00    +0.000 A 
ATOM     15  C   UNL     1       2.920   6.201  19.197  0.00  0.00    +0.000 A 
ATOM     16  C   UNL     1       3.849   5.968  18.157  0.00  0.00    +0.000 A 
BRANCH  11  17
ATOM     17  C   UNL     1       5.569   4.657  16.684  0.00  0.00    +0.000 C 
ATOM     18  C   UNL     1       5.241   5.595  15.490  0.00  0.00    +0.000 C 
ATOM     19  O   UNL     1       5.008   4.495  14.593  0.00  0.00    +0.000 OA
ATOM     20  C   UNL     1       5.289   3.534  15.632  0.00  0.00    +0.000 C 
BRANCH  17  21
ATOM     21  C   UNL     1       7.050   4.713  17.128  0.00  0.00    +0.000 C 
BRANCH  21  27
ATOM     22  C   UNL     1       8.088   5.742  19.955  0.00  0.00    +0.000 C 
ATOM     23  N   UNL     1       7.961   6.498  18.739  0.00  0.00    +0.000 N 
ATOM     24  C   UNL     1       8.222   7.832  18.628  0.00  0.00    +0.000 A 
ATOM     25  N   UNL     1       8.008   8.217  17.394  0.00  0.00    +0.000 NA
ATOM     26  N   UNL     1       7.586   7.121  16.684  0.00  0.00    +0.000 NA
ATOM     27  C   UNL     1       7.549   6.079  17.495  0.00  0.00    +0.000 A 
ENDBRANCH  21  27
ENDBRANCH  17  21
ENDBRANCH  11  17
ENDBRANCH   1  15
BRANCH   8  28
ATOM     28  C   UNL     1       0.092   9.508  22.491  0.00  0.00    +0.000 C 
ATOM     29  F   UNL     1      -0.737   8.431  22.600  0.00  0.00    +0.000 F 
ATOM     30  F   UNL     1       1.239   9.156  23.133  0.00  0.00    +0.000 F 
ATOM     31  F   UNL     1      -0.485  10.482  23.245  0.00  0.00    +0.000 F 
ENDBRANCH   8  28
BRANCH   6  32
ATOM     32  C   UNL     1      -0.282  13.064  18.951  0.00  0.00    +0.000 C 
BRANCH  32  33
ATOM     33  N   UNL     1       0.315  14.095  19.810  0.00  0.00    +0.000 NA
ATOM     34  C   UNL     1       1.760  14.268  19.682  0.00  0.00    +0.000 C 
ATOM     35  C   UNL     1       2.209  15.208  18.562  0.00  0.00    +0.000 C 
ATOM     36  C   UNL     1       1.377  16.475  18.426  0.00  0.00    +0.000 C 
ATOM     37  O   UNL     1       1.796  17.488  19.355  0.00  0.00    +0.000 OA
ATOM     38  C   UNL     1       0.742  18.460  19.390  0.00  0.00    +0.000 C 
ATOM     39  C   UNL     1      -0.541  17.740  18.990  0.00  0.00    +0.000 C 
ATOM     40  C   UNL     1      -0.109  16.308  18.685  0.00  0.00    +0.000 C 
ATOM     41  C   UNL     1      -0.380  15.378  19.874  0.00  0.00    +0.000 C 
ENDBRANCH  32  33
ENDBRANCH   6  32
TORSDOF 7
ENDMDL
MODEL 6
REMARK VINA RESULT:      -9.5      2.704     10.154
REMARK  Name = 
REMARK  8 active torsions:
REMARK  status: ('A' for Active; 'I' for Inactive)
REMARK    1  A    between atoms: C_1  and  N_2
REMARK    2  A    between atoms: C_6  and  C_7
REMARK    3  A    between atoms: C_7  and  C_8
REMARK    4  A    between atoms: C_8  and  C_9
REMARK    5  A    between atoms: C_13  and  N_14
REMARK    6  A    between atoms: C_19  and  C_20
REMARK    7  A    between atoms: C_20  and  N_21
REMARK    8  A    between atoms: C_31  and  C_32
REMARK                            x       y       z     vdW  Elec       q    Type
REMARK                         _______ _______ _______ _____ _____    ______ ____
ROOT
ATOM      1  N   UNL     1       1.438   8.015  20.385  0.00  0.00    +0.000 N 
ATOM      2  C   UNL     1       1.557   6.683  20.930  0.00  0.00    +0.000 C 
ATOM      3  C   UNL     1       2.250   5.899  19.892  0.00  0.00    +0.000 A 
ATOM      4  C   UNL     1       2.637   6.741  18.840  0.00  0.00    +0.000 A 
ATOM      5  C   UNL     1       3.356   6.224  17.767  0.00  0.00    +0.000 A 
ATOM      6  C   UNL     1       3.674   4.841  17.778  0.00  0.00    +0.000 A 
ATOM      7  C   UNL     1       3.244   4.028  18.862  0.00  0.00    +0.000 A 
ATOM      8  C   UNL     1       2.503   4.544  19.929  0.00  0.00    +0.000 A 
ATOM      9  C   UNL     1       2.090   8.112  19.140  0.00  0.00    +0.000 C 
ATOM     10  O   UNL     1       2.182   9.062  18.382  0.00  0.00    +0.000 OA
ENDROOT
BRANCH   1  15
ATOM     11  C   UNL     1      -0.744  11.032  20.916  0.00  0.00    +0.000 A 
ATOM     12  C   UNL     1      -0.896  10.982  22.308  0.00  0.00    +0.000 A 
ATOM     13  C   UNL     1      -0.339   9.939  23.071  0.00  0.00    +0.000 A 
ATOM     14  C   UNL     1       0.417   8.915  22.472  0.00  0.00    +0.000 A 
ATOM     15  C   UNL     1       0.618   8.934  21.101  0.00  0.00    +0.000 A 
ATOM     16  C   UNL     1       0.000   9.975  20.370  0.00  0.00    +0.000 A 
BRANCH  11  17
ATOM     17  C   UNL     1      -1.353  12.174  19.945  0.00  0.00    +0.000 C 
ATOM     18  C   UNL     1      -2.025  13.371  20.672  0.00  0.00    +0.000 C 
ATOM     19  O   UNL     1      -3.311  13.100  20.087  0.00  0.00    +0.000 OA
ATOM     20  C   UNL     1      -2.791  11.963  19.367  0.00  0.00    +0.000 C 
BRANCH  17  21
ATOM     21  C   UNL     1      -0.326  12.599  18.868  0.00  0.00    +0.000 C 
BRANCH  21  27
ATOM     22  C   UNL     1       2.208  13.317  20.655  0.00  0.00    +0.000 C 
ATOM     23  N   UNL     1       1.383  14.220  19.898  0.00  0.00    +0.000 N 
ATOM     24  C   UNL     1       1.537  15.575  19.880  0.00  0.00    +0.000 A 
ATOM     25  N   UNL     1       0.629  16.107  19.100  0.00  0.00    +0.000 NA
ATOM     26  N   UNL     1      -0.144  15.085  18.606  0.00  0.00    +0.000 NA
ATOM     27  C   UNL     1       0.305  13.942  19.091  0.00  0.00    +0.000 A 
ENDBRANCH  21  27
ENDBRANCH  17  21
ENDBRANCH  11  17
ENDBRANCH   1  15
BRANCH   8  28
ATOM     28  C   UNL     1       1.990   3.652  21.022  0.00  0.00    +0.000 C 
ATOM     29  F   UNL     1       2.365   4.038  22.275  0.00  0.00    +0.000 F 
ATOM     30  F   UNL     1       0.631   3.595  21.045  0.00  0.00    +0.000 F 
ATOM     31  F   UNL     1       2.425   2.369  20.898  0.00  0.00    +0.000 F 
ENDBRANCH   8  28
BRANCH   6  32
ATOM     32  C   UNL     1       4.495   4.149  16.688  0.00  0.00    +0.000 C 
BRANCH  32  33
ATOM     33  N   UNL     1       4.917   5.103  15.653  0.00  0.00    +0.000 NA
ATOM     34  C   UNL     1       6.093   5.907  15.976  0.00  0.00    +0.000 C 
ATOM     35  C   UNL     1       7.439   5.255  15.656  0.00  0.00    +0.000 C 
ATOM     36  C   UNL     1       7.487   4.518  14.325  0.00  0.00    +0.000 C 
ATOM     37  O   UNL     1       7.736   5.414  13.231  0.00  0.00    +0.000 OA
ATOM     38  C   UNL     1       7.400   4.692  12.037  0.00  0.00    +0.000 C 
ATOM     39  C   UNL     1       6.381   3.630  12.432  0.00  0.00    +0.000 C 
ATOM     40  C   UNL     1       6.213   3.788  13.941  0.00  0.00    +0.000 C 
ATOM     41  C   UNL     1       4.962   4.606  14.281  0.00  0.00    +0.000 C 
ENDBRANCH  32  33
ENDBRANCH   6  32
TORSDOF 7
ENDMDL
MODEL 7
REMARK VINA RESULT:      -9.4      3.153     10.622
REMARK  Name = 
REMARK  8 active torsions:
REMARK  status: ('A' for Active; 'I' for Inactive)
REMARK    1  A    between atoms: C_1  and  N_2
REMARK    2  A    between atoms: C_6  and  C_7
REMARK    3  A    between atoms: C_7  and  C_8
REMARK    4  A    between atoms: C_8  and  C_9
REMARK    5  A    between atoms: C_13  and  N_14
REMARK    6  A    between atoms: C_19  and  C_20
REMARK    7  A    between atoms: C_20  and  N_21
REMARK    8  A    between atoms: C_31  and  C_32
REMARK                            x       y       z     vdW  Elec       q    Type
REMARK                         _______ _______ _______ _____ _____    ______ ____
ROOT
ATOM      1  N   UNL     1       1.422   8.047  20.318  0.00  0.00    +0.000 N 
ATOM      2  C   UNL     1       1.495   6.707  20.848  0.00  0.00    +0.000 C 
ATOM      3  C   UNL     1       2.221   5.925  19.833  0.00  0.00    +0.000 A 
ATOM      4  C   UNL     1       2.671   6.774  18.812  0.00  0.00    +0.000 A 
ATOM      5  C   UNL     1       3.430   6.259  17.766  0.00  0.00    +0.000 A 
ATOM      6  C   UNL     1       3.724   4.871  17.773  0.00  0.00    +0.000 A 
ATOM      7  C   UNL     1       3.232   4.051  18.824  0.00  0.00    +0.000 A 
ATOM      8  C   UNL     1       2.451   4.565  19.863  0.00  0.00    +0.000 A 
ATOM      9  C   UNL     1       2.132   8.149  19.105  0.00  0.00    +0.000 C 
ATOM     10  O   UNL     1       2.275   9.108  18.366  0.00  0.00    +0.000 OA
ENDROOT
BRANCH   1  15
ATOM     11  C   UNL     1      -0.882  10.989  20.749  0.00  0.00    +0.000 A 
ATOM     12  C   UNL     1      -0.981  11.019  22.146  0.00  0.00    +0.000 A 
ATOM     13  C   UNL     1      -0.349  10.051  22.948  0.00  0.00    +0.000 A 
ATOM     14  C   UNL     1       0.434   9.028  22.384  0.00  0.00    +0.000 A 
ATOM     15  C   UNL     1       0.585   8.970  21.008  0.00  0.00    +0.000 A 
ATOM     16  C   UNL     1      -0.107   9.936  20.240  0.00  0.00    +0.000 A 
BRANCH  11  17
ATOM     17  C   UNL     1      -1.578  12.040  19.735  0.00  0.00    +0.000 C 
ATOM     18  C   UNL     1      -2.412  11.400  18.591  0.00  0.00    +0.000 C 
ATOM     19  O   UNL     1      -1.572  11.959  17.565  0.00  0.00    +0.000 OA
ATOM     20  C   UNL     1      -0.726  12.595  18.546  0.00  0.00    +0.000 C 
BRANCH  17  21
ATOM     21  C   UNL     1      -2.332  13.149  20.507  0.00  0.00    +0.000 C 
BRANCH  21  27
ATOM     22  C   UNL     1      -4.010  12.838  23.194  0.00  0.00    +0.000 C 
ATOM     23  N   UNL     1      -4.495  12.759  21.842  0.00  0.00    +0.000 N 
ATOM     24  C   UNL     1      -5.783  12.472  21.499  0.00  0.00    +0.000 A 
ATOM     25  N   UNL     1      -5.897  12.475  20.193  0.00  0.00    +0.000 NA
ATOM     26  N   UNL     1      -4.660  12.755  19.669  0.00  0.00    +0.000 NA
ATOM     27  C   UNL     1      -3.806  12.922  20.662  0.00  0.00    +0.000 A 
ENDBRANCH  21  27
ENDBRANCH  17  21
ENDBRANCH  11  17
ENDBRANCH   1  15
BRANCH   8  28
ATOM     28  C   UNL     1       1.873   3.668  20.918  0.00  0.00    +0.000 C 
ATOM     29  F   UNL     1       2.164   2.347  20.743  0.00  0.00    +0.000 F 
ATOM     30  F   UNL     1       2.321   3.982  22.164  0.00  0.00    +0.000 F 
ATOM     31  F   UNL     1       0.515   3.731  20.973  0.00  0.00    +0.000 F 
ENDBRANCH   8  28
BRANCH   6  32
ATOM     32  C   UNL     1       4.584   4.179  16.712  0.00  0.00    +0.000 C 
BRANCH  32  33
ATOM     33  N   UNL     1       4.990   5.121  15.660  0.00  0.00    +0.000 NA
ATOM     34  C   UNL     1       6.197   5.897  15.937  0.00  0.00    +0.000 C 
ATOM     35  C   UNL     1       7.514   5.211  15.570  0.00  0.00    +0.000 C 
ATOM     36  C   UNL     1       7.495   4.472  14.240  0.00  0.00    +0.000 C 
ATOM     37  O   UNL     1       7.725   5.359  13.135  0.00  0.00    +0.000 OA
ATOM     38  C   UNL     1       7.329   4.643  11.957  0.00  0.00    +0.000 C 
ATOM     39  C   UNL     1       6.300   3.607  12.391  0.00  0.00    +0.000 C 
ATOM     40  C   UNL     1       6.190   3.771  13.905  0.00  0.00    +0.000 C 
ATOM     41  C   UNL     1       4.973   4.620  14.288  0.00  0.00    +0.000 C 
ENDBRANCH  32  33
ENDBRANCH   6  32
TORSDOF 7
ENDMDL
MODEL 8
REMARK VINA RESULT:      -9.4      0.805      1.226
REMARK  Name = 
REMARK  8 active torsions:
REMARK  status: ('A' for Active; 'I' for Inactive)
REMARK    1  A    between atoms: C_1  and  N_2
REMARK    2  A    between atoms: C_6  and  C_7
REMARK    3  A    between atoms: C_7  and  C_8
REMARK    4  A    between atoms: C_8  and  C_9
REMARK    5  A    between atoms: C_13  and  N_14
REMARK    6  A    between atoms: C_19  and  C_20
REMARK    7  A    between atoms: C_20  and  N_21
REMARK    8  A    between atoms: C_31  and  C_32
REMARK                            x       y       z     vdW  Elec       q    Type
REMARK                         _______ _______ _______ _____ _____    ______ ____
ROOT
ATOM      1  N   UNL     1       2.317   7.485  19.359  0.00  0.00    +0.000 N 
ATOM      2  C   UNL     1       1.529   7.802  20.526  0.00  0.00    +0.000 C 
ATOM      3  C   UNL     1       1.007   9.158  20.287  0.00  0.00    +0.000 A 
ATOM      4  C   UNL     1       1.355   9.580  18.997  0.00  0.00    +0.000 A 
ATOM      5  C   UNL     1       0.922  10.818  18.532  0.00  0.00    +0.000 A 
ATOM      6  C   UNL     1       0.132  11.619  19.397  0.00  0.00    +0.000 A 
ATOM      7  C   UNL     1      -0.180  11.151  20.702  0.00  0.00    +0.000 A 
ATOM      8  C   UNL     1       0.273   9.916  21.176  0.00  0.00    +0.000 A 
ATOM      9  C   UNL     1       2.229   8.511  18.397  0.00  0.00    +0.000 C 
ATOM     10  O   UNL     1       2.768   8.604  17.308  0.00  0.00    +0.000 OA
ENDROOT
BRANCH   1  15
ATOM     11  C   UNL     1       5.344   5.312  18.848  0.00  0.00    +0.000 A 
ATOM     12  C   UNL     1       4.829   4.075  19.255  0.00  0.00    +0.000 A 
ATOM     13  C   UNL     1       3.518   3.953  19.750  0.00  0.00    +0.000 A 
ATOM     14  C   UNL     1       2.658   5.062  19.832  0.00  0.00    +0.000 A 
ATOM     15  C   UNL     1       3.112   6.304  19.417  0.00  0.00    +0.000 A 
ATOM     16  C   UNL     1       4.452   6.387  18.971  0.00  0.00    +0.000 A 
BRANCH  11  17
ATOM     17  C   UNL     1       6.838   5.567  18.279  0.00  0.00    +0.000 C 
ATOM     18  C   UNL     1       7.897   5.945  19.350  0.00  0.00    +0.000 C 
ATOM     19  O   UNL     1       8.149   7.230  18.754  0.00  0.00    +0.000 OA
ATOM     20  C   UNL     1       7.181   6.984  17.713  0.00  0.00    +0.000 C 
BRANCH  17  21
ATOM     21  C   UNL     1       7.284   4.418  17.343  0.00  0.00    +0.000 C 
BRANCH  21  27
ATOM     22  C   UNL     1       4.602   3.550  15.865  0.00  0.00    +0.000 C 
ATOM     23  N   UNL     1       5.758   4.181  15.287  0.00  0.00    +0.000 N 
ATOM     24  C   UNL     1       5.903   4.460  13.960  0.00  0.00    +0.000 A 
ATOM     25  N   UNL     1       7.065   5.031  13.759  0.00  0.00    +0.000 NA
ATOM     26  N   UNL     1       7.701   5.118  14.972  0.00  0.00    +0.000 NA
ATOM     27  C   UNL     1       6.916   4.599  15.900  0.00  0.00    +0.000 A 
ENDBRANCH  21  27
ENDBRANCH  17  21
ENDBRANCH  11  17
ENDBRANCH   1  15
BRANCH   8  28
ATOM     28  C   UNL     1       0.001   9.477  22.585  0.00  0.00    +0.000 C 
ATOM     29  F   UNL     1      -0.684  10.392  23.328  0.00  0.00    +0.000 F 
ATOM     30  F   UNL     1      -0.737   8.335  22.636  0.00  0.00    +0.000 F 
ATOM     31  F   UNL     1       1.140   9.228  23.285  0.00  0.00    +0.000 F 
ENDBRANCH   8  28
BRANCH   6  32
ATOM     32  C   UNL     1      -0.449  12.979  19.001  0.00  0.00    +0.000 C 
BRANCH  32  33
ATOM     33  N   UNL     1       0.270  14.077  19.661  0.00  0.00    +0.000 NA
ATOM     34  C   UNL     1       0.718  15.156  18.785  0.00  0.00    +0.000 C 
ATOM     35  C   UNL     1      -0.316  16.249  18.512  0.00  0.00    +0.000 C 
ATOM     36  C   UNL     1      -1.121  16.678  19.729  0.00  0.00    +0.000 C 
ATOM     37  O   UNL     1      -0.412  17.641  20.524  0.00  0.00    +0.000 OA
ATOM     38  C   UNL     1      -1.084  17.688  21.790  0.00  0.00    +0.000 C 
ATOM     39  C   UNL     1      -1.776  16.343  21.978  0.00  0.00    +0.000 C 
ATOM     40  C   UNL     1      -1.476  15.565  20.699  0.00  0.00    +0.000 C 
ATOM     41  C   UNL     1      -0.309  14.591  20.899  0.00  0.00    +0.000 C 
ENDBRANCH  32  33
ENDBRANCH   6  32
TORSDOF 7
ENDMDL
MODEL 9
REMARK VINA RESULT:      -9.4      2.908     10.131
REMARK  Name = 
REMARK  8 active torsions:
REMARK  status: ('A' for Active; 'I' for Inactive)
REMARK    1  A    between atoms: C_1  and  N_2
REMARK    2  A    between atoms: C_6  and  C_7
REMARK    3  A    between atoms: C_7  and  C_8
REMARK    4  A    between atoms: C_8  and  C_9
REMARK    5  A    between atoms: C_13  and  N_14
REMARK    6  A    between atoms: C_19  and  C_20
REMARK    7  A    between atoms: C_20  and  N_21
REMARK    8  A    between atoms: C_31  and  C_32
REMARK                            x       y       z     vdW  Elec       q    Type
REMARK                         _______ _______ _______ _____ _____    ______ ____
ROOT
ATOM      1  N   UNL     1       1.414   8.056  20.340  0.00  0.00    +0.000 N 
ATOM      2  C   UNL     1       1.544   6.733  20.902  0.00  0.00    +0.000 C 
ATOM      3  C   UNL     1       2.246   5.942  19.878  0.00  0.00    +0.000 A 
ATOM      4  C   UNL     1       2.630   6.773  18.816  0.00  0.00    +0.000 A 
ATOM      5  C   UNL     1       3.357   6.248  17.753  0.00  0.00    +0.000 A 
ATOM      6  C   UNL     1       3.687   4.869  17.783  0.00  0.00    +0.000 A 
ATOM      7  C   UNL     1       3.261   4.066  18.876  0.00  0.00    +0.000 A 
ATOM      8  C   UNL     1       2.512   4.589  19.934  0.00  0.00    +0.000 A 
ATOM      9  C   UNL     1       2.069   8.142  19.096  0.00  0.00    +0.000 C 
ATOM     10  O   UNL     1       2.156   9.083  18.326  0.00  0.00    +0.000 OA
ENDROOT
BRANCH   1  15
ATOM     11  C   UNL     1      -0.686  11.133  20.859  0.00  0.00    +0.000 A 
ATOM     12  C   UNL     1      -0.930  11.034  22.235  0.00  0.00    +0.000 A 
ATOM     13  C   UNL     1      -0.462   9.940  22.986  0.00  0.00    +0.000 A 
ATOM     14  C   UNL     1       0.293   8.912  22.394  0.00  0.00    +0.000 A 
ATOM     15  C   UNL     1       0.583   8.977  21.041  0.00  0.00    +0.000 A 
ATOM     16  C   UNL     1       0.053  10.071  20.317  0.00  0.00    +0.000 A 
BRANCH  11  17
ATOM     17  C   UNL     1      -1.188  12.336  19.901  0.00  0.00    +0.000 C 
ATOM     18  C   UNL     1      -0.311  13.617  19.933  0.00  0.00    +0.000 C 
ATOM     19  O   UNL     1      -1.387  14.432  20.431  0.00  0.00    +0.000 OA
ATOM     20  C   UNL     1      -2.288  13.305  20.445  0.00  0.00    +0.000 C 
BRANCH  17  21
ATOM     21  C   UNL     1      -1.488  11.825  18.470  0.00  0.00    +0.000 C 
BRANCH  21  27
ATOM     22  C   UNL     1      -2.823  10.963  15.713  0.00  0.00    +0.000 C 
ATOM     23  N   UNL     1      -3.487  11.272  16.951  0.00  0.00    +0.000 N 
ATOM     24  C   UNL     1      -4.840  11.297  17.116  0.00  0.00    +0.000 A 
ATOM     25  N   UNL     1      -5.123  11.614  18.355  0.00  0.00    +0.000 NA
ATOM     26  N   UNL     1      -3.935  11.814  19.014  0.00  0.00    +0.000 NA
ATOM     27  C   UNL     1      -2.942  11.614  18.166  0.00  0.00    +0.000 A 
ENDBRANCH  21  27
ENDBRANCH  17  21
ENDBRANCH  11  17
ENDBRANCH   1  15
BRANCH   8  28
ATOM     28  C   UNL     1       2.003   3.708  21.036  0.00  0.00    +0.000 C 
ATOM     29  F   UNL     1       0.644   3.602  21.079  0.00  0.00    +0.000 F 
ATOM     30  F   UNL     1       2.469   2.434  20.935  0.00  0.00    +0.000 F 
ATOM     31  F   UNL     1       2.366   4.151  22.270  0.00  0.00    +0.000 F 
ENDBRANCH   8  28
BRANCH   6  32
ATOM     32  C   UNL     1       4.519   4.170  16.705  0.00  0.00    +0.000 C 
BRANCH  32  33
ATOM     33  N   UNL     1       4.931   5.112  15.656  0.00  0.00    +0.000 NA
ATOM     34  C   UNL     1       6.104   5.927  15.962  0.00  0.00    +0.000 C 
ATOM     35  C   UNL     1       7.452   5.278  15.645  0.00  0.00    +0.000 C 
ATOM     36  C   UNL     1       7.498   4.525  14.324  0.00  0.00    +0.000 C 
ATOM     37  O   UNL     1       7.737   5.407  13.216  0.00  0.00    +0.000 OA
ATOM     38  C   UNL     1       7.400   4.668  12.034  0.00  0.00    +0.000 C 
ATOM     39  C   UNL     1       6.388   3.606  12.447  0.00  0.00    +0.000 C 
ATOM     40  C   UNL     1       6.226   3.782  13.955  0.00  0.00    +0.000 C 
ATOM     41  C   UNL     1       4.972   4.597  14.290  0.00  0.00    +0.000 C 
ENDBRANCH  32  33
ENDBRANCH   6  32
TORSDOF 7
ENDMDL
