MODEL 1
REMARK VINA RESULT:      -9.4      0.000      0.000
REMARK  Name = 
REMARK  8 active torsions:
REMARK  status: ('A' for Active; 'I' for Inactive)
REMARK    1  A    between atoms: C_1  and  O_2
REMARK    2  A    between atoms: O_2  and  C_3
REMARK    3  A    between atoms: C_3  and  C_4
REMARK    4  A    between atoms: C_3  and  C_11
REMARK    5  A    between atoms: C_4  and  C_5
REMARK    6  A    between atoms: N_9  and  C_10
REMARK    7  A    between atoms: C_15  and  N_16
REMARK    8  A    between atoms: C_23  and  C_24
REMARK                            x       y       z     vdW  Elec       q    Type
REMARK                         _______ _______ _______ _____ _____    ______ ____
ROOT
ATOM      1  C   UNL     1       4.683   4.995  18.328  0.00  0.00    +0.000 A 
ATOM      2  C   UNL     1       4.204   3.846  18.961  0.00  0.00    +0.000 A 
ATOM      3  C   UNL     1       3.063   3.913  19.778  0.00  0.00    +0.000 A 
ATOM      4  C   UNL     1       2.357   5.115  19.944  0.00  0.00    +0.000 A 
ATOM      5  C   UNL     1       2.794   6.269  19.309  0.00  0.00    +0.000 A 
ATOM      6  C   UNL     1       3.965   6.182  18.531  0.00  0.00    +0.000 A 
ENDROOT
BRANCH   5   7
ATOM      7  N   UNL     1       2.125   7.518  19.385  0.00  0.00    +0.000 N 
ATOM      8  C   UNL     1       1.486   7.904  20.629  0.00  0.00    +0.000 C 
ATOM      9  C   UNL     1       0.923   9.248  20.355  0.00  0.00    +0.000 A 
ATOM     10  C   UNL     1       1.242   9.630  19.057  0.00  0.00    +0.000 A 
ATOM     11  C   UNL     1       0.863  10.864  18.564  0.00  0.00    +0.000 A 
ATOM     12  C   UNL     1       0.145  11.714  19.417  0.00  0.00    +0.000 A 
ATOM     13  C   UNL     1      -0.187  11.315  20.729  0.00  0.00    +0.000 A 
ATOM     14  C   UNL     1       0.199  10.059  21.222  0.00  0.00    +0.000 A 
ATOM     15  C   UNL     1       2.008   8.525  18.417  0.00  0.00    +0.000 C 
ATOM     16  O   UNL     1       2.421   8.573  17.268  0.00  0.00    +0.000 OA
BRANCH  14  17
ATOM     17  C   UNL     1      -0.162   9.621  22.620  0.00  0.00    +0.000 C 
ATOM     18  F   UNL     1      -0.931   8.501  22.665  0.00  0.00    +0.000 F 
ATOM     19  F   UNL     1       0.938   9.336  23.374  0.00  0.00    +0.000 F 
ATOM     20  F   UNL     1      -0.851  10.570  23.300  0.00  0.00    +0.000 F 
ENDBRANCH  14  17
ENDBRANCH   5   7
BRANCH   1  21
ATOM     21  C   UNL     1       5.934   5.005  17.436  0.00  0.00    +0.000 C 
BRANCH  21  23
ATOM     22  C   UNL     1       7.757   5.542  18.957  0.00  0.00    +0.000 C 
ATOM     23  O   UNL     1       7.060   4.560  18.212  0.00  0.00    +0.000 OA
ENDBRANCH  21  23
BRANCH  21  24
ATOM     24  C   UNL     1       5.732   4.193  16.137  0.00  0.00    +0.000 C 
BRANCH  24  25
ATOM     25  C   UNL     1       6.612   4.657  15.024  0.00  0.00    +0.000 A 
ATOM     26  N   UNL     1       7.632   5.488  15.126  0.00  0.00    +0.000 NA
ATOM     27  N   UNL     1       8.221   5.604  13.891  0.00  0.00    +0.000 NA
ATOM     28  C   UNL     1       7.532   4.867  13.055  0.00  0.00    +0.000 A 
ATOM     29  N   UNL     1       6.492   4.286  13.711  0.00  0.00    +0.000 N 
ATOM     30  C   UNL     1       5.462   3.485  13.111  0.00  0.00    +0.000 C 
ENDBRANCH  24  25
ENDBRANCH  21  24
ENDBRANCH   1  21
TORSDOF 6
ENDMDL
MODEL 2
REMARK VINA RESULT:      -8.7      1.353      2.526
REMARK  Name = 
REMARK  8 active torsions:
REMARK  status: ('A' for Active; 'I' for Inactive)
REMARK    1  A    between atoms: C_1  and  O_2
REMARK    2  A    between atoms: O_2  and  C_3
REMARK    3  A    between atoms: C_3  and  C_4
REMARK    4  A    between atoms: C_3  and  C_11
REMARK    5  A    between atoms: C_4  and  C_5
REMARK    6  A    between atoms: N_9  and  C_10
REMARK    7  A    between atoms: C_15  and  N_16
REMARK    8  A    between atoms: C_23  and  C_24
REMARK                            x       y       z     vdW  Elec       q    Type
REMARK                         _______ _______ _______ _____ _____    ______ ____
ROOT
ATOM      1  C   UNL     1       4.512   4.408  18.010  0.00  0.00    +0.000 A 
ATOM      2  C   UNL     1       4.275   3.433  18.982  0.00  0.00    +0.000 A 
ATOM      3  C   UNL     1       3.441   3.715  20.077  0.00  0.00    +0.000 A 
ATOM      4  C   UNL     1       2.796   4.956  20.198  0.00  0.00    +0.000 A 
ATOM      5  C   UNL     1       2.992   5.937  19.236  0.00  0.00    +0.000 A 
ATOM      6  C   UNL     1       3.868   5.642  18.173  0.00  0.00    +0.000 A 
ENDROOT
BRANCH   5   7
ATOM      7  N   UNL     1       2.353   7.204  19.253  0.00  0.00    +0.000 N 
ATOM      8  C   UNL     1       1.642   7.621  20.446  0.00  0.00    +0.000 C 
ATOM      9  C   UNL     1       1.135   8.976  20.121  0.00  0.00    +0.000 A 
ATOM     10  C   UNL     1       1.551   9.334  18.843  0.00  0.00    +0.000 A 
ATOM     11  C   UNL     1       1.241  10.571  18.313  0.00  0.00    +0.000 A 
ATOM     12  C   UNL     1       0.490  11.450  19.106  0.00  0.00    +0.000 A 
ATOM     13  C   UNL     1       0.058  11.075  20.396  0.00  0.00    +0.000 A 
ATOM     14  C   UNL     1       0.376   9.816  20.927  0.00  0.00    +0.000 A 
ATOM     15  C   UNL     1       2.329   8.202  18.269  0.00  0.00    +0.000 C 
ATOM     16  O   UNL     1       2.821   8.225  17.151  0.00  0.00    +0.000 OA
BRANCH  14  17
ATOM     17  C   UNL     1      -0.092   9.405  22.302  0.00  0.00    +0.000 C 
ATOM     18  F   UNL     1      -0.876   8.294  22.307  0.00  0.00    +0.000 F 
ATOM     19  F   UNL     1       0.947   9.118  23.139  0.00  0.00    +0.000 F 
ATOM     20  F   UNL     1      -0.817  10.372  22.916  0.00  0.00    +0.000 F 
ENDBRANCH  14  17
ENDBRANCH   5   7
BRANCH   1  21
ATOM     21  C   UNL     1       5.427   4.181  16.797  0.00  0.00    +0.000 C 
BRANCH  21  23
ATOM     22  C   UNL     1       5.317   4.663  14.414  0.00  0.00    +0.000 C 
ATOM     23  O   UNL     1       5.022   5.066  15.739  0.00  0.00    +0.000 OA
ENDBRANCH  21  23
BRANCH  21  24
ATOM     24  C   UNL     1       6.923   4.315  17.160  0.00  0.00    +0.000 C 
BRANCH  24  25
ATOM     25  C   UNL     1       7.344   5.734  17.360  0.00  0.00    +0.000 A 
ATOM     26  N   UNL     1       7.439   6.662  16.427  0.00  0.00    +0.000 NA
ATOM     27  N   UNL     1       7.789   7.845  17.027  0.00  0.00    +0.000 NA
ATOM     28  C   UNL     1       7.929   7.611  18.309  0.00  0.00    +0.000 A 
ATOM     29  N   UNL     1       7.699   6.294  18.558  0.00  0.00    +0.000 N 
ATOM     30  C   UNL     1       7.851   5.640  19.828  0.00  0.00    +0.000 C 
ENDBRANCH  24  25
ENDBRANCH  21  24
ENDBRANCH   1  21
TORSDOF 6
ENDMDL
MODEL 3
REMARK VINA RESULT:      -8.5      1.075      1.300
REMARK  Name = 
REMARK  8 active torsions:
REMARK  status: ('A' for Active; 'I' for Inactive)
REMARK    1  A    between atoms: C_1  and  O_2
REMARK    2  A    between atoms: O_2  and  C_3
REMARK    3  A    between atoms: C_3  and  C_4
REMARK    4  A    between atoms: C_3  and  C_11
REMARK    5  A    between atoms: C_4  and  C_5
REMARK    6  A    between atoms: N_9  and  C_10
REMARK    7  A    between atoms: C_15  and  N_16
REMARK    8  A    between atoms: C_23  and  C_24
REMARK                            x       y       z     vdW  Elec       q    Type
REMARK                         _______ _______ _______ _____ _____    ______ ____
ROOT
ATOM      1  C   UNL     1       4.399   6.089  17.293  0.00  0.00    +0.000 A 
ATOM      2  C   UNL     1       3.796   4.839  17.444  0.00  0.00    +0.000 A 
ATOM      3  C   UNL     1       2.576   4.721  18.131  0.00  0.00    +0.000 A 
ATOM      4  C   UNL     1       1.917   5.850  18.640  0.00  0.00    +0.000 A 
ATOM      5  C   UNL     1       2.479   7.110  18.486  0.00  0.00    +0.000 A 
ATOM      6  C   UNL     1       3.724   7.193  17.831  0.00  0.00    +0.000 A 
ENDROOT
BRANCH   5   7
ATOM      7  N   UNL     1       1.869   8.311  18.931  0.00  0.00    +0.000 N 
ATOM      8  C   UNL     1       1.289   8.360  20.259  0.00  0.00    +0.000 C 
ATOM      9  C   UNL     1       0.777   9.745  20.391  0.00  0.00    +0.000 A 
ATOM     10  C   UNL     1       1.071  10.460  19.235  0.00  0.00    +0.000 A 
ATOM     11  C   UNL     1       0.732  11.795  19.117  0.00  0.00    +0.000 A 
ATOM     12  C   UNL     1       0.080  12.399  20.201  0.00  0.00    +0.000 A 
ATOM     13  C   UNL     1      -0.227  11.665  21.366  0.00  0.00    +0.000 A 
ATOM     14  C   UNL     1       0.118  10.309  21.477  0.00  0.00    +0.000 A 
ATOM     15  C   UNL     1       1.766   9.550  18.284  0.00  0.00    +0.000 C 
ATOM     16  O   UNL     1       2.143   9.899  17.175  0.00  0.00    +0.000 OA
BRANCH  14  17
ATOM     17  C   UNL     1      -0.217   9.514  22.716  0.00  0.00    +0.000 C 
ATOM     18  F   UNL     1      -1.054  10.157  23.572  0.00  0.00    +0.000 F 
ATOM     19  F   UNL     1      -0.836   8.335  22.422  0.00  0.00    +0.000 F 
ATOM     20  F   UNL     1       0.882   9.194  23.442  0.00  0.00    +0.000 F 
ENDBRANCH  14  17
ENDBRANCH   5   7
BRANCH   1  21
ATOM     21  C   UNL     1       5.741   6.295  16.574  0.00  0.00    +0.000 C 
BRANCH  21  23
ATOM     22  C   UNL     1       7.538   6.360  18.215  0.00  0.00    +0.000 C 
ATOM     23  O   UNL     1       6.606   7.072  17.420  0.00  0.00    +0.000 OA
ENDBRANCH  21  23
BRANCH  21  24
ATOM     24  C   UNL     1       6.374   4.959  16.123  0.00  0.00    +0.000 C 
BRANCH  24  25
ATOM     25  C   UNL     1       6.982   5.039  14.761  0.00  0.00    +0.000 A 
ATOM     26  N   UNL     1       8.061   5.719  14.424  0.00  0.00    +0.000 NA
ATOM     27  N   UNL     1       8.329   5.477  13.100  0.00  0.00    +0.000 NA
ATOM     28  C   UNL     1       7.393   4.679  12.647  0.00  0.00    +0.000 A 
ATOM     29  N   UNL     1       6.505   4.409  13.642  0.00  0.00    +0.000 N 
ATOM     30  C   UNL     1       5.294   3.650  13.505  0.00  0.00    +0.000 C 
ENDBRANCH  24  25
ENDBRANCH  21  24
ENDBRANCH   1  21
TORSDOF 6
ENDMDL
MODEL 4
REMARK VINA RESULT:      -8.4      4.064      8.658
REMARK  Name = 
REMARK  8 active torsions:
REMARK  status: ('A' for Active; 'I' for Inactive)
REMARK    1  A    between atoms: C_1  and  O_2
REMARK    2  A    between atoms: O_2  and  C_3
REMARK    3  A    between atoms: C_3  and  C_4
REMARK    4  A    between atoms: C_3  and  C_11
REMARK    5  A    between atoms: C_4  and  C_5
REMARK    6  A    between atoms: N_9  and  C_10
REMARK    7  A    between atoms: C_15  and  N_16
REMARK    8  A    between atoms: C_23  and  C_24
REMARK                            x       y       z     vdW  Elec       q    Type
REMARK                         _______ _______ _______ _____ _____    ______ ____
ROOT
ATOM      1  C   UNL     1      -0.257  10.882  20.166  0.00  0.00    +0.000 A 
ATOM      2  C   UNL     1      -0.369  11.046  21.548  0.00  0.00    +0.000 A 
ATOM      3  C   UNL     1       0.154  10.077  22.419  0.00  0.00    +0.000 A 
ATOM      4  C   UNL     1       0.836   8.952  21.930  0.00  0.00    +0.000 A 
ATOM      5  C   UNL     1       0.985   8.772  20.561  0.00  0.00    +0.000 A 
ATOM      6  C   UNL     1       0.412   9.738  19.711  0.00  0.00    +0.000 A 
ENDROOT
BRANCH   5   7
ATOM      7  N   UNL     1       1.691   7.689  19.975  0.00  0.00    +0.000 N 
ATOM      8  C   UNL     1       1.604   6.376  20.585  0.00  0.00    +0.000 C 
ATOM      9  C   UNL     1       2.426   5.506  19.710  0.00  0.00    +0.000 A 
ATOM     10  C   UNL     1       2.926   6.253  18.649  0.00  0.00    +0.000 A 
ATOM     11  C   UNL     1       3.697   5.665  17.665  0.00  0.00    +0.000 A 
ATOM     12  C   UNL     1       3.960   4.293  17.775  0.00  0.00    +0.000 A 
ATOM     13  C   UNL     1       3.461   3.543  18.862  0.00  0.00    +0.000 A 
ATOM     14  C   UNL     1       2.680   4.147  19.859  0.00  0.00    +0.000 A 
ATOM     15  C   UNL     1       2.468   7.661  18.810  0.00  0.00    +0.000 C 
ATOM     16  O   UNL     1       2.757   8.553  18.027  0.00  0.00    +0.000 OA
BRANCH  14  17
ATOM     17  C   UNL     1       2.152   3.354  21.029  0.00  0.00    +0.000 C 
ATOM     18  F   UNL     1       2.437   3.903  22.239  0.00  0.00    +0.000 F 
ATOM     19  F   UNL     1       0.795   3.227  20.999  0.00  0.00    +0.000 F 
ATOM     20  F   UNL     1       2.649   2.093  21.069  0.00  0.00    +0.000 F 
ENDBRANCH  14  17
ENDBRANCH   5   7
BRANCH   1  21
ATOM     21  C   UNL     1      -0.822  11.887  19.150  0.00  0.00    +0.000 C 
BRANCH  21  23
ATOM     22  C   UNL     1       0.085  14.139  19.329  0.00  0.00    +0.000 C 
ATOM     23  O   UNL     1       0.210  12.828  18.807  0.00  0.00    +0.000 OA
ENDBRANCH  21  23
BRANCH  21  24
ATOM     24  C   UNL     1      -1.441  11.189  17.919  0.00  0.00    +0.000 C 
BRANCH  24  25
ATOM     25  C   UNL     1      -2.912  11.417  17.804  0.00  0.00    +0.000 A 
ATOM     26  N   UNL     1      -3.729  11.766  18.780  0.00  0.00    +0.000 NA
ATOM     27  N   UNL     1      -4.984  11.942  18.252  0.00  0.00    +0.000 NA
ATOM     28  C   UNL     1      -4.915  11.667  16.972  0.00  0.00    +0.000 A 
ATOM     29  N   UNL     1      -3.646  11.296  16.654  0.00  0.00    +0.000 N 
ATOM     30  C   UNL     1      -3.203  10.830  15.370  0.00  0.00    +0.000 C 
ENDBRANCH  24  25
ENDBRANCH  21  24
ENDBRANCH   1  21
TORSDOF 6
ENDMDL
MODEL 5
REMARK VINA RESULT:      -8.3      4.335      8.772
REMARK  Name = 
REMARK  8 active torsions:
REMARK  status: ('A' for Active; 'I' for Inactive)
REMARK    1  A    between atoms: C_1  and  O_2
REMARK    2  A    between atoms: O_2  and  C_3
REMARK    3  A    between atoms: C_3  and  C_4
REMARK    4  A    between atoms: C_3  and  C_11
REMARK    5  A    between atoms: C_4  and  C_5
REMARK    6  A    between atoms: N_9  and  C_10
REMARK    7  A    between atoms: C_15  and  N_16
REMARK    8  A    between atoms: C_23  and  C_24
REMARK                            x       y       z     vdW  Elec       q    Type
REMARK                         _______ _______ _______ _____ _____    ______ ____
ROOT
ATOM      1  C   UNL     1       0.231  10.123  19.963  0.00  0.00    +0.000 A 
ATOM      2  C   UNL     1       0.378  10.350  21.333  0.00  0.00    +0.000 A 
ATOM      3  C   UNL     1       1.060   9.420  22.135  0.00  0.00    +0.000 A 
ATOM      4  C   UNL     1       1.643   8.271  21.578  0.00  0.00    +0.000 A 
ATOM      5  C   UNL     1       1.535   8.028  20.216  0.00  0.00    +0.000 A 
ATOM      6  C   UNL     1       0.808   8.956  19.444  0.00  0.00    +0.000 A 
ENDROOT
BRANCH   5   7
ATOM      7  N   UNL     1       2.124   6.917  19.559  0.00  0.00    +0.000 N 
ATOM      8  C   UNL     1       3.104   7.151  18.515  0.00  0.00    +0.000 C 
ATOM      9  C   UNL     1       3.515   5.794  18.081  0.00  0.00    +0.000 A 
ATOM     10  C   UNL     1       2.848   4.840  18.843  0.00  0.00    +0.000 A 
ATOM     11  C   UNL     1       3.083   3.491  18.661  0.00  0.00    +0.000 A 
ATOM     12  C   UNL     1       4.013   3.119  17.681  0.00  0.00    +0.000 A 
ATOM     13  C   UNL     1       4.677   4.090  16.903  0.00  0.00    +0.000 A 
ATOM     14  C   UNL     1       4.432   5.459  17.092  0.00  0.00    +0.000 A 
ATOM     15  C   UNL     1       1.944   5.547  19.792  0.00  0.00    +0.000 C 
ATOM     16  O   UNL     1       1.222   4.966  20.589  0.00  0.00    +0.000 OA
BRANCH  14  17
ATOM     17  C   UNL     1       5.130   6.503  16.255  0.00  0.00    +0.000 C 
ATOM     18  F   UNL     1       5.967   7.306  16.963  0.00  0.00    +0.000 F 
ATOM     19  F   UNL     1       5.900   5.951  15.274  0.00  0.00    +0.000 F 
ATOM     20  F   UNL     1       4.260   7.335  15.629  0.00  0.00    +0.000 F 
ENDBRANCH  14  17
ENDBRANCH   5   7
BRANCH   1  21
ATOM     21  C   UNL     1      -0.519  11.083  19.026  0.00  0.00    +0.000 C 
BRANCH  21  23
ATOM     22  C   UNL     1      -0.074  13.428  18.550  0.00  0.00    +0.000 C 
ATOM     23  O   UNL     1       0.397  12.092  18.568  0.00  0.00    +0.000 OA
ENDBRANCH  21  23
BRANCH  21  24
ATOM     24  C   UNL     1      -1.227  10.338  17.872  0.00  0.00    +0.000 C 
BRANCH  24  25
ATOM     25  C   UNL     1      -2.604  10.856  17.611  0.00  0.00    +0.000 A 
ATOM     26  N   UNL     1      -3.390  11.463  18.479  0.00  0.00    +0.000 NA
ATOM     27  N   UNL     1      -4.538  11.844  17.830  0.00  0.00    +0.000 NA
ATOM     28  C   UNL     1      -4.444  11.435  16.589  0.00  0.00    +0.000 A 
ATOM     29  N   UNL     1      -3.266  10.777  16.415  0.00  0.00    +0.000 N 
ATOM     30  C   UNL     1      -2.848  10.103  15.217  0.00  0.00    +0.000 C 
ENDBRANCH  24  25
ENDBRANCH  21  24
ENDBRANCH   1  21
TORSDOF 6
ENDMDL
MODEL 6
REMARK VINA RESULT:      -8.3      2.867      4.165
REMARK  Name = 
REMARK  8 active torsions:
REMARK  status: ('A' for Active; 'I' for Inactive)
REMARK    1  A    between atoms: C_1  and  O_2
REMARK    2  A    between atoms: O_2  and  C_3
REMARK    3  A    between atoms: C_3  and  C_4
REMARK    4  A    between atoms: C_3  and  C_11
REMARK    5  A    between atoms: C_4  and  C_5
REMARK    6  A    between atoms: N_9  and  C_10
REMARK    7  A    between atoms: C_15  and  N_16
REMARK    8  A    between atoms: C_23  and  C_24
REMARK                            x       y       z     vdW  Elec       q    Type
REMARK                         _______ _______ _______ _____ _____    ______ ____
ROOT
ATOM      1  C   UNL     1       3.006   6.357  19.225  0.00  0.00    +0.000 A 
ATOM      2  C   UNL     1       3.438   6.748  17.956  0.00  0.00    +0.000 A 
ATOM      3  C   UNL     1       2.989   7.956  17.397  0.00  0.00    +0.000 A 
ATOM      4  C   UNL     1       2.137   8.814  18.110  0.00  0.00    +0.000 A 
ATOM      5  C   UNL     1       1.708   8.465  19.383  0.00  0.00    +0.000 A 
ATOM      6  C   UNL     1       2.140   7.228  19.901  0.00  0.00    +0.000 A 
ENDROOT
BRANCH   5   7
ATOM      7  N   UNL     1       0.880   9.284  20.194  0.00  0.00    +0.000 N 
ATOM      8  C   UNL     1      -0.123  10.120  19.562  0.00  0.00    +0.000 C 
ATOM      9  C   UNL     1      -0.802  10.801  20.691  0.00  0.00    +0.000 A 
ATOM     10  C   UNL     1      -0.256  10.366  21.893  0.00  0.00    +0.000 A 
ATOM     11  C   UNL     1      -0.741  10.824  23.103  0.00  0.00    +0.000 A 
ATOM     12  C   UNL     1      -1.798  11.743  23.075  0.00  0.00    +0.000 A 
ATOM     13  C   UNL     1      -2.339  12.192  21.851  0.00  0.00    +0.000 A 
ATOM     14  C   UNL     1      -1.840  11.724  20.626  0.00  0.00    +0.000 A 
ATOM     15  C   UNL     1       0.832   9.396  21.590  0.00  0.00    +0.000 C 
ATOM     16  O   UNL     1       1.500   8.846  22.453  0.00  0.00    +0.000 OA
BRANCH  14  17
ATOM     17  C   UNL     1      -2.406  12.208  19.313  0.00  0.00    +0.000 C 
ATOM     18  F   UNL     1      -1.514  12.891  18.548  0.00  0.00    +0.000 F 
ATOM     19  F   UNL     1      -2.845  11.182  18.529  0.00  0.00    +0.000 F 
ATOM     20  F   UNL     1      -3.465  13.038  19.478  0.00  0.00    +0.000 F 
ENDBRANCH  14  17
ENDBRANCH   5   7
BRANCH   1  21
ATOM     21  C   UNL     1       3.437   5.043  19.894  0.00  0.00    +0.000 C 
BRANCH  21  23
ATOM     22  C   UNL     1       2.472   3.162  21.102  0.00  0.00    +0.000 C 
ATOM     23  O   UNL     1       2.282   4.424  20.487  0.00  0.00    +0.000 OA
ENDBRANCH  21  23
BRANCH  21  24
ATOM     24  C   UNL     1       4.190   4.110  18.918  0.00  0.00    +0.000 C 
BRANCH  24  25
ATOM     25  C   UNL     1       5.617   4.507  18.728  0.00  0.00    +0.000 A 
ATOM     26  N   UNL     1       6.436   4.958  19.659  0.00  0.00    +0.000 NA
ATOM     27  N   UNL     1       7.674   5.140  19.095  0.00  0.00    +0.000 NA
ATOM     28  C   UNL     1       7.580   4.825  17.827  0.00  0.00    +0.000 A 
ATOM     29  N   UNL     1       6.301   4.460  17.542  0.00  0.00    +0.000 N 
ATOM     30  C   UNL     1       5.788   4.140  16.239  0.00  0.00    +0.000 C 
ENDBRANCH  24  25
ENDBRANCH  21  24
ENDBRANCH   1  21
TORSDOF 6
ENDMDL
MODEL 7
REMARK VINA RESULT:      -8.3      2.266      2.784
REMARK  Name = 
REMARK  8 active torsions:
REMARK  status: ('A' for Active; 'I' for Inactive)
REMARK    1  A    between atoms: C_1  and  O_2
REMARK    2  A    between atoms: O_2  and  C_3
REMARK    3  A    between atoms: C_3  and  C_4
REMARK    4  A    between atoms: C_3  and  C_11
REMARK    5  A    between atoms: C_4  and  C_5
REMARK    6  A    between atoms: N_9  and  C_10
REMARK    7  A    between atoms: C_15  and  N_16
REMARK    8  A    between atoms: C_23  and  C_24
REMARK                            x       y       z     vdW  Elec       q    Type
REMARK                         _______ _______ _______ _____ _____    ______ ____
ROOT
ATOM      1  C   UNL     1       4.502   4.931  16.897  0.00  0.00    +0.000 A 
ATOM      2  C   UNL     1       3.821   3.729  16.693  0.00  0.00    +0.000 A 
ATOM      3  C   UNL     1       2.621   3.473  17.377  0.00  0.00    +0.000 A 
ATOM      4  C   UNL     1       2.058   4.426  18.239  0.00  0.00    +0.000 A 
ATOM      5  C   UNL     1       2.698   5.640  18.445  0.00  0.00    +0.000 A 
ATOM      6  C   UNL     1       3.922   5.852  17.780  0.00  0.00    +0.000 A 
ENDROOT
BRANCH   5   7
ATOM      7  N   UNL     1       2.187   6.678  19.266  0.00  0.00    +0.000 N 
ATOM      8  C   UNL     1       1.932   7.981  18.681  0.00  0.00    +0.000 C 
ATOM      9  C   UNL     1       1.389   8.790  19.799  0.00  0.00    +0.000 A 
ATOM     10  C   UNL     1       1.303   8.004  20.942  0.00  0.00    +0.000 A 
ATOM     11  C   UNL     1       0.791   8.513  22.120  0.00  0.00    +0.000 A 
ATOM     12  C   UNL     1       0.367   9.848  22.122  0.00  0.00    +0.000 A 
ATOM     13  C   UNL     1       0.470  10.645  20.962  0.00  0.00    +0.000 A 
ATOM     14  C   UNL     1       0.993  10.122  19.770  0.00  0.00    +0.000 A 
ATOM     15  C   UNL     1       1.819   6.645  20.617  0.00  0.00    +0.000 C 
ATOM     16  O   UNL     1       1.871   5.735  21.431  0.00  0.00    +0.000 OA
BRANCH  14  17
ATOM     17  C   UNL     1       1.116  10.972  18.529  0.00  0.00    +0.000 C 
ATOM     18  F   UNL     1       0.581  12.215  18.658  0.00  0.00    +0.000 F 
ATOM     19  F   UNL     1       2.416  11.174  18.167  0.00  0.00    +0.000 F 
ATOM     20  F   UNL     1       0.506  10.415  17.454  0.00  0.00    +0.000 F 
ENDBRANCH  14  17
ENDBRANCH   5   7
BRANCH   1  21
ATOM     21  C   UNL     1       5.829   5.275  16.202  0.00  0.00    +0.000 C 
BRANCH  21  23
ATOM     22  C   UNL     1       7.537   4.614  17.805  0.00  0.00    +0.000 C 
ATOM     23  O   UNL     1       6.791   5.655  17.202  0.00  0.00    +0.000 OA
ENDBRANCH  21  23
BRANCH  21  24
ATOM     24  C   UNL     1       6.324   4.132  15.288  0.00  0.00    +0.000 C 
BRANCH  24  25
ATOM     25  C   UNL     1       6.975   4.631  14.041  0.00  0.00    +0.000 A 
ATOM     26  N   UNL     1       7.889   5.579  13.960  0.00  0.00    +0.000 NA
ATOM     27  N   UNL     1       8.280   5.692  12.649  0.00  0.00    +0.000 NA
ATOM     28  C   UNL     1       7.578   4.833  11.952  0.00  0.00    +0.000 A 
ATOM     29  N   UNL     1       6.719   4.173  12.776  0.00  0.00    +0.000 N 
ATOM     30  C   UNL     1       5.723   3.224  12.365  0.00  0.00    +0.000 C 
ENDBRANCH  24  25
ENDBRANCH  21  24
ENDBRANCH   1  21
TORSDOF 6
ENDMDL
MODEL 8
REMARK VINA RESULT:      -8.3      2.982      4.436
REMARK  Name = 
REMARK  8 active torsions:
REMARK  status: ('A' for Active; 'I' for Inactive)
REMARK    1  A    between atoms: C_1  and  O_2
REMARK    2  A    between atoms: O_2  and  C_3
REMARK    3  A    between atoms: C_3  and  C_4
REMARK    4  A    between atoms: C_3  and  C_11
REMARK    5  A    between atoms: C_4  and  C_5
REMARK    6  A    between atoms: N_9  and  C_10
REMARK    7  A    between atoms: C_15  and  N_16
REMARK    8  A    between atoms: C_23  and  C_24
REMARK                            x       y       z     vdW  Elec       q    Type
REMARK                         _______ _______ _______ _____ _____    ______ ____
ROOT
ATOM      1  C   UNL     1       2.637   6.719  19.426  0.00  0.00    +0.000 A 
ATOM      2  C   UNL     1       2.869   7.001  18.078  0.00  0.00    +0.000 A 
ATOM      3  C   UNL     1       2.368   8.181  17.506  0.00  0.00    +0.000 A 
ATOM      4  C   UNL     1       1.665   9.121  18.277  0.00  0.00    +0.000 A 
ATOM      5  C   UNL     1       1.438   8.881  19.625  0.00  0.00    +0.000 A 
ATOM      6  C   UNL     1       1.915   7.669  20.161  0.00  0.00    +0.000 A 
ENDROOT
BRANCH   5   7
ATOM      7  N   UNL     1       0.775   9.788  20.491  0.00  0.00    +0.000 N 
ATOM      8  C   UNL     1       1.013  11.211  20.342  0.00  0.00    +0.000 C 
ATOM      9  C   UNL     1       0.153  11.841  21.373  0.00  0.00    +0.000 A 
ATOM     10  C   UNL     1      -0.560  10.857  22.048  0.00  0.00    +0.000 A 
ATOM     11  C   UNL     1      -1.466  11.186  23.038  0.00  0.00    +0.000 A 
ATOM     12  C   UNL     1      -1.638  12.544  23.339  0.00  0.00    +0.000 A 
ATOM     13  C   UNL     1      -0.901  13.537  22.659  0.00  0.00    +0.000 A 
ATOM     14  C   UNL     1       0.019  13.195  21.656  0.00  0.00    +0.000 A 
ATOM     15  C   UNL     1      -0.166   9.531  21.498  0.00  0.00    +0.000 C 
ATOM     16  O   UNL     1      -0.626   8.473  21.902  0.00  0.00    +0.000 OA
BRANCH  14  17
ATOM     17  C   UNL     1       0.819  14.252  20.933  0.00  0.00    +0.000 C 
ATOM     18  F   UNL     1       0.608  14.278  19.591  0.00  0.00    +0.000 F 
ATOM     19  F   UNL     1       0.527  15.511  21.370  0.00  0.00    +0.000 F 
ATOM     20  F   UNL     1       2.155  14.095  21.096  0.00  0.00    +0.000 F 
ENDBRANCH  14  17
ENDBRANCH   5   7
BRANCH   1  21
ATOM     21  C   UNL     1       3.135   5.440  20.116  0.00  0.00    +0.000 C 
BRANCH  21  23
ATOM     22  C   UNL     1       2.209   3.564  21.359  0.00  0.00    +0.000 C 
ATOM     23  O   UNL     1       2.071   4.904  20.922  0.00  0.00    +0.000 OA
ENDBRANCH  21  23
BRANCH  21  24
ATOM     24  C   UNL     1       3.709   4.418  19.110  0.00  0.00    +0.000 C 
BRANCH  24  25
ATOM     25  C   UNL     1       5.156   4.644  18.819  0.00  0.00    +0.000 A 
ATOM     26  N   UNL     1       6.072   5.057  19.674  0.00  0.00    +0.000 NA
ATOM     27  N   UNL     1       7.287   5.070  19.036  0.00  0.00    +0.000 NA
ATOM     28  C   UNL     1       7.085   4.693  17.797  0.00  0.00    +0.000 A 
ATOM     29  N   UNL     1       5.760   4.453  17.604  0.00  0.00    +0.000 N 
ATOM     30  C   UNL     1       5.140   4.115  16.354  0.00  0.00    +0.000 C 
ENDBRANCH  24  25
ENDBRANCH  21  24
ENDBRANCH   1  21
TORSDOF 6
ENDMDL
MODEL 9
REMARK VINA RESULT:      -8.1      1.817      2.819
REMARK  Name = 
REMARK  8 active torsions:
REMARK  status: ('A' for Active; 'I' for Inactive)
REMARK    1  A    between atoms: C_1  and  O_2
REMARK    2  A    between atoms: O_2  and  C_3
REMARK    3  A    between atoms: C_3  and  C_4
REMARK    4  A    between atoms: C_3  and  C_11
REMARK    5  A    between atoms: C_4  and  C_5
REMARK    6  A    between atoms: N_9  and  C_10
REMARK    7  A    between atoms: C_15  and  N_16
REMARK    8  A    between atoms: C_23  and  C_24
REMARK                            x       y       z     vdW  Elec       q    Type
REMARK                         _______ _______ _______ _____ _____    ______ ____
ROOT
ATOM      1  C   UNL     1       4.357   4.356  17.220  0.00  0.00    +0.000 A 
ATOM      2  C   UNL     1       3.695   3.251  17.759  0.00  0.00    +0.000 A 
ATOM      3  C   UNL     1       2.603   3.434  18.624  0.00  0.00    +0.000 A 
ATOM      4  C   UNL     1       2.126   4.719  18.930  0.00  0.00    +0.000 A 
ATOM      5  C   UNL     1       2.748   5.836  18.391  0.00  0.00    +0.000 A 
ATOM      6  C   UNL     1       3.867   5.624  17.562  0.00  0.00    +0.000 A 
ENDROOT
BRANCH   5   7
ATOM      7  N   UNL     1       2.313   7.169  18.610  0.00  0.00    +0.000 N 
ATOM      8  C   UNL     1       1.628   7.495  19.846  0.00  0.00    +0.000 C 
ATOM      9  C   UNL     1       1.352   8.948  19.746  0.00  0.00    +0.000 A 
ATOM     10  C   UNL     1       1.871   9.438  18.552  0.00  0.00    +0.000 A 
ATOM     11  C   UNL     1       1.778  10.779  18.233  0.00  0.00    +0.000 A 
ATOM     12  C   UNL     1       1.142  11.625  19.150  0.00  0.00    +0.000 A 
ATOM     13  C   UNL     1       0.605  11.120  20.354  0.00  0.00    +0.000 A 
ATOM     14  C   UNL     1       0.701   9.756  20.671  0.00  0.00    +0.000 A 
ATOM     15  C   UNL     1       2.485   8.305  17.808  0.00  0.00    +0.000 C 
ATOM     16  O   UNL     1       3.020   8.431  16.716  0.00  0.00    +0.000 OA
BRANCH  14  17
ATOM     17  C   UNL     1       0.119   9.206  21.951  0.00  0.00    +0.000 C 
ATOM     18  F   UNL     1      -0.733   8.164  21.765  0.00  0.00    +0.000 F 
ATOM     19  F   UNL     1       1.081   8.740  22.798  0.00  0.00    +0.000 F 
ATOM     20  F   UNL     1      -0.579  10.137  22.646  0.00  0.00    +0.000 F 
ENDBRANCH  14  17
ENDBRANCH   5   7
BRANCH   1  21
ATOM     21  C   UNL     1       5.570   4.236  16.284  0.00  0.00    +0.000 C 
BRANCH  21  23
ATOM     22  C   UNL     1       6.029   4.101  13.898  0.00  0.00    +0.000 C 
ATOM     23  O   UNL     1       5.103   3.938  14.957  0.00  0.00    +0.000 OA
ENDBRANCH  21  23
BRANCH  21  24
ATOM     24  C   UNL     1       6.478   5.485  16.342  0.00  0.00    +0.000 C 
BRANCH  24  25
ATOM     25  C   UNL     1       7.176   5.630  17.653  0.00  0.00    +0.000 A 
ATOM     26  N   UNL     1       7.388   4.675  18.538  0.00  0.00    +0.000 NA
ATOM     27  N   UNL     1       8.121   5.200  19.574  0.00  0.00    +0.000 NA
ATOM     28  C   UNL     1       8.316   6.469  19.316  0.00  0.00    +0.000 A 
ATOM     29  N   UNL     1       7.709   6.794  18.142  0.00  0.00    +0.000 N 
ATOM     30  C   UNL     1       7.622   8.111  17.577  0.00  0.00    +0.000 C 
ENDBRANCH  24  25
ENDBRANCH  21  24
ENDBRANCH   1  21
TORSDOF 6
ENDMDL
