MODEL 1
REMARK VINA RESULT:      -9.6      0.000      0.000
REMARK  Name = 
REMARK  8 active torsions:
REMARK  status: ('A' for Active; 'I' for Inactive)
REMARK    1  A    between atoms: C_1  and  N_2
REMARK    2  A    between atoms: C_6  and  C_7
REMARK    3  A    between atoms: C_7  and  C_8
REMARK    4  A    between atoms: C_8  and  C_9
REMARK    5  A    between atoms: C_13  and  N_14
REMARK    6  A    between atoms: C_19  and  C_20
REMARK    7  A    between atoms: C_20  and  C_21
REMARK    8  A    between atoms: C_29  and  C_30
REMARK                            x       y       z     vdW  Elec       q    Type
REMARK                         _______ _______ _______ _____ _____    ______ ____
ROOT
ATOM      1  N   UNL     1       2.342   7.298  19.403  0.00  0.00    +0.000 N 
ATOM      2  C   UNL     1       1.575   7.646  20.584  0.00  0.00    +0.000 C 
ATOM      3  C   UNL     1       1.023   8.981  20.277  0.00  0.00    +0.000 A 
ATOM      4  C   UNL     1       1.324   9.332  18.967  0.00  0.00    +0.000 A 
ATOM      5  C   UNL     1       0.841  10.502  18.415  0.00  0.00    +0.000 A 
ATOM      6  C   UNL     1       0.039  11.339  19.227  0.00  0.00    +0.000 A 
ATOM      7  C   UNL     1      -0.205  10.988  20.575  0.00  0.00    +0.000 A 
ATOM      8  C   UNL     1       0.290   9.801  21.124  0.00  0.00    +0.000 A 
ATOM      9  C   UNL     1       2.202   8.265  18.400  0.00  0.00    +0.000 C 
ATOM     10  O   UNL     1       2.677   8.317  17.285  0.00  0.00    +0.000 OA
ENDROOT
BRANCH   1  15
ATOM     11  C   UNL     1       5.420   5.218  18.873  0.00  0.00    +0.000 A 
ATOM     12  C   UNL     1       4.940   3.966  19.280  0.00  0.00    +0.000 A 
ATOM     13  C   UNL     1       3.637   3.807  19.781  0.00  0.00    +0.000 A 
ATOM     14  C   UNL     1       2.753   4.894  19.865  0.00  0.00    +0.000 A 
ATOM     15  C   UNL     1       3.175   6.150  19.452  0.00  0.00    +0.000 A 
ATOM     16  C   UNL     1       4.505   6.274  19.002  0.00  0.00    +0.000 A 
BRANCH  11  17
ATOM     17  C   UNL     1       6.901   5.507  18.291  0.00  0.00    +0.000 C 
ATOM     18  C   UNL     1       7.976   5.871  19.349  0.00  0.00    +0.000 C 
ATOM     19  O   UNL     1       8.219   7.163  18.762  0.00  0.00    +0.000 OA
ATOM     20  C   UNL     1       7.203   6.944  17.763  0.00  0.00    +0.000 C 
BRANCH  17  21
ATOM     21  C   UNL     1       7.362   4.392  17.315  0.00  0.00    +0.000 C 
BRANCH  21  27
ATOM     22  C   UNL     1       4.663   3.521  15.911  0.00  0.00    +0.000 C 
ATOM     23  N   UNL     1       5.776   4.205  15.309  0.00  0.00    +0.000 N 
ATOM     24  C   UNL     1       5.851   4.559  13.995  0.00  0.00    +0.000 A 
ATOM     25  N   UNL     1       7.008   5.127  13.761  0.00  0.00    +0.000 NA
ATOM     26  N   UNL     1       7.712   5.132  14.938  0.00  0.00    +0.000 NA
ATOM     27  C   UNL     1       6.962   4.597  15.883  0.00  0.00    +0.000 A 
ENDBRANCH  21  27
ENDBRANCH  17  21
ENDBRANCH  11  17
ENDBRANCH   1  15
BRANCH   8  28
ATOM     28  C   UNL     1       0.028   9.455  22.568  0.00  0.00    +0.000 C 
ATOM     29  F   UNL     1      -0.572  10.448  23.277  0.00  0.00    +0.000 F 
ATOM     30  F   UNL     1      -0.770   8.361  22.695  0.00  0.00    +0.000 F 
ATOM     31  F   UNL     1       1.174   9.167  23.241  0.00  0.00    +0.000 F 
ENDBRANCH   8  28
BRANCH   6  32
ATOM     32  C   UNL     1      -0.641  12.567  18.669  0.00  0.00    +0.000 C 
BRANCH  32  33
ATOM     33  C   UNL     1      -2.136  12.397  18.321  0.00  0.00    +0.000 C 
ATOM     34  C   UNL     1      -2.422  10.978  17.809  0.00  0.00    +0.000 C 
ATOM     35  N   UNL     1      -3.809  10.515  17.830  0.00  0.00    +0.000 NA
ATOM     36  C   UNL     1      -4.760  11.443  18.425  0.00  0.00    +0.000 C 
ATOM     37  C   UNL     1      -4.271  12.001  19.744  0.00  0.00    +0.000 C 
ATOM     38  C   UNL     1      -2.972  12.731  19.545  0.00  0.00    +0.000 C 
ATOM     39  O   UNL     1      -2.622  13.592  20.355  0.00  0.00    +0.000 OA
ATOM     40  H   UNL     1      -3.855   9.611  18.304  0.00  0.00    +0.000 HD
ENDBRANCH  32  33
ENDBRANCH   6  32
TORSDOF 7
ENDMDL
MODEL 2
REMARK VINA RESULT:      -9.5      1.657      2.186
REMARK  Name = 
REMARK  8 active torsions:
REMARK  status: ('A' for Active; 'I' for Inactive)
REMARK    1  A    between atoms: C_1  and  N_2
REMARK    2  A    between atoms: C_6  and  C_7
REMARK    3  A    between atoms: C_7  and  C_8
REMARK    4  A    between atoms: C_8  and  C_9
REMARK    5  A    between atoms: C_13  and  N_14
REMARK    6  A    between atoms: C_19  and  C_20
REMARK    7  A    between atoms: C_20  and  C_21
REMARK    8  A    between atoms: C_29  and  C_30
REMARK                            x       y       z     vdW  Elec       q    Type
REMARK                         _______ _______ _______ _____ _____    ______ ____
ROOT
ATOM      1  N   UNL     1       2.295   7.410  19.421  0.00  0.00    +0.000 N 
ATOM      2  C   UNL     1       1.532   7.734  20.610  0.00  0.00    +0.000 C 
ATOM      3  C   UNL     1       1.001   9.087  20.342  0.00  0.00    +0.000 A 
ATOM      4  C   UNL     1       1.311   9.472  19.044  0.00  0.00    +0.000 A 
ATOM      5  C   UNL     1       0.847  10.665  18.527  0.00  0.00    +0.000 A 
ATOM      6  C   UNL     1       0.057  11.490  19.362  0.00  0.00    +0.000 A 
ATOM      7  C   UNL     1      -0.195  11.102  20.699  0.00  0.00    +0.000 A 
ATOM      8  C   UNL     1       0.279   9.892  21.212  0.00  0.00    +0.000 A 
ATOM      9  C   UNL     1       2.174   8.409  18.447  0.00  0.00    +0.000 C 
ATOM     10  O   UNL     1       2.652   8.487  17.334  0.00  0.00    +0.000 OA
ENDROOT
BRANCH   1  15
ATOM     11  C   UNL     1       5.340   5.298  18.829  0.00  0.00    +0.000 A 
ATOM     12  C   UNL     1       4.840   4.042  19.202  0.00  0.00    +0.000 A 
ATOM     13  C   UNL     1       3.535   3.889  19.698  0.00  0.00    +0.000 A 
ATOM     14  C   UNL     1       2.669   4.987  19.813  0.00  0.00    +0.000 A 
ATOM     15  C   UNL     1       3.110   6.248  19.436  0.00  0.00    +0.000 A 
ATOM     16  C   UNL     1       4.443   6.364  18.989  0.00  0.00    +0.000 A 
BRANCH  11  17
ATOM     17  C   UNL     1       6.826   5.579  18.255  0.00  0.00    +0.000 C 
ATOM     18  C   UNL     1       7.886   5.986  19.313  0.00  0.00    +0.000 C 
ATOM     19  O   UNL     1       8.126   7.260  18.688  0.00  0.00    +0.000 OA
ATOM     20  C   UNL     1       7.123   7.001  17.684  0.00  0.00    +0.000 C 
BRANCH  17  21
ATOM     21  C   UNL     1       7.306   4.437  17.321  0.00  0.00    +0.000 C 
BRANCH  21  27
ATOM     22  C   UNL     1       4.681   3.438  15.864  0.00  0.00    +0.000 C 
ATOM     23  N   UNL     1       5.782   4.155  15.278  0.00  0.00    +0.000 N 
ATOM     24  C   UNL     1       5.880   4.489  13.960  0.00  0.00    +0.000 A 
ATOM     25  N   UNL     1       7.020   5.097  13.746  0.00  0.00    +0.000 NA
ATOM     26  N   UNL     1       7.692   5.150  14.941  0.00  0.00    +0.000 NA
ATOM     27  C   UNL     1       6.938   4.602  15.876  0.00  0.00    +0.000 A 
ENDBRANCH  21  27
ENDBRANCH  17  21
ENDBRANCH  11  17
ENDBRANCH   1  15
BRANCH   8  28
ATOM     28  C   UNL     1       0.009   9.507  22.645  0.00  0.00    +0.000 C 
ATOM     29  F   UNL     1       1.128   9.218  23.362  0.00  0.00    +0.000 F 
ATOM     30  F   UNL     1      -0.637  10.491  23.326  0.00  0.00    +0.000 F 
ATOM     31  F   UNL     1      -0.779   8.403  22.739  0.00  0.00    +0.000 F 
ENDBRANCH   8  28
BRANCH   6  32
ATOM     32  C   UNL     1      -0.603  12.745  18.840  0.00  0.00    +0.000 C 
BRANCH  32  33
ATOM     33  C   UNL     1      -0.246  14.045  19.592  0.00  0.00    +0.000 C 
ATOM     34  C   UNL     1       0.469  15.036  18.662  0.00  0.00    +0.000 C 
ATOM     35  N   UNL     1       0.505  16.441  19.067  0.00  0.00    +0.000 NA
ATOM     36  C   UNL     1      -0.228  16.751  20.285  0.00  0.00    +0.000 C 
ATOM     37  C   UNL     1      -1.612  16.137  20.297  0.00  0.00    +0.000 C 
ATOM     38  C   UNL     1      -1.512  14.641  20.181  0.00  0.00    +0.000 C 
ATOM     39  O   UNL     1      -2.438  13.932  20.582  0.00  0.00    +0.000 OA
ATOM     40  H   UNL     1       0.170  17.023  18.296  0.00  0.00    +0.000 HD
ENDBRANCH  32  33
ENDBRANCH   6  32
TORSDOF 7
ENDMDL
MODEL 3
REMARK VINA RESULT:      -9.4      1.061      1.402
REMARK  Name = 
REMARK  8 active torsions:
REMARK  status: ('A' for Active; 'I' for Inactive)
REMARK    1  A    between atoms: C_1  and  N_2
REMARK    2  A    between atoms: C_6  and  C_7
REMARK    3  A    between atoms: C_7  and  C_8
REMARK    4  A    between atoms: C_8  and  C_9
REMARK    5  A    between atoms: C_13  and  N_14
REMARK    6  A    between atoms: C_19  and  C_20
REMARK    7  A    between atoms: C_20  and  C_21
REMARK    8  A    between atoms: C_29  and  C_30
REMARK                            x       y       z     vdW  Elec       q    Type
REMARK                         _______ _______ _______ _____ _____    ______ ____
ROOT
ATOM      1  N   UNL     1       2.317   7.169  19.444  0.00  0.00    +0.000 N 
ATOM      2  C   UNL     1       1.668   7.557  20.682  0.00  0.00    +0.000 C 
ATOM      3  C   UNL     1       0.928   8.787  20.332  0.00  0.00    +0.000 A 
ATOM      4  C   UNL     1       1.020   9.027  18.967  0.00  0.00    +0.000 A 
ATOM      5  C   UNL     1       0.337  10.074  18.381  0.00  0.00    +0.000 A 
ATOM      6  C   UNL     1      -0.450  10.903  19.215  0.00  0.00    +0.000 A 
ATOM      7  C   UNL     1      -0.481  10.674  20.610  0.00  0.00    +0.000 A 
ATOM      8  C   UNL     1       0.215   9.610  21.193  0.00  0.00    +0.000 A 
ATOM      9  C   UNL     1       1.941   8.004  18.386  0.00  0.00    +0.000 C 
ATOM     10  O   UNL     1       2.263   7.988  17.216  0.00  0.00    +0.000 OA
ENDROOT
BRANCH   1  15
ATOM     11  C   UNL     1       5.563   5.414  18.763  0.00  0.00    +0.000 A 
ATOM     12  C   UNL     1       5.267   4.146  19.280  0.00  0.00    +0.000 A 
ATOM     13  C   UNL     1       4.036   3.876  19.901  0.00  0.00    +0.000 A 
ATOM     14  C   UNL     1       3.042   4.861  20.001  0.00  0.00    +0.000 A 
ATOM     15  C   UNL     1       3.280   6.127  19.484  0.00  0.00    +0.000 A 
ATOM     16  C   UNL     1       4.546   6.368  18.913  0.00  0.00    +0.000 A 
BRANCH  11  17
ATOM     17  C   UNL     1       6.950   5.827  18.038  0.00  0.00    +0.000 C 
ATOM     18  C   UNL     1       8.026   6.455  18.963  0.00  0.00    +0.000 C 
ATOM     19  O   UNL     1       8.046   7.689  18.222  0.00  0.00    +0.000 OA
ATOM     20  C   UNL     1       7.010   7.219  17.335  0.00  0.00    +0.000 C 
BRANCH  17  21
ATOM     21  C   UNL     1       7.501   4.677  17.157  0.00  0.00    +0.000 C 
BRANCH  21  27
ATOM     22  C   UNL     1       4.879   3.444  15.883  0.00  0.00    +0.000 C 
ATOM     23  N   UNL     1       5.919   4.169  15.203  0.00  0.00    +0.000 N 
ATOM     24  C   UNL     1       5.949   4.410  13.862  0.00  0.00    +0.000 A 
ATOM     25  N   UNL     1       7.047   5.056  13.558  0.00  0.00    +0.000 NA
ATOM     26  N   UNL     1       7.759   5.230  14.717  0.00  0.00    +0.000 NA
ATOM     27  C   UNL     1       7.071   4.716  15.719  0.00  0.00    +0.000 A 
ENDBRANCH  21  27
ENDBRANCH  17  21
ENDBRANCH  11  17
ENDBRANCH   1  15
BRANCH   8  28
ATOM     28  C   UNL     1       0.178   9.393  22.684  0.00  0.00    +0.000 C 
ATOM     29  F   UNL     1      -0.524   8.294  23.068  0.00  0.00    +0.000 F 
ATOM     30  F   UNL     1       1.425   9.251  23.211  0.00  0.00    +0.000 F 
ATOM     31  F   UNL     1      -0.392  10.439  23.340  0.00  0.00    +0.000 F 
ENDBRANCH   8  28
BRANCH   6  32
ATOM     32  C   UNL     1      -1.335  11.987  18.645  0.00  0.00    +0.000 C 
BRANCH  32  33
ATOM     33  C   UNL     1      -2.845  11.665  18.616  0.00  0.00    +0.000 C 
ATOM     34  C   UNL     1      -3.655  12.771  19.308  0.00  0.00    +0.000 C 
ATOM     35  N   UNL     1      -5.086  12.848  19.017  0.00  0.00    +0.000 NA
ATOM     36  C   UNL     1      -5.564  11.900  18.022  0.00  0.00    +0.000 C 
ATOM     37  C   UNL     1      -4.682  11.861  16.792  0.00  0.00    +0.000 C 
ATOM     38  C   UNL     1      -3.283  11.466  17.175  0.00  0.00    +0.000 C 
ATOM     39  O   UNL     1      -2.532  10.974  16.330  0.00  0.00    +0.000 OA
ATOM     40  H   UNL     1      -5.322  13.802  18.738  0.00  0.00    +0.000 HD
ENDBRANCH  32  33
ENDBRANCH   6  32
TORSDOF 7
ENDMDL
MODEL 4
REMARK VINA RESULT:      -9.3      1.775      2.500
REMARK  Name = 
REMARK  8 active torsions:
REMARK  status: ('A' for Active; 'I' for Inactive)
REMARK    1  A    between atoms: C_1  and  N_2
REMARK    2  A    between atoms: C_6  and  C_7
REMARK    3  A    between atoms: C_7  and  C_8
REMARK    4  A    between atoms: C_8  and  C_9
REMARK    5  A    between atoms: C_13  and  N_14
REMARK    6  A    between atoms: C_19  and  C_20
REMARK    7  A    between atoms: C_20  and  C_21
REMARK    8  A    between atoms: C_29  and  C_30
REMARK                            x       y       z     vdW  Elec       q    Type
REMARK                         _______ _______ _______ _____ _____    ______ ____
ROOT
ATOM      1  N   UNL     1       2.326   7.348  19.350  0.00  0.00    +0.000 N 
ATOM      2  C   UNL     1       1.542   7.704  20.516  0.00  0.00    +0.000 C 
ATOM      3  C   UNL     1       0.994   9.037  20.191  0.00  0.00    +0.000 A 
ATOM      4  C   UNL     1       1.314   9.378  18.883  0.00  0.00    +0.000 A 
ATOM      5  C   UNL     1       0.838  10.543  18.316  0.00  0.00    +0.000 A 
ATOM      6  C   UNL     1       0.024  11.385  19.110  0.00  0.00    +0.000 A 
ATOM      7  C   UNL     1      -0.239  11.045  20.456  0.00  0.00    +0.000 A 
ATOM      8  C   UNL     1       0.247   9.862  21.021  0.00  0.00    +0.000 A 
ATOM      9  C   UNL     1       2.201   8.307  18.338  0.00  0.00    +0.000 C 
ATOM     10  O   UNL     1       2.693   8.351  17.229  0.00  0.00    +0.000 OA
ENDROOT
BRANCH   1  15
ATOM     11  C   UNL     1       5.409   5.263  18.871  0.00  0.00    +0.000 A 
ATOM     12  C   UNL     1       4.926   4.015  19.290  0.00  0.00    +0.000 A 
ATOM     13  C   UNL     1       3.618   3.862  19.781  0.00  0.00    +0.000 A 
ATOM     14  C   UNL     1       2.734   4.950  19.844  0.00  0.00    +0.000 A 
ATOM     15  C   UNL     1       3.159   6.201  19.420  0.00  0.00    +0.000 A 
ATOM     16  C   UNL     1       4.493   6.320  18.980  0.00  0.00    +0.000 A 
BRANCH  11  17
ATOM     17  C   UNL     1       6.896   5.545  18.298  0.00  0.00    +0.000 C 
ATOM     18  C   UNL     1       7.961   5.921  19.362  0.00  0.00    +0.000 C 
ATOM     19  O   UNL     1       8.210   7.206  18.762  0.00  0.00    +0.000 OA
ATOM     20  C   UNL     1       7.201   6.976  17.757  0.00  0.00    +0.000 C 
BRANCH  17  21
ATOM     21  C   UNL     1       7.364   4.419  17.339  0.00  0.00    +0.000 C 
BRANCH  21  27
ATOM     22  C   UNL     1       4.671   3.504  15.951  0.00  0.00    +0.000 C 
ATOM     23  N   UNL     1       5.778   4.189  15.337  0.00  0.00    +0.000 N 
ATOM     24  C   UNL     1       5.849   4.524  14.018  0.00  0.00    +0.000 A 
ATOM     25  N   UNL     1       7.001   5.098  13.774  0.00  0.00    +0.000 NA
ATOM     26  N   UNL     1       7.706   5.127  14.951  0.00  0.00    +0.000 NA
ATOM     27  C   UNL     1       6.962   4.599  15.905  0.00  0.00    +0.000 A 
ENDBRANCH  21  27
ENDBRANCH  17  21
ENDBRANCH  11  17
ENDBRANCH   1  15
BRANCH   8  28
ATOM     28  C   UNL     1      -0.035   9.527  22.464  0.00  0.00    +0.000 C 
ATOM     29  F   UNL     1      -0.841   8.445  22.635  0.00  0.00    +0.000 F 
ATOM     30  F   UNL     1       1.104   9.266  23.161  0.00  0.00    +0.000 F 
ATOM     31  F   UNL     1      -0.652  10.548  23.116  0.00  0.00    +0.000 F 
ENDBRANCH   8  28
BRANCH   6  32
ATOM     32  C   UNL     1      -0.649  12.609  18.532  0.00  0.00    +0.000 C 
BRANCH  32  33
ATOM     33  C   UNL     1      -0.211  13.958  19.142  0.00  0.00    +0.000 C 
ATOM     34  C   UNL     1      -0.632  14.055  20.615  0.00  0.00    +0.000 C 
ATOM     35  N   UNL     1       0.043  15.048  21.450  0.00  0.00    +0.000 NA
ATOM     36  C   UNL     1       1.114  15.782  20.792  0.00  0.00    +0.000 C 
ATOM     37  C   UNL     1       2.052  14.871  20.030  0.00  0.00    +0.000 C 
ATOM     38  C   UNL     1       1.291  14.114  18.977  0.00  0.00    +0.000 C 
ATOM     39  O   UNL     1       1.887  13.658  17.998  0.00  0.00    +0.000 OA
ATOM     40  H   UNL     1       0.394  14.594  22.296  0.00  0.00    +0.000 HD
ENDBRANCH  32  33
ENDBRANCH   6  32
TORSDOF 7
ENDMDL
MODEL 5
REMARK VINA RESULT:      -9.3      2.617      9.544
REMARK  Name = 
REMARK  8 active torsions:
REMARK  status: ('A' for Active; 'I' for Inactive)
REMARK    1  A    between atoms: C_1  and  N_2
REMARK    2  A    between atoms: C_6  and  C_7
REMARK    3  A    between atoms: C_7  and  C_8
REMARK    4  A    between atoms: C_8  and  C_9
REMARK    5  A    between atoms: C_13  and  N_14
REMARK    6  A    between atoms: C_19  and  C_20
REMARK    7  A    between atoms: C_20  and  C_21
REMARK    8  A    between atoms: C_29  and  C_30
REMARK                            x       y       z     vdW  Elec       q    Type
REMARK                         _______ _______ _______ _____ _____    ______ ____
ROOT
ATOM      1  N   UNL     1       2.006   7.323  19.739  0.00  0.00    +0.000 N 
ATOM      2  C   UNL     1       1.868   5.943  20.160  0.00  0.00    +0.000 C 
ATOM      3  C   UNL     1       2.531   5.170  19.089  0.00  0.00    +0.000 A 
ATOM      4  C   UNL     1       3.133   6.033  18.181  0.00  0.00    +0.000 A 
ATOM      5  C   UNL     1       3.891   5.547  17.135  0.00  0.00    +0.000 A 
ATOM      6  C   UNL     1       4.027   4.144  17.007  0.00  0.00    +0.000 A 
ATOM      7  C   UNL     1       3.357   3.286  17.910  0.00  0.00    +0.000 A 
ATOM      8  C   UNL     1       2.591   3.789  18.966  0.00  0.00    +0.000 A 
ATOM      9  C   UNL     1       2.775   7.429  18.574  0.00  0.00    +0.000 C 
ATOM     10  O   UNL     1       3.111   8.405  17.936  0.00  0.00    +0.000 OA
ENDROOT
BRANCH   1  15
ATOM     11  C   UNL     1      -0.357  10.189  20.272  0.00  0.00    +0.000 A 
ATOM     12  C   UNL     1      -0.092  10.476  21.618  0.00  0.00    +0.000 A 
ATOM     13  C   UNL     1       0.811   9.704  22.369  0.00  0.00    +0.000 A 
ATOM     14  C   UNL     1       1.506   8.631  21.789  0.00  0.00    +0.000 A 
ATOM     15  C   UNL     1       1.293   8.322  20.453  0.00  0.00    +0.000 A 
ATOM     16  C   UNL     1       0.343   9.091  19.750  0.00  0.00    +0.000 A 
BRANCH  11  17
ATOM     17  C   UNL     1      -1.382  11.011  19.327  0.00  0.00    +0.000 C 
ATOM     18  C   UNL     1      -0.721  11.963  18.295  0.00  0.00    +0.000 C 
ATOM     19  O   UNL     1      -1.355  13.127  18.856  0.00  0.00    +0.000 OA
ATOM     20  C   UNL     1      -1.978  12.338  19.891  0.00  0.00    +0.000 C 
BRANCH  17  21
ATOM     21  C   UNL     1      -2.453  10.081  18.699  0.00  0.00    +0.000 C 
BRANCH  21  27
ATOM     22  C   UNL     1      -4.819  11.813  17.508  0.00  0.00    +0.000 C 
ATOM     23  N   UNL     1      -3.799  11.113  16.774  0.00  0.00    +0.000 N 
ATOM     24  C   UNL     1      -3.716  11.060  15.415  0.00  0.00    +0.000 A 
ATOM     25  N   UNL     1      -2.700  10.310  15.067  0.00  0.00    +0.000 NA
ATOM     26  N   UNL     1      -2.113   9.849  16.218  0.00  0.00    +0.000 NA
ATOM     27  C   UNL     1      -2.759  10.351  17.254  0.00  0.00    +0.000 A 
ENDBRANCH  21  27
ENDBRANCH  17  21
ENDBRANCH  11  17
ENDBRANCH   1  15
BRANCH   8  28
ATOM     28  C   UNL     1       1.874   2.854  19.907  0.00  0.00    +0.000 C 
ATOM     29  F   UNL     1       2.400   2.817  21.160  0.00  0.00    +0.000 F 
ATOM     30  F   UNL     1       0.563   3.185  20.055  0.00  0.00    +0.000 F 
ATOM     31  F   UNL     1       1.892   1.568  19.466  0.00  0.00    +0.000 F 
ENDBRANCH   8  28
BRANCH   6  32
ATOM     32  C   UNL     1       4.945   3.529  15.977  0.00  0.00    +0.000 C 
BRANCH  32  33
ATOM     33  C   UNL     1       5.682   4.529  15.061  0.00  0.00    +0.000 C 
ATOM     34  C   UNL     1       7.094   4.818  15.589  0.00  0.00    +0.000 C 
ATOM     35  N   UNL     1       8.063   5.394  14.658  0.00  0.00    +0.000 NA
ATOM     36  C   UNL     1       7.587   5.551  13.291  0.00  0.00    +0.000 C 
ATOM     37  C   UNL     1       6.895   4.307  12.776  0.00  0.00    +0.000 C 
ATOM     38  C   UNL     1       5.713   3.977  13.646  0.00  0.00    +0.000 C 
ATOM     39  O   UNL     1       4.792   3.293  13.195  0.00  0.00    +0.000 OA
ATOM     40  H   UNL     1       8.918   4.835  14.672  0.00  0.00    +0.000 HD
ENDBRANCH  32  33
ENDBRANCH   6  32
TORSDOF 7
ENDMDL
MODEL 6
REMARK VINA RESULT:      -9.3      2.922      9.289
REMARK  Name = 
REMARK  8 active torsions:
REMARK  status: ('A' for Active; 'I' for Inactive)
REMARK    1  A    between atoms: C_1  and  N_2
REMARK    2  A    between atoms: C_6  and  C_7
REMARK    3  A    between atoms: C_7  and  C_8
REMARK    4  A    between atoms: C_8  and  C_9
REMARK    5  A    between atoms: C_13  and  N_14
REMARK    6  A    between atoms: C_19  and  C_20
REMARK    7  A    between atoms: C_20  and  C_21
REMARK    8  A    between atoms: C_29  and  C_30
REMARK                            x       y       z     vdW  Elec       q    Type
REMARK                         _______ _______ _______ _____ _____    ______ ____
ROOT
ATOM      1  N   UNL     1       1.205   8.283  20.531  0.00  0.00    +0.000 N 
ATOM      2  C   UNL     1       1.319   6.916  20.998  0.00  0.00    +0.000 C 
ATOM      3  C   UNL     1       2.086   6.232  19.937  0.00  0.00    +0.000 A 
ATOM      4  C   UNL     1       2.511   7.153  18.987  0.00  0.00    +0.000 A 
ATOM      5  C   UNL     1       3.322   6.770  17.938  0.00  0.00    +0.000 A 
ATOM      6  C   UNL     1       3.700   5.409  17.852  0.00  0.00    +0.000 A 
ATOM      7  C   UNL     1       3.207   4.480  18.798  0.00  0.00    +0.000 A 
ATOM      8  C   UNL     1       2.385   4.879  19.856  0.00  0.00    +0.000 A 
ATOM      9  C   UNL     1       1.922   8.479  19.344  0.00  0.00    +0.000 C 
ATOM     10  O   UNL     1       2.069   9.476  18.668  0.00  0.00    +0.000 OA
ENDROOT
BRANCH   1  15
ATOM     11  C   UNL     1      -1.090  11.206  21.049  0.00  0.00    +0.000 A 
ATOM     12  C   UNL     1      -1.256  11.142  22.439  0.00  0.00    +0.000 A 
ATOM     13  C   UNL     1      -0.670  10.117  23.201  0.00  0.00    +0.000 A 
ATOM     14  C   UNL     1       0.130   9.133  22.601  0.00  0.00    +0.000 A 
ATOM     15  C   UNL     1       0.342   9.167  21.230  0.00  0.00    +0.000 A 
ATOM     16  C   UNL     1      -0.304  10.184  20.497  0.00  0.00    +0.000 A 
BRANCH  11  17
ATOM     17  C   UNL     1      -1.727  12.338  20.084  0.00  0.00    +0.000 C 
ATOM     18  C   UNL     1      -3.277  12.412  20.072  0.00  0.00    +0.000 C 
ATOM     19  O   UNL     1      -3.352  12.119  18.665  0.00  0.00    +0.000 OA
ATOM     20  C   UNL     1      -1.919  11.978  18.577  0.00  0.00    +0.000 C 
BRANCH  17  21
ATOM     21  C   UNL     1      -1.054  13.719  20.297  0.00  0.00    +0.000 C 
BRANCH  21  27
ATOM     22  C   UNL     1       1.282  13.161  18.237  0.00  0.00    +0.000 C 
ATOM     23  N   UNL     1       1.409  13.428  19.645  0.00  0.00    +0.000 N 
ATOM     24  C   UNL     1       2.587  13.444  20.330  0.00  0.00    +0.000 A 
ATOM     25  N   UNL     1       2.353  13.675  21.598  0.00  0.00    +0.000 NA
ATOM     26  N   UNL     1       0.995  13.797  21.753  0.00  0.00    +0.000 NA
ATOM     27  C   UNL     1       0.421  13.671  20.571  0.00  0.00    +0.000 A 
ENDBRANCH  21  27
ENDBRANCH  17  21
ENDBRANCH  11  17
ENDBRANCH   1  15
BRANCH   8  28
ATOM     28  C   UNL     1       1.860   3.868  20.845  0.00  0.00    +0.000 C 
ATOM     29  F   UNL     1       0.504   3.816  20.918  0.00  0.00    +0.000 F 
ATOM     30  F   UNL     1       2.275   2.606  20.553  0.00  0.00    +0.000 F 
ATOM     31  F   UNL     1       2.284   4.123  22.111  0.00  0.00    +0.000 F 
ENDBRANCH   8  28
BRANCH   6  32
ATOM     32  C   UNL     1       4.691   4.926  16.819  0.00  0.00    +0.000 C 
BRANCH  32  33
ATOM     33  C   UNL     1       6.078   5.603  16.863  0.00  0.00    +0.000 C 
ATOM     34  C   UNL     1       5.949   7.126  16.718  0.00  0.00    +0.000 C 
ATOM     35  N   UNL     1       7.081   7.947  17.146  0.00  0.00    +0.000 NA
ATOM     36  C   UNL     1       8.183   7.212  17.749  0.00  0.00    +0.000 C 
ATOM     37  C   UNL     1       7.711   6.216  18.787  0.00  0.00    +0.000 C 
ATOM     38  C   UNL     1       6.777   5.220  18.156  0.00  0.00    +0.000 C 
ATOM     39  O   UNL     1       6.614   4.115  18.680  0.00  0.00    +0.000 OA
ATOM     40  H   UNL     1       6.749   8.672  17.785  0.00  0.00    +0.000 HD
ENDBRANCH  32  33
ENDBRANCH   6  32
TORSDOF 7
ENDMDL
MODEL 7
REMARK VINA RESULT:      -9.3      3.363      9.733
REMARK  Name = 
REMARK  8 active torsions:
REMARK  status: ('A' for Active; 'I' for Inactive)
REMARK    1  A    between atoms: C_1  and  N_2
REMARK    2  A    between atoms: C_6  and  C_7
REMARK    3  A    between atoms: C_7  and  C_8
REMARK    4  A    between atoms: C_8  and  C_9
REMARK    5  A    between atoms: C_13  and  N_14
REMARK    6  A    between atoms: C_19  and  C_20
REMARK    7  A    between atoms: C_20  and  C_21
REMARK    8  A    between atoms: C_29  and  C_30
REMARK                            x       y       z     vdW  Elec       q    Type
REMARK                         _______ _______ _______ _____ _____    ______ ____
ROOT
ATOM      1  N   UNL     1       2.257   7.173  19.528  0.00  0.00    +0.000 N 
ATOM      2  C   UNL     1       2.090   5.779  19.889  0.00  0.00    +0.000 C 
ATOM      3  C   UNL     1       2.760   5.039  18.800  0.00  0.00    +0.000 A 
ATOM      4  C   UNL     1       3.391   5.928  17.939  0.00  0.00    +0.000 A 
ATOM      5  C   UNL     1       4.161   5.472  16.887  0.00  0.00    +0.000 A 
ATOM      6  C   UNL     1       4.278   4.074  16.705  0.00  0.00    +0.000 A 
ATOM      7  C   UNL     1       3.578   3.191  17.560  0.00  0.00    +0.000 A 
ATOM      8  C   UNL     1       2.801   3.663  18.622  0.00  0.00    +0.000 A 
ATOM      9  C   UNL     1       3.049   7.313  18.382  0.00  0.00    +0.000 C 
ATOM     10  O   UNL     1       3.411   8.308  17.790  0.00  0.00    +0.000 OA
ENDROOT
BRANCH   1  15
ATOM     11  C   UNL     1       0.428  10.386  20.173  0.00  0.00    +0.000 A 
ATOM     12  C   UNL     1       0.281  10.306  21.565  0.00  0.00    +0.000 A 
ATOM     13  C   UNL     1       0.723   9.184  22.287  0.00  0.00    +0.000 A 
ATOM     14  C   UNL     1       1.358   8.111  21.643  0.00  0.00    +0.000 A 
ATOM     15  C   UNL     1       1.547   8.153  20.269  0.00  0.00    +0.000 A 
ATOM     16  C   UNL     1       1.045   9.275  19.578  0.00  0.00    +0.000 A 
BRANCH  11  17
ATOM     17  C   UNL     1      -0.052  11.626  19.253  0.00  0.00    +0.000 C 
ATOM     18  C   UNL     1      -1.273  12.421  19.787  0.00  0.00    +0.000 C 
ATOM     19  O   UNL     1      -2.069  12.118  18.627  0.00  0.00    +0.000 OA
ATOM     20  C   UNL     1      -1.013  11.313  18.063  0.00  0.00    +0.000 C 
BRANCH  17  21
ATOM     21  C   UNL     1       1.137  12.536  18.850  0.00  0.00    +0.000 C 
BRANCH  21  27
ATOM     22  C   UNL     1       0.700  15.667  19.006  0.00  0.00    +0.000 C 
ATOM     23  N   UNL     1       1.394  14.837  19.954  0.00  0.00    +0.000 N 
ATOM     24  C   UNL     1       2.018  15.294  21.076  0.00  0.00    +0.000 A 
ATOM     25  N   UNL     1       2.588  14.292  21.699  0.00  0.00    +0.000 NA
ATOM     26  N   UNL     1       2.348  13.158  20.964  0.00  0.00    +0.000 NA
ATOM     27  C   UNL     1       1.607  13.478  19.920  0.00  0.00    +0.000 A 
ENDBRANCH  21  27
ENDBRANCH  17  21
ENDBRANCH  11  17
ENDBRANCH   1  15
BRANCH   8  28
ATOM     28  C   UNL     1       2.052   2.704  19.512  0.00  0.00    +0.000 C 
ATOM     29  F   UNL     1       2.079   1.413  19.084  0.00  0.00    +0.000 F 
ATOM     30  F   UNL     1       2.543   2.694  20.781  0.00  0.00    +0.000 F 
ATOM     31  F   UNL     1       0.735   3.025  19.619  0.00  0.00    +0.000 F 
ENDBRANCH   8  28
BRANCH   6  32
ATOM     32  C   UNL     1       5.204   3.485  15.667  0.00  0.00    +0.000 C 
BRANCH  32  33
ATOM     33  C   UNL     1       5.845   4.501  14.697  0.00  0.00    +0.000 C 
ATOM     34  C   UNL     1       7.238   4.922  15.186  0.00  0.00    +0.000 C 
ATOM     35  N   UNL     1       8.143   5.532  14.213  0.00  0.00    +0.000 NA
ATOM     36  C   UNL     1       7.635   5.592  12.850  0.00  0.00    +0.000 C 
ATOM     37  C   UNL     1       7.037   4.276  12.401  0.00  0.00    +0.000 C 
ATOM     38  C   UNL     1       5.899   3.893  13.305  0.00  0.00    +0.000 C 
ATOM     39  O   UNL     1       5.028   3.119  12.901  0.00  0.00    +0.000 OA
ATOM     40  H   UNL     1       9.040   5.043  14.234  0.00  0.00    +0.000 HD
ENDBRANCH  32  33
ENDBRANCH   6  32
TORSDOF 7
ENDMDL
MODEL 8
REMARK VINA RESULT:      -9.3      2.463      3.622
REMARK  Name = 
REMARK  8 active torsions:
REMARK  status: ('A' for Active; 'I' for Inactive)
REMARK    1  A    between atoms: C_1  and  N_2
REMARK    2  A    between atoms: C_6  and  C_7
REMARK    3  A    between atoms: C_7  and  C_8
REMARK    4  A    between atoms: C_8  and  C_9
REMARK    5  A    between atoms: C_13  and  N_14
REMARK    6  A    between atoms: C_19  and  C_20
REMARK    7  A    between atoms: C_20  and  C_21
REMARK    8  A    between atoms: C_29  and  C_30
REMARK                            x       y       z     vdW  Elec       q    Type
REMARK                         _______ _______ _______ _____ _____    ______ ____
ROOT
ATOM      1  N   UNL     1       2.234   7.369  19.122  0.00  0.00    +0.000 N 
ATOM      2  C   UNL     1       1.520   7.725  20.333  0.00  0.00    +0.000 C 
ATOM      3  C   UNL     1       1.180   9.151  20.147  0.00  0.00    +0.000 A 
ATOM      4  C   UNL     1       1.541   9.565  18.871  0.00  0.00    +0.000 A 
ATOM      5  C   UNL     1       1.246  10.838  18.426  0.00  0.00    +0.000 A 
ATOM      6  C   UNL     1       0.575  11.713  19.313  0.00  0.00    +0.000 A 
ATOM      7  C   UNL     1       0.270  11.287  20.627  0.00  0.00    +0.000 A 
ATOM      8  C   UNL     1       0.574   9.995  21.067  0.00  0.00    +0.000 A 
ATOM      9  C   UNL     1       2.251   8.430  18.208  0.00  0.00    +0.000 C 
ATOM     10  O   UNL     1       2.737   8.506  17.099  0.00  0.00    +0.000 OA
ENDROOT
BRANCH   1  15
ATOM     11  C   UNL     1       4.516   4.695  17.809  0.00  0.00    +0.000 A 
ATOM     12  C   UNL     1       4.154   3.633  18.650  0.00  0.00    +0.000 A 
ATOM     13  C   UNL     1       3.212   3.800  19.679  0.00  0.00    +0.000 A 
ATOM     14  C   UNL     1       2.574   5.032  19.886  0.00  0.00    +0.000 A 
ATOM     15  C   UNL     1       2.882   6.108  19.065  0.00  0.00    +0.000 A 
ATOM     16  C   UNL     1       3.868   5.910  18.077  0.00  0.00    +0.000 A 
BRANCH  11  17
ATOM     17  C   UNL     1       5.592   4.608  16.604  0.00  0.00    +0.000 C 
ATOM     18  C   UNL     1       5.325   5.551  15.401  0.00  0.00    +0.000 C 
ATOM     19  O   UNL     1       5.200   4.454  14.477  0.00  0.00    +0.000 OA
ATOM     20  C   UNL     1       5.388   3.491  15.533  0.00  0.00    +0.000 C 
BRANCH  17  21
ATOM     21  C   UNL     1       7.049   4.688  17.129  0.00  0.00    +0.000 C 
BRANCH  21  27
ATOM     22  C   UNL     1       8.074   5.719  19.939  0.00  0.00    +0.000 C 
ATOM     23  N   UNL     1       7.962   6.478  18.722  0.00  0.00    +0.000 N 
ATOM     24  C   UNL     1       8.255   7.804  18.603  0.00  0.00    +0.000 A 
ATOM     25  N   UNL     1       8.007   8.198  17.379  0.00  0.00    +0.000 NA
ATOM     26  N   UNL     1       7.528   7.117  16.685  0.00  0.00    +0.000 NA
ATOM     27  C   UNL     1       7.520   6.067  17.486  0.00  0.00    +0.000 A 
ENDBRANCH  21  27
ENDBRANCH  17  21
ENDBRANCH  11  17
ENDBRANCH   1  15
BRANCH   8  28
ATOM     28  C   UNL     1       0.252   9.568  22.477  0.00  0.00    +0.000 C 
ATOM     29  F   UNL     1       1.328   9.132  23.184  0.00  0.00    +0.000 F 
ATOM     30  F   UNL     1      -0.297  10.578  23.204  0.00  0.00    +0.000 F 
ATOM     31  F   UNL     1      -0.645   8.547  22.510  0.00  0.00    +0.000 F 
ENDBRANCH   8  28
BRANCH   6  32
ATOM     32  C   UNL     1       0.094  13.074  18.869  0.00  0.00    +0.000 C 
BRANCH  32  33
ATOM     33  C   UNL     1       1.057  14.246  19.155  0.00  0.00    +0.000 C 
ATOM     34  C   UNL     1       2.289  14.178  18.242  0.00  0.00    +0.000 C 
ATOM     35  N   UNL     1       3.081  15.396  18.078  0.00  0.00    +0.000 NA
ATOM     36  C   UNL     1       2.548  16.573  18.748  0.00  0.00    +0.000 C 
ATOM     37  C   UNL     1       1.066  16.758  18.496  0.00  0.00    +0.000 C 
ATOM     38  C   UNL     1       0.307  15.557  18.990  0.00  0.00    +0.000 C 
ATOM     39  O   UNL     1      -0.889  15.660  19.271  0.00  0.00    +0.000 OA
ATOM     40  H   UNL     1       3.208  15.585  17.082  0.00  0.00    +0.000 HD
ENDBRANCH  32  33
ENDBRANCH   6  32
TORSDOF 7
ENDMDL
MODEL 9
REMARK VINA RESULT:      -9.2      2.883      9.453
REMARK  Name = 
REMARK  8 active torsions:
REMARK  status: ('A' for Active; 'I' for Inactive)
REMARK    1  A    between atoms: C_1  and  N_2
REMARK    2  A    between atoms: C_6  and  C_7
REMARK    3  A    between atoms: C_7  and  C_8
REMARK    4  A    between atoms: C_8  and  C_9
REMARK    5  A    between atoms: C_13  and  N_14
REMARK    6  A    between atoms: C_19  and  C_20
REMARK    7  A    between atoms: C_20  and  C_21
REMARK    8  A    between atoms: C_29  and  C_30
REMARK                            x       y       z     vdW  Elec       q    Type
REMARK                         _______ _______ _______ _____ _____    ______ ____
ROOT
ATOM      1  N   UNL     1       2.338   7.063  19.350  0.00  0.00    +0.000 N 
ATOM      2  C   UNL     1       2.213   5.667  19.721  0.00  0.00    +0.000 C 
ATOM      3  C   UNL     1       2.934   4.943  18.654  0.00  0.00    +0.000 A 
ATOM      4  C   UNL     1       3.554   5.847  17.799  0.00  0.00    +0.000 A 
ATOM      5  C   UNL     1       4.364   5.411  16.770  0.00  0.00    +0.000 A 
ATOM      6  C   UNL     1       4.535   4.016  16.603  0.00  0.00    +0.000 A 
ATOM      7  C   UNL     1       3.847   3.116  17.449  0.00  0.00    +0.000 A 
ATOM      8  C   UNL     1       3.029   3.568  18.489  0.00  0.00    +0.000 A 
ATOM      9  C   UNL     1       3.152   7.222  18.222  0.00  0.00    +0.000 C 
ATOM     10  O   UNL     1       3.492   8.225  17.630  0.00  0.00    +0.000 OA
ENDROOT
BRANCH   1  15
ATOM     11  C   UNL     1       0.843  10.410  20.152  0.00  0.00    +0.000 A 
ATOM     12  C   UNL     1       0.279  10.130  21.404  0.00  0.00    +0.000 A 
ATOM     13  C   UNL     1       0.334   8.842  21.962  0.00  0.00    +0.000 A 
ATOM     14  C   UNL     1       0.983   7.790  21.299  0.00  0.00    +0.000 A 
ATOM     15  C   UNL     1       1.576   8.023  20.066  0.00  0.00    +0.000 A 
ATOM     16  C   UNL     1       1.456   9.318  19.520  0.00  0.00    +0.000 A 
BRANCH  11  17
ATOM     17  C   UNL     1       0.826  11.853  19.421  0.00  0.00    +0.000 C 
ATOM     18  C   UNL     1       1.716  11.972  18.155  0.00  0.00    +0.000 C 
ATOM     19  O   UNL     1       2.521  13.017  18.731  0.00  0.00    +0.000 OA
ATOM     20  C   UNL     1       1.788  12.953  19.972  0.00  0.00    +0.000 C 
BRANCH  17  21
ATOM     21  C   UNL     1      -0.620  12.367  19.198  0.00  0.00    +0.000 C 
BRANCH  21  27
ATOM     22  C   UNL     1      -3.777  12.179  19.306  0.00  0.00    +0.000 C 
ATOM     23  N   UNL     1      -2.885  11.388  18.501  0.00  0.00    +0.000 N 
ATOM     24  C   UNL     1      -3.276  10.384  17.666  0.00  0.00    +0.000 A 
ATOM     25  N   UNL     1      -2.221   9.838  17.114  0.00  0.00    +0.000 NA
ATOM     26  N   UNL     1      -1.115  10.484  17.607  0.00  0.00    +0.000 NA
ATOM     27  C   UNL     1      -1.513  11.438  18.429  0.00  0.00    +0.000 A 
ENDBRANCH  21  27
ENDBRANCH  17  21
ENDBRANCH  11  17
ENDBRANCH   1  15
BRANCH   8  28
ATOM     28  C   UNL     1       2.294   2.589  19.370  0.00  0.00    +0.000 C 
ATOM     29  F   UNL     1       2.686   2.612  20.672  0.00  0.00    +0.000 F 
ATOM     30  F   UNL     1       0.952   2.811  19.372  0.00  0.00    +0.000 F 
ATOM     31  F   UNL     1       2.464   1.304  18.960  0.00  0.00    +0.000 F 
ENDBRANCH   8  28
BRANCH   6  32
ATOM     32  C   UNL     1       5.506   3.453  15.592  0.00  0.00    +0.000 C 
BRANCH  32  33
ATOM     33  C   UNL     1       6.037   4.460  14.550  0.00  0.00    +0.000 C 
ATOM     34  C   UNL     1       7.422   4.986  14.952  0.00  0.00    +0.000 C 
ATOM     35  N   UNL     1       8.243   5.605  13.911  0.00  0.00    +0.000 NA
ATOM     36  C   UNL     1       7.670   5.571  12.573  0.00  0.00    +0.000 C 
ATOM     37  C   UNL     1       7.135   4.203  12.210  0.00  0.00    +0.000 C 
ATOM     38  C   UNL     1       6.065   3.793  13.184  0.00  0.00    +0.000 C 
ATOM     39  O   UNL     1       5.226   2.951  12.856  0.00  0.00    +0.000 OA
ATOM     40  H   UNL     1       9.168   5.171  13.910  0.00  0.00    +0.000 HD
ENDBRANCH  32  33
ENDBRANCH   6  32
TORSDOF 7
ENDMDL
