MODEL 1
REMARK VINA RESULT:     -10.5      0.000      0.000
REMARK  Name = 
REMARK  8 active torsions:
REMARK  status: ('A' for Active; 'I' for Inactive)
REMARK    1  A    between atoms: C_1  and  N_2
REMARK    2  A    between atoms: C_6  and  C_7
REMARK    3  A    between atoms: C_7  and  C_8
REMARK    4  A    between atoms: C_8  and  C_9
REMARK    5  A    between atoms: C_13  and  N_14
REMARK    6  A    between atoms: C_19  and  C_20
REMARK    7  A    between atoms: C_20  and  N_21
REMARK    8  A    between atoms: C_32  and  C_33
REMARK                            x       y       z     vdW  Elec       q    Type
REMARK                         _______ _______ _______ _____ _____    ______ ____
ROOT
ATOM      1  N   UNL     1       1.475   8.020  20.283  0.00  0.00    +0.000 N 
ATOM      2  C   UNL     1       1.603   6.722  20.904  0.00  0.00    +0.000 C 
ATOM      3  C   UNL     1       2.235   5.889  19.856  0.00  0.00    +0.000 A 
ATOM      4  C   UNL     1       2.664   6.676  18.787  0.00  0.00    +0.000 A 
ATOM      5  C   UNL     1       3.490   6.145  17.784  0.00  0.00    +0.000 A 
ATOM      6  C   UNL     1       3.828   4.774  17.852  0.00  0.00    +0.000 A 
ATOM      7  C   UNL     1       3.232   3.981  18.883  0.00  0.00    +0.000 A 
ATOM      8  C   UNL     1       2.466   4.527  19.911  0.00  0.00    +0.000 A 
ATOM      9  C   UNL     1       2.096   8.044  19.021  0.00  0.00    +0.000 C 
ATOM     10  O   UNL     1       2.178   8.955  18.217  0.00  0.00    +0.000 OA
ENDROOT
BRANCH   1  15
ATOM     11  C   UNL     1      -0.735  11.046  20.581  0.00  0.00    +0.000 A 
ATOM     12  C   UNL     1      -0.851  11.099  21.980  0.00  0.00    +0.000 A 
ATOM     13  C   UNL     1      -0.323  10.090  22.805  0.00  0.00    +0.000 A 
ATOM     14  C   UNL     1       0.375   9.002  22.263  0.00  0.00    +0.000 A 
ATOM     15  C   UNL     1       0.581   8.943  20.892  0.00  0.00    +0.000 A 
ATOM     16  C   UNL     1      -0.018   9.939  20.086  0.00  0.00    +0.000 A 
BRANCH  11  17
ATOM     17  C   UNL     1      -1.382  12.153  19.586  0.00  0.00    +0.000 C 
ATOM     18  C   UNL     1      -0.466  12.574  18.401  0.00  0.00    +0.000 C 
ATOM     19  O   UNL     1      -0.454  13.954  18.809  0.00  0.00    +0.000 OA
ATOM     20  C   UNL     1      -1.250  13.656  19.976  0.00  0.00    +0.000 C 
BRANCH  17  21
ATOM     21  C   UNL     1      -2.812  11.766  19.123  0.00  0.00    +0.000 C 
BRANCH  21  27
ATOM     22  C   UNL     1      -5.177  12.055  17.041  0.00  0.00    +0.000 C 
ATOM     23  N   UNL     1      -3.953  11.326  16.876  0.00  0.00    +0.000 N 
ATOM     24  C   UNL     1      -3.634  10.587  15.767  0.00  0.00    +0.000 A 
ATOM     25  N   UNL     1      -2.465  10.019  15.947  0.00  0.00    +0.000 NA
ATOM     26  N   UNL     1      -2.008  10.387  17.184  0.00  0.00    +0.000 NA
ATOM     27  C   UNL     1      -2.899  11.184  17.744  0.00  0.00    +0.000 A 
ENDBRANCH  21  27
ENDBRANCH  17  21
ENDBRANCH  11  17
ENDBRANCH   1  15
BRANCH   8  28
ATOM     28  C   UNL     1       1.950   3.669  21.042  0.00  0.00    +0.000 C 
ATOM     29  F   UNL     1       2.364   4.076  22.267  0.00  0.00    +0.000 F 
ATOM     30  F   UNL     1       0.591   3.642  21.091  0.00  0.00    +0.000 F 
ATOM     31  F   UNL     1       2.354   2.374  20.931  0.00  0.00    +0.000 F 
ENDBRANCH   8  28
BRANCH   6  32
ATOM     32  C   UNL     1       4.991   4.087  17.140  0.00  0.00    +0.000 C 
BRANCH  32  33
ATOM     33  N   UNL     1       6.384   4.548  17.252  0.00  0.00    +0.000 NA
ATOM     34  C   UNL     1       6.457   6.016  17.345  0.00  0.00    +0.000 C 
ATOM     35  C   UNL     1       6.268   6.811  16.026  0.00  0.00    +0.000 C 
ATOM     36  O   UNL     1       6.033   6.089  14.813  0.00  0.00    +0.000 OA
ATOM     37  C   UNL     1       6.591   4.769  14.669  0.00  0.00    +0.000 C 
ATOM     38  C   UNL     1       7.584   4.789  13.490  0.00  0.00    +0.000 C 
ATOM     39  C   UNL     1       6.882   4.082  12.333  0.00  0.00    +0.000 C 
ATOM     40  O   UNL     1       5.507   3.990  12.680  0.00  0.00    +0.000 OA
ATOM     41  C   UNL     1       5.481   3.859  14.105  0.00  0.00    +0.000 C 
ATOM     42  C   UNL     1       7.162   4.212  16.011  0.00  0.00    +0.000 C 
ENDBRANCH  32  33
ENDBRANCH   6  32
TORSDOF 7
ENDMDL
MODEL 2
REMARK VINA RESULT:     -10.3      1.760      2.718
REMARK  Name = 
REMARK  8 active torsions:
REMARK  status: ('A' for Active; 'I' for Inactive)
REMARK    1  A    between atoms: C_1  and  N_2
REMARK    2  A    between atoms: C_6  and  C_7
REMARK    3  A    between atoms: C_7  and  C_8
REMARK    4  A    between atoms: C_8  and  C_9
REMARK    5  A    between atoms: C_13  and  N_14
REMARK    6  A    between atoms: C_19  and  C_20
REMARK    7  A    between atoms: C_20  and  N_21
REMARK    8  A    between atoms: C_32  and  C_33
REMARK                            x       y       z     vdW  Elec       q    Type
REMARK                         _______ _______ _______ _____ _____    ______ ____
ROOT
ATOM      1  N   UNL     1       1.513   8.024  20.239  0.00  0.00    +0.000 N 
ATOM      2  C   UNL     1       1.616   6.726  20.862  0.00  0.00    +0.000 C 
ATOM      3  C   UNL     1       2.261   5.886  19.828  0.00  0.00    +0.000 A 
ATOM      4  C   UNL     1       2.718   6.667  18.767  0.00  0.00    +0.000 A 
ATOM      5  C   UNL     1       3.559   6.127  17.781  0.00  0.00    +0.000 A 
ATOM      6  C   UNL     1       3.882   4.753  17.857  0.00  0.00    +0.000 A 
ATOM      7  C   UNL     1       3.257   3.967  18.877  0.00  0.00    +0.000 A 
ATOM      8  C   UNL     1       2.476   4.521  19.888  0.00  0.00    +0.000 A 
ATOM      9  C   UNL     1       2.160   8.042  18.989  0.00  0.00    +0.000 C 
ATOM     10  O   UNL     1       2.266   8.950  18.186  0.00  0.00    +0.000 OA
ENDROOT
BRANCH   1  15
ATOM     11  C   UNL     1      -0.749  11.018  20.459  0.00  0.00    +0.000 A 
ATOM     12  C   UNL     1      -0.831  11.132  21.857  0.00  0.00    +0.000 A 
ATOM     13  C   UNL     1      -0.262  10.171  22.712  0.00  0.00    +0.000 A 
ATOM     14  C   UNL     1       0.444   9.074  22.201  0.00  0.00    +0.000 A 
ATOM     15  C   UNL     1       0.616   8.956  20.829  0.00  0.00    +0.000 A 
ATOM     16  C   UNL     1      -0.023   9.904  19.995  0.00  0.00    +0.000 A 
BRANCH  11  17
ATOM     17  C   UNL     1      -1.443  12.066  19.433  0.00  0.00    +0.000 C 
ATOM     18  C   UNL     1      -2.994  12.142  19.532  0.00  0.00    +0.000 C 
ATOM     19  O   UNL     1      -3.171  11.745  18.160  0.00  0.00    +0.000 OA
ATOM     20  C   UNL     1      -1.748  11.581  17.983  0.00  0.00    +0.000 C 
BRANCH  17  21
ATOM     21  C   UNL     1      -0.775  13.466  19.479  0.00  0.00    +0.000 C 
BRANCH  21  27
ATOM     22  C   UNL     1       1.300  14.453  21.656  0.00  0.00    +0.000 C 
ATOM     23  N   UNL     1       1.586  13.911  20.360  0.00  0.00    +0.000 N 
ATOM     24  C   UNL     1       2.845  13.772  19.838  0.00  0.00    +0.000 A 
ATOM     25  N   UNL     1       2.760  13.279  18.625  0.00  0.00    +0.000 NA
ATOM     26  N   UNL     1       1.434  13.090  18.344  0.00  0.00    +0.000 NA
ATOM     27  C   UNL     1       0.722  13.460  19.392  0.00  0.00    +0.000 A 
ENDBRANCH  21  27
ENDBRANCH  17  21
ENDBRANCH  11  17
ENDBRANCH   1  15
BRANCH   8  28
ATOM     28  C   UNL     1       1.930   3.669  21.010  0.00  0.00    +0.000 C 
ATOM     29  F   UNL     1       2.365   4.042  22.238  0.00  0.00    +0.000 F 
ATOM     30  F   UNL     1       0.571   3.698  21.064  0.00  0.00    +0.000 F 
ATOM     31  F   UNL     1       2.279   2.360  20.879  0.00  0.00    +0.000 F 
ENDBRANCH   8  28
BRANCH   6  32
ATOM     32  C   UNL     1       5.051   4.053  17.168  0.00  0.00    +0.000 C 
BRANCH  32  33
ATOM     33  N   UNL     1       6.440   4.531  17.266  0.00  0.00    +0.000 NA
ATOM     34  C   UNL     1       6.496   5.999  17.363  0.00  0.00    +0.000 C 
ATOM     35  C   UNL     1       6.283   6.797  16.050  0.00  0.00    +0.000 C 
ATOM     36  O   UNL     1       6.042   6.077  14.837  0.00  0.00    +0.000 OA
ATOM     37  C   UNL     1       6.615   4.763  14.682  0.00  0.00    +0.000 C 
ATOM     38  C   UNL     1       7.593   4.799  13.492  0.00  0.00    +0.000 C 
ATOM     39  C   UNL     1       6.887   4.088  12.340  0.00  0.00    +0.000 C 
ATOM     40  O   UNL     1       5.517   3.978  12.702  0.00  0.00    +0.000 OA
ATOM     41  C   UNL     1       5.510   3.842  14.127  0.00  0.00    +0.000 C 
ATOM     42  C   UNL     1       7.208   4.209  16.015  0.00  0.00    +0.000 C 
ENDBRANCH  32  33
ENDBRANCH   6  32
TORSDOF 7
ENDMDL
MODEL 3
REMARK VINA RESULT:     -10.2      4.046      5.721
REMARK  Name = 
REMARK  8 active torsions:
REMARK  status: ('A' for Active; 'I' for Inactive)
REMARK    1  A    between atoms: C_1  and  N_2
REMARK    2  A    between atoms: C_6  and  C_7
REMARK    3  A    between atoms: C_7  and  C_8
REMARK    4  A    between atoms: C_8  and  C_9
REMARK    5  A    between atoms: C_13  and  N_14
REMARK    6  A    between atoms: C_19  and  C_20
REMARK    7  A    between atoms: C_20  and  N_21
REMARK    8  A    between atoms: C_32  and  C_33
REMARK                            x       y       z     vdW  Elec       q    Type
REMARK                         _______ _______ _______ _____ _____    ______ ____
ROOT
ATOM      1  N   UNL     1      -0.121  11.202  21.650  0.00  0.00    +0.000 N 
ATOM      2  C   UNL     1       0.199  10.927  20.269  0.00  0.00    +0.000 C 
ATOM      3  C   UNL     1       0.875   9.611  20.318  0.00  0.00    +0.000 A 
ATOM      4  C   UNL     1       0.761   9.040  21.586  0.00  0.00    +0.000 A 
ATOM      5  C   UNL     1       1.123   7.702  21.812  0.00  0.00    +0.000 A 
ATOM      6  C   UNL     1       1.664   6.965  20.734  0.00  0.00    +0.000 A 
ATOM      7  C   UNL     1       1.905   7.648  19.500  0.00  0.00    +0.000 A 
ATOM      8  C   UNL     1       1.484   8.956  19.264  0.00  0.00    +0.000 A 
ATOM      9  C   UNL     1       0.191  10.106  22.474  0.00  0.00    +0.000 C 
ATOM     10  O   UNL     1       0.068   9.984  23.679  0.00  0.00    +0.000 OA
ENDROOT
BRANCH   1  15
ATOM     11  C   UNL     1      -2.244  14.092  22.779  0.00  0.00    +0.000 A 
ATOM     12  C   UNL     1      -1.446  15.150  22.311  0.00  0.00    +0.000 A 
ATOM     13  C   UNL     1      -0.176  14.926  21.751  0.00  0.00    +0.000 A 
ATOM     14  C   UNL     1       0.334  13.629  21.604  0.00  0.00    +0.000 A 
ATOM     15  C   UNL     1      -0.447  12.546  21.983  0.00  0.00    +0.000 A 
ATOM     16  C   UNL     1      -1.693  12.808  22.601  0.00  0.00    +0.000 A 
BRANCH  11  17
ATOM     17  C   UNL     1      -3.687  14.305  23.489  0.00  0.00    +0.000 C 
ATOM     18  C   UNL     1      -4.611  15.341  22.785  0.00  0.00    +0.000 C 
ATOM     19  O   UNL     1      -4.683  16.176  23.956  0.00  0.00    +0.000 OA
ATOM     20  C   UNL     1      -3.779  15.312  24.677  0.00  0.00    +0.000 C 
BRANCH  17  21
ATOM     21  C   UNL     1      -4.410  12.961  23.772  0.00  0.00    +0.000 C 
BRANCH  21  27
ATOM     22  C   UNL     1      -7.495  13.428  24.299  0.00  0.00    +0.000 C 
ATOM     23  N   UNL     1      -6.885  12.859  23.132  0.00  0.00    +0.000 N 
ATOM     24  C   UNL     1      -7.577  12.381  22.051  0.00  0.00    +0.000 A 
ATOM     25  N   UNL     1      -6.729  11.899  21.173  0.00  0.00    +0.000 NA
ATOM     26  N   UNL     1      -5.467  12.061  21.679  0.00  0.00    +0.000 NA
ATOM     27  C   UNL     1      -5.556  12.650  22.857  0.00  0.00    +0.000 A 
ENDBRANCH  21  27
ENDBRANCH  17  21
ENDBRANCH  11  17
ENDBRANCH   1  15
BRANCH   8  28
ATOM     28  C   UNL     1       1.657   9.599  17.909  0.00  0.00    +0.000 C 
ATOM     29  F   UNL     1       2.395   8.860  17.045  0.00  0.00    +0.000 F 
ATOM     30  F   UNL     1       0.467   9.828  17.291  0.00  0.00    +0.000 F 
ATOM     31  F   UNL     1       2.284  10.805  17.987  0.00  0.00    +0.000 F 
ENDBRANCH   8  28
BRANCH   6  32
ATOM     32  C   UNL     1       1.751   5.445  20.625  0.00  0.00    +0.000 C 
BRANCH  32  33
ATOM     33  N   UNL     1       1.206   4.692  19.484  0.00  0.00    +0.000 NA
ATOM     34  C   UNL     1       0.996   3.275  19.828  0.00  0.00    +0.000 C 
ATOM     35  C   UNL     1       2.254   2.369  19.862  0.00  0.00    +0.000 C 
ATOM     36  O   UNL     1       3.530   2.948  19.569  0.00  0.00    +0.000 OA
ATOM     37  C   UNL     1       3.594   4.068  18.665  0.00  0.00    +0.000 C 
ATOM     38  C   UNL     1       4.428   3.652  17.437  0.00  0.00    +0.000 C 
ATOM     39  C   UNL     1       5.785   4.333  17.595  0.00  0.00    +0.000 C 
ATOM     40  O   UNL     1       5.862   4.791  18.938  0.00  0.00    +0.000 OA
ATOM     41  C   UNL     1       4.519   5.123  19.305  0.00  0.00    +0.000 C 
ATOM     42  C   UNL     1       2.186   4.659  18.344  0.00  0.00    +0.000 C 
ENDBRANCH  32  33
ENDBRANCH   6  32
TORSDOF 7
ENDMDL
MODEL 4
REMARK VINA RESULT:     -10.2      2.363      3.405
REMARK  Name = 
REMARK  8 active torsions:
REMARK  status: ('A' for Active; 'I' for Inactive)
REMARK    1  A    between atoms: C_1  and  N_2
REMARK    2  A    between atoms: C_6  and  C_7
REMARK    3  A    between atoms: C_7  and  C_8
REMARK    4  A    between atoms: C_8  and  C_9
REMARK    5  A    between atoms: C_13  and  N_14
REMARK    6  A    between atoms: C_19  and  C_20
REMARK    7  A    between atoms: C_20  and  N_21
REMARK    8  A    between atoms: C_32  and  C_33
REMARK                            x       y       z     vdW  Elec       q    Type
REMARK                         _______ _______ _______ _____ _____    ______ ____
ROOT
ATOM      1  N   UNL     1       1.177   8.442  20.583  0.00  0.00    +0.000 N 
ATOM      2  C   UNL     1       1.416   7.084  21.011  0.00  0.00    +0.000 C 
ATOM      3  C   UNL     1       1.947   6.420  19.799  0.00  0.00    +0.000 A 
ATOM      4  C   UNL     1       2.222   7.353  18.800  0.00  0.00    +0.000 A 
ATOM      5  C   UNL     1       2.941   6.991  17.650  0.00  0.00    +0.000 A 
ATOM      6  C   UNL     1       3.326   5.639  17.500  0.00  0.00    +0.000 A 
ATOM      7  C   UNL     1       2.880   4.696  18.480  0.00  0.00    +0.000 A 
ATOM      8  C   UNL     1       2.223   5.073  19.650  0.00  0.00    +0.000 A 
ATOM      9  C   UNL     1       1.644   8.654  19.273  0.00  0.00    +0.000 C 
ATOM     10  O   UNL     1       1.602   9.661  18.591  0.00  0.00    +0.000 OA
ENDROOT
BRANCH   1  15
ATOM     11  C   UNL     1      -0.962  11.373  21.569  0.00  0.00    +0.000 A 
ATOM     12  C   UNL     1      -1.002  11.161  22.957  0.00  0.00    +0.000 A 
ATOM     13  C   UNL     1      -0.449  10.010  23.546  0.00  0.00    +0.000 A 
ATOM     14  C   UNL     1       0.200   9.040  22.771  0.00  0.00    +0.000 A 
ATOM     15  C   UNL     1       0.332   9.240  21.404  0.00  0.00    +0.000 A 
ATOM     16  C   UNL     1      -0.291  10.376  20.835  0.00  0.00    +0.000 A 
BRANCH  11  17
ATOM     17  C   UNL     1      -1.641  12.653  20.838  0.00  0.00    +0.000 C 
ATOM     18  C   UNL     1      -2.494  12.307  19.584  0.00  0.00    +0.000 C 
ATOM     19  O   UNL     1      -1.677  13.117  18.719  0.00  0.00    +0.000 OA
ATOM     20  C   UNL     1      -0.785  13.447  19.804  0.00  0.00    +0.000 C 
BRANCH  17  21
ATOM     21  C   UNL     1      -2.396  13.570  21.837  0.00  0.00    +0.000 C 
BRANCH  21  27
ATOM     22  C   UNL     1      -4.759  15.336  20.691  0.00  0.00    +0.000 C 
ATOM     23  N   UNL     1      -4.864  14.118  21.440  0.00  0.00    +0.000 N 
ATOM     24  C   UNL     1      -6.046  13.539  21.819  0.00  0.00    +0.000 A 
ATOM     25  N   UNL     1      -5.796  12.459  22.519  0.00  0.00    +0.000 NA
ATOM     26  N   UNL     1      -4.436  12.322  22.603  0.00  0.00    +0.000 NA
ATOM     27  C   UNL     1      -3.869  13.316  21.945  0.00  0.00    +0.000 A 
ENDBRANCH  21  27
ENDBRANCH  17  21
ENDBRANCH  11  17
ENDBRANCH   1  15
BRANCH   8  28
ATOM     28  C   UNL     1       1.871   4.057  20.710  0.00  0.00    +0.000 C 
ATOM     29  F   UNL     1       2.363   4.357  21.937  0.00  0.00    +0.000 F 
ATOM     30  F   UNL     1       0.527   3.918  20.865  0.00  0.00    +0.000 F 
ATOM     31  F   UNL     1       2.352   2.818  20.416  0.00  0.00    +0.000 F 
ENDBRANCH   8  28
BRANCH   6  32
ATOM     32  C   UNL     1       4.417   5.101  16.578  0.00  0.00    +0.000 C 
BRANCH  32  33
ATOM     33  N   UNL     1       5.377   5.971  15.880  0.00  0.00    +0.000 NA
ATOM     34  C   UNL     1       6.281   5.190  15.019  0.00  0.00    +0.000 C 
ATOM     35  C   UNL     1       7.436   4.431  15.722  0.00  0.00    +0.000 C 
ATOM     36  O   UNL     1       7.557   4.524  17.146  0.00  0.00    +0.000 OA
ATOM     37  C   UNL     1       7.108   5.725  17.804  0.00  0.00    +0.000 C 
ATOM     38  C   UNL     1       8.321   6.384  18.489  0.00  0.00    +0.000 C 
ATOM     39  C   UNL     1       8.173   6.099  19.982  0.00  0.00    +0.000 C 
ATOM     40  O   UNL     1       7.190   5.080  20.111  0.00  0.00    +0.000 OA
ATOM     41  C   UNL     1       6.277   5.293  19.030  0.00  0.00    +0.000 C 
ATOM     42  C   UNL     1       6.291   6.657  16.857  0.00  0.00    +0.000 C 
ENDBRANCH  32  33
ENDBRANCH   6  32
TORSDOF 7
ENDMDL
MODEL 5
REMARK VINA RESULT:     -10.2      1.851      2.846
REMARK  Name = 
REMARK  8 active torsions:
REMARK  status: ('A' for Active; 'I' for Inactive)
REMARK    1  A    between atoms: C_1  and  N_2
REMARK    2  A    between atoms: C_6  and  C_7
REMARK    3  A    between atoms: C_7  and  C_8
REMARK    4  A    between atoms: C_8  and  C_9
REMARK    5  A    between atoms: C_13  and  N_14
REMARK    6  A    between atoms: C_19  and  C_20
REMARK    7  A    between atoms: C_20  and  N_21
REMARK    8  A    between atoms: C_32  and  C_33
REMARK                            x       y       z     vdW  Elec       q    Type
REMARK                         _______ _______ _______ _____ _____    ______ ____
ROOT
ATOM      1  N   UNL     1       1.515   7.987  20.232  0.00  0.00    +0.000 N 
ATOM      2  C   UNL     1       1.631   6.686  20.847  0.00  0.00    +0.000 C 
ATOM      3  C   UNL     1       2.257   5.852  19.795  0.00  0.00    +0.000 A 
ATOM      4  C   UNL     1       2.692   6.639  18.729  0.00  0.00    +0.000 A 
ATOM      5  C   UNL     1       3.514   6.106  17.724  0.00  0.00    +0.000 A 
ATOM      6  C   UNL     1       3.840   4.732  17.786  0.00  0.00    +0.000 A 
ATOM      7  C   UNL     1       3.236   3.939  18.814  0.00  0.00    +0.000 A 
ATOM      8  C   UNL     1       2.475   4.488  19.844  0.00  0.00    +0.000 A 
ATOM      9  C   UNL     1       2.137   8.012  18.970  0.00  0.00    +0.000 C 
ATOM     10  O   UNL     1       2.226   8.925  18.170  0.00  0.00    +0.000 OA
ENDROOT
BRANCH   1  15
ATOM     11  C   UNL     1      -0.801  10.936  20.496  0.00  0.00    +0.000 A 
ATOM     12  C   UNL     1      -0.812  11.085  21.893  0.00  0.00    +0.000 A 
ATOM     13  C   UNL     1      -0.177  10.160  22.740  0.00  0.00    +0.000 A 
ATOM     14  C   UNL     1       0.526   9.065  22.221  0.00  0.00    +0.000 A 
ATOM     15  C   UNL     1       0.629   8.915  20.845  0.00  0.00    +0.000 A 
ATOM     16  C   UNL     1      -0.074   9.827  20.022  0.00  0.00    +0.000 A 
BRANCH  11  17
ATOM     17  C   UNL     1      -1.571  11.942  19.481  0.00  0.00    +0.000 C 
ATOM     18  C   UNL     1      -2.745  12.737  20.122  0.00  0.00    +0.000 C 
ATOM     19  O   UNL     1      -3.710  12.184  19.208  0.00  0.00    +0.000 OA
ATOM     20  C   UNL     1      -2.705  11.355  18.586  0.00  0.00    +0.000 C 
BRANCH  17  21
ATOM     21  C   UNL     1      -0.590  12.857  18.701  0.00  0.00    +0.000 C 
BRANCH  21  27
ATOM     22  C   UNL     1       2.516  12.434  18.262  0.00  0.00    +0.000 C 
ATOM     23  N   UNL     1       1.876  13.200  19.292  0.00  0.00    +0.000 N 
ATOM     24  C   UNL     1       2.538  13.851  20.299  0.00  0.00    +0.000 A 
ATOM     25  N   UNL     1       1.665  14.424  21.092  0.00  0.00    +0.000 NA
ATOM     26  N   UNL     1       0.415  14.150  20.605  0.00  0.00    +0.000 NA
ATOM     27  C   UNL     1       0.538  13.419  19.513  0.00  0.00    +0.000 A 
ENDBRANCH  21  27
ENDBRANCH  17  21
ENDBRANCH  11  17
ENDBRANCH   1  15
BRANCH   8  28
ATOM     28  C   UNL     1       1.952   3.629  20.971  0.00  0.00    +0.000 C 
ATOM     29  F   UNL     1       0.600   3.592  21.046  0.00  0.00    +0.000 F 
ATOM     30  F   UNL     1       2.361   2.336  20.867  0.00  0.00    +0.000 F 
ATOM     31  F   UNL     1       2.375   4.065  22.189  0.00  0.00    +0.000 F 
ENDBRANCH   8  28
BRANCH   6  32
ATOM     32  C   UNL     1       4.996   4.037  17.071  0.00  0.00    +0.000 C 
BRANCH  32  33
ATOM     33  N   UNL     1       6.393   4.487  17.183  0.00  0.00    +0.000 NA
ATOM     34  C   UNL     1       6.477   5.953  17.289  0.00  0.00    +0.000 C 
ATOM     35  C   UNL     1       6.291   6.762  15.979  0.00  0.00    +0.000 C 
ATOM     36  O   UNL     1       6.047   6.053  14.759  0.00  0.00    +0.000 OA
ATOM     37  C   UNL     1       6.595   4.730  14.602  0.00  0.00    +0.000 C 
ATOM     38  C   UNL     1       7.584   4.753  13.420  0.00  0.00    +0.000 C 
ATOM     39  C   UNL     1       6.874   4.062  12.259  0.00  0.00    +0.000 C 
ATOM     40  O   UNL     1       5.499   3.977  12.609  0.00  0.00    +0.000 OA
ATOM     41  C   UNL     1       5.476   3.834  14.032  0.00  0.00    +0.000 C 
ATOM     42  C   UNL     1       7.166   4.157  15.937  0.00  0.00    +0.000 C 
ENDBRANCH  32  33
ENDBRANCH   6  32
TORSDOF 7
ENDMDL
MODEL 6
REMARK VINA RESULT:     -10.1      3.932      5.815
REMARK  Name = 
REMARK  8 active torsions:
REMARK  status: ('A' for Active; 'I' for Inactive)
REMARK    1  A    between atoms: C_1  and  N_2
REMARK    2  A    between atoms: C_6  and  C_7
REMARK    3  A    between atoms: C_7  and  C_8
REMARK    4  A    between atoms: C_8  and  C_9
REMARK    5  A    between atoms: C_13  and  N_14
REMARK    6  A    between atoms: C_19  and  C_20
REMARK    7  A    between atoms: C_20  and  N_21
REMARK    8  A    between atoms: C_32  and  C_33
REMARK                            x       y       z     vdW  Elec       q    Type
REMARK                         _______ _______ _______ _____ _____    ______ ____
ROOT
ATOM      1  N   UNL     1      -0.285  11.125  21.643  0.00  0.00    +0.000 N 
ATOM      2  C   UNL     1       0.043  10.870  20.261  0.00  0.00    +0.000 C 
ATOM      3  C   UNL     1       0.804   9.601  20.306  0.00  0.00    +0.000 A 
ATOM      4  C   UNL     1       0.735   9.025  21.574  0.00  0.00    +0.000 A 
ATOM      5  C   UNL     1       1.184   7.713  21.798  0.00  0.00    +0.000 A 
ATOM      6  C   UNL     1       1.765   7.012  20.717  0.00  0.00    +0.000 A 
ATOM      7  C   UNL     1       1.953   7.709  19.481  0.00  0.00    +0.000 A 
ATOM      8  C   UNL     1       1.447   8.986  19.248  0.00  0.00    +0.000 A 
ATOM      9  C   UNL     1       0.103  10.052  22.466  0.00  0.00    +0.000 C 
ATOM     10  O   UNL     1      -0.004   9.924  23.671  0.00  0.00    +0.000 OA
ENDROOT
BRANCH   1  15
ATOM     11  C   UNL     1      -0.463  14.874  21.431  0.00  0.00    +0.000 A 
ATOM     12  C   UNL     1      -1.030  15.141  22.689  0.00  0.00    +0.000 A 
ATOM     13  C   UNL     1      -1.465  14.108  23.538  0.00  0.00    +0.000 A 
ATOM     14  C   UNL     1      -1.317  12.762  23.177  0.00  0.00    +0.000 A 
ATOM     15  C   UNL     1      -0.695  12.445  21.978  0.00  0.00    +0.000 A 
ATOM     16  C   UNL     1      -0.328  13.508  21.118  0.00  0.00    +0.000 A 
BRANCH  11  17
ATOM     17  C   UNL     1      -0.005  16.033  20.391  0.00  0.00    +0.000 C 
ATOM     18  C   UNL     1      -0.920  17.291  20.376  0.00  0.00    +0.000 C 
ATOM     19  O   UNL     1      -1.239  17.127  18.982  0.00  0.00    +0.000 OA
ATOM     20  C   UNL     1      -0.466  15.911  18.907  0.00  0.00    +0.000 C 
BRANCH  17  21
ATOM     21  C   UNL     1       1.498  16.393  20.535  0.00  0.00    +0.000 C 
BRANCH  21  27
ATOM     22  C   UNL     1       2.898  13.958  19.078  0.00  0.00    +0.000 C 
ATOM     23  N   UNL     1       2.876  15.330  18.660  0.00  0.00    +0.000 N 
ATOM     24  C   UNL     1       3.515  15.813  17.548  0.00  0.00    +0.000 A 
ATOM     25  N   UNL     1       3.327  17.108  17.469  0.00  0.00    +0.000 NA
ATOM     26  N   UNL     1       2.557  17.485  18.536  0.00  0.00    +0.000 NA
ATOM     27  C   UNL     1       2.273  16.412  19.252  0.00  0.00    +0.000 A 
ENDBRANCH  21  27
ENDBRANCH  17  21
ENDBRANCH  11  17
ENDBRANCH   1  15
BRANCH   8  28
ATOM     28  C   UNL     1       1.569   9.638  17.891  0.00  0.00    +0.000 C 
ATOM     29  F   UNL     1       2.296   8.917  17.003  0.00  0.00    +0.000 F 
ATOM     30  F   UNL     1       0.358   9.847  17.308  0.00  0.00    +0.000 F 
ATOM     31  F   UNL     1       2.175  10.855  17.957  0.00  0.00    +0.000 F 
ENDBRANCH   8  28
BRANCH   6  32
ATOM     32  C   UNL     1       1.950   5.500  20.607  0.00  0.00    +0.000 C 
BRANCH  32  33
ATOM     33  N   UNL     1       1.402   4.705  19.496  0.00  0.00    +0.000 NA
ATOM     34  C   UNL     1       1.255   3.289  19.872  0.00  0.00    +0.000 C 
ATOM     35  C   UNL     1       2.547   2.431  19.888  0.00  0.00    +0.000 C 
ATOM     36  O   UNL     1       3.792   3.052  19.548  0.00  0.00    +0.000 OA
ATOM     37  C   UNL     1       3.789   4.156  18.622  0.00  0.00    +0.000 C 
ATOM     38  C   UNL     1       4.604   3.747  17.379  0.00  0.00    +0.000 C 
ATOM     39  C   UNL     1       5.938   4.481  17.486  0.00  0.00    +0.000 C 
ATOM     40  O   UNL     1       6.034   4.968  18.818  0.00  0.00    +0.000 OA
ATOM     41  C   UNL     1       4.690   5.257  19.217  0.00  0.00    +0.000 C 
ATOM     42  C   UNL     1       2.351   4.687  18.330  0.00  0.00    +0.000 C 
ENDBRANCH  32  33
ENDBRANCH   6  32
TORSDOF 7
ENDMDL
MODEL 7
REMARK VINA RESULT:     -10.1      1.637      2.813
REMARK  Name = 
REMARK  8 active torsions:
REMARK  status: ('A' for Active; 'I' for Inactive)
REMARK    1  A    between atoms: C_1  and  N_2
REMARK    2  A    between atoms: C_6  and  C_7
REMARK    3  A    between atoms: C_7  and  C_8
REMARK    4  A    between atoms: C_8  and  C_9
REMARK    5  A    between atoms: C_13  and  N_14
REMARK    6  A    between atoms: C_19  and  C_20
REMARK    7  A    between atoms: C_20  and  N_21
REMARK    8  A    between atoms: C_32  and  C_33
REMARK                            x       y       z     vdW  Elec       q    Type
REMARK                         _______ _______ _______ _____ _____    ______ ____
ROOT
ATOM      1  N   UNL     1       1.145   8.503  20.491  0.00  0.00    +0.000 N 
ATOM      2  C   UNL     1       1.378   7.149  20.932  0.00  0.00    +0.000 C 
ATOM      3  C   UNL     1       1.924   6.474  19.732  0.00  0.00    +0.000 A 
ATOM      4  C   UNL     1       2.213   7.400  18.730  0.00  0.00    +0.000 A 
ATOM      5  C   UNL     1       2.946   7.028  17.592  0.00  0.00    +0.000 A 
ATOM      6  C   UNL     1       3.333   5.675  17.458  0.00  0.00    +0.000 A 
ATOM      7  C   UNL     1       2.873   4.740  18.439  0.00  0.00    +0.000 A 
ATOM      8  C   UNL     1       2.201   5.126  19.597  0.00  0.00    +0.000 A 
ATOM      9  C   UNL     1       1.630   8.705  19.185  0.00  0.00    +0.000 C 
ATOM     10  O   UNL     1       1.598   9.706  18.495  0.00  0.00    +0.000 OA
ENDROOT
BRANCH   1  15
ATOM     11  C   UNL     1      -0.936  11.480  21.460  0.00  0.00    +0.000 A 
ATOM     12  C   UNL     1      -1.049  11.232  22.838  0.00  0.00    +0.000 A 
ATOM     13  C   UNL     1      -0.564  10.047  23.419  0.00  0.00    +0.000 A 
ATOM     14  C   UNL     1       0.088   9.075  22.647  0.00  0.00    +0.000 A 
ATOM     15  C   UNL     1       0.291   9.307  21.294  0.00  0.00    +0.000 A 
ATOM     16  C   UNL     1      -0.266  10.480  20.729  0.00  0.00    +0.000 A 
BRANCH  11  17
ATOM     17  C   UNL     1      -1.535  12.803  20.736  0.00  0.00    +0.000 C 
ATOM     18  C   UNL     1      -0.816  14.131  21.111  0.00  0.00    +0.000 C 
ATOM     19  O   UNL     1      -2.021  14.715  21.638  0.00  0.00    +0.000 OA
ATOM     20  C   UNL     1      -2.765  13.504  21.390  0.00  0.00    +0.000 C 
BRANCH  17  21
ATOM     21  C   UNL     1      -1.682  12.619  19.202  0.00  0.00    +0.000 C 
BRANCH  21  27
ATOM     22  C   UNL     1      -1.728  10.077  17.318  0.00  0.00    +0.000 C 
ATOM     23  N   UNL     1      -2.848  10.725  17.937  0.00  0.00    +0.000 N 
ATOM     24  C   UNL     1      -4.154  10.350  17.765  0.00  0.00    +0.000 A 
ATOM     25  N   UNL     1      -4.931  11.165  18.437  0.00  0.00    +0.000 NA
ATOM     26  N   UNL     1      -4.132  12.087  19.059  0.00  0.00    +0.000 NA
ATOM     27  C   UNL     1      -2.873  11.819  18.768  0.00  0.00    +0.000 A 
ENDBRANCH  21  27
ENDBRANCH  17  21
ENDBRANCH  11  17
ENDBRANCH   1  15
BRANCH   8  28
ATOM     28  C   UNL     1       1.835   4.119  20.660  0.00  0.00    +0.000 C 
ATOM     29  F   UNL     1       2.296   2.869  20.409  0.00  0.00    +0.000 F 
ATOM     30  F   UNL     1       2.318   4.462  21.885  0.00  0.00    +0.000 F 
ATOM     31  F   UNL     1       0.488   3.989  20.805  0.00  0.00    +0.000 F 
ENDBRANCH   8  28
BRANCH   6  32
ATOM     32  C   UNL     1       4.436   5.129  16.554  0.00  0.00    +0.000 C 
BRANCH  32  33
ATOM     33  N   UNL     1       5.412   5.992  15.871  0.00  0.00    +0.000 NA
ATOM     34  C   UNL     1       6.320   5.205  15.020  0.00  0.00    +0.000 C 
ATOM     35  C   UNL     1       7.460   4.435  15.738  0.00  0.00    +0.000 C 
ATOM     36  O   UNL     1       7.562   4.524  17.163  0.00  0.00    +0.000 OA
ATOM     37  C   UNL     1       7.114   5.727  17.818  0.00  0.00    +0.000 C 
ATOM     38  C   UNL     1       8.324   6.375  18.520  0.00  0.00    +0.000 C 
ATOM     39  C   UNL     1       8.154   6.088  20.010  0.00  0.00    +0.000 C 
ATOM     40  O   UNL     1       7.160   5.077  20.124  0.00  0.00    +0.000 OA
ATOM     41  C   UNL     1       6.263   5.300  19.031  0.00  0.00    +0.000 C 
ATOM     42  C   UNL     1       6.318   6.668  16.861  0.00  0.00    +0.000 C 
ENDBRANCH  32  33
ENDBRANCH   6  32
TORSDOF 7
ENDMDL
MODEL 8
REMARK VINA RESULT:     -10.1      2.186      3.626
REMARK  Name = 
REMARK  8 active torsions:
REMARK  status: ('A' for Active; 'I' for Inactive)
REMARK    1  A    between atoms: C_1  and  N_2
REMARK    2  A    between atoms: C_6  and  C_7
REMARK    3  A    between atoms: C_7  and  C_8
REMARK    4  A    between atoms: C_8  and  C_9
REMARK    5  A    between atoms: C_13  and  N_14
REMARK    6  A    between atoms: C_19  and  C_20
REMARK    7  A    between atoms: C_20  and  N_21
REMARK    8  A    between atoms: C_32  and  C_33
REMARK                            x       y       z     vdW  Elec       q    Type
REMARK                         _______ _______ _______ _____ _____    ______ ____
ROOT
ATOM      1  N   UNL     1       1.138   8.533  20.480  0.00  0.00    +0.000 N 
ATOM      2  C   UNL     1       1.374   7.173  20.902  0.00  0.00    +0.000 C 
ATOM      3  C   UNL     1       1.930   6.519  19.696  0.00  0.00    +0.000 A 
ATOM      4  C   UNL     1       2.220   7.461  18.709  0.00  0.00    +0.000 A 
ATOM      5  C   UNL     1       2.962   7.110  17.570  0.00  0.00    +0.000 A 
ATOM      6  C   UNL     1       3.356   5.761  17.418  0.00  0.00    +0.000 A 
ATOM      7  C   UNL     1       2.894   4.809  18.382  0.00  0.00    +0.000 A 
ATOM      8  C   UNL     1       2.214   5.175  19.542  0.00  0.00    +0.000 A 
ATOM      9  C   UNL     1       1.629   8.756  19.181  0.00  0.00    +0.000 C 
ATOM     10  O   UNL     1       1.596   9.768  18.505  0.00  0.00    +0.000 OA
ENDROOT
BRANCH   1  15
ATOM     11  C   UNL     1      -1.169  11.360  21.384  0.00  0.00    +0.000 A 
ATOM     12  C   UNL     1      -1.127  11.242  22.783  0.00  0.00    +0.000 A 
ATOM     13  C   UNL     1      -0.460  10.179  23.416  0.00  0.00    +0.000 A 
ATOM     14  C   UNL     1       0.225   9.207  22.673  0.00  0.00    +0.000 A 
ATOM     15  C   UNL     1       0.275   9.321  21.291  0.00  0.00    +0.000 A 
ATOM     16  C   UNL     1      -0.460  10.366  20.682  0.00  0.00    +0.000 A 
BRANCH  11  17
ATOM     17  C   UNL     1      -1.979  12.533  20.608  0.00  0.00    +0.000 C 
ATOM     18  C   UNL     1      -3.398  12.826  21.174  0.00  0.00    +0.000 C 
ATOM     19  O   UNL     1      -4.038  12.507  19.924  0.00  0.00    +0.000 OA
ATOM     20  C   UNL     1      -2.775  12.149  19.324  0.00  0.00    +0.000 C 
BRANCH  17  21
ATOM     21  C   UNL     1      -1.130  13.821  20.437  0.00  0.00    +0.000 C 
BRANCH  21  27
ATOM     22  C   UNL     1       1.738  14.504  21.586  0.00  0.00    +0.000 C 
ATOM     23  N   UNL     1       1.422  13.946  20.303  0.00  0.00    +0.000 N 
ATOM     24  C   UNL     1       2.347  13.653  19.336  0.00  0.00    +0.000 A 
ATOM     25  N   UNL     1       1.731  13.192  18.274  0.00  0.00    +0.000 NA
ATOM     26  N   UNL     1       0.388  13.178  18.542  0.00  0.00    +0.000 NA
ATOM     27  C   UNL     1       0.198  13.624  19.770  0.00  0.00    +0.000 A 
ENDBRANCH  21  27
ENDBRANCH  17  21
ENDBRANCH  11  17
ENDBRANCH   1  15
BRANCH   8  28
ATOM     28  C   UNL     1       1.846   4.149  20.588  0.00  0.00    +0.000 C 
ATOM     29  F   UNL     1       0.510   4.010  20.767  0.00  0.00    +0.000 F 
ATOM     30  F   UNL     1       2.320   2.910  20.284  0.00  0.00    +0.000 F 
ATOM     31  F   UNL     1       2.350   4.460  21.813  0.00  0.00    +0.000 F 
ENDBRANCH   8  28
BRANCH   6  32
ATOM     32  C   UNL     1       4.466   5.233  16.513  0.00  0.00    +0.000 C 
BRANCH  32  33
ATOM     33  N   UNL     1       5.459   6.109  15.869  0.00  0.00    +0.000 NA
ATOM     34  C   UNL     1       6.375   5.340  15.011  0.00  0.00    +0.000 C 
ATOM     35  C   UNL     1       7.498   4.542  15.724  0.00  0.00    +0.000 C 
ATOM     36  O   UNL     1       7.578   4.590  17.153  0.00  0.00    +0.000 OA
ATOM     37  C   UNL     1       7.128   5.777  17.835  0.00  0.00    +0.000 C 
ATOM     38  C   UNL     1       8.330   6.396  18.574  0.00  0.00    +0.000 C 
ATOM     39  C   UNL     1       8.134   6.068  20.052  0.00  0.00    +0.000 C 
ATOM     40  O   UNL     1       7.133   5.062  20.122  0.00  0.00    +0.000 OA
ATOM     41  C   UNL     1       6.255   5.321  19.022  0.00  0.00    +0.000 C 
ATOM     42  C   UNL     1       6.353   6.750  16.893  0.00  0.00    +0.000 C 
ENDBRANCH  32  33
ENDBRANCH   6  32
TORSDOF 7
ENDMDL
MODEL 9
REMARK VINA RESULT:     -10.0      1.528      2.183
REMARK  Name = 
REMARK  8 active torsions:
REMARK  status: ('A' for Active; 'I' for Inactive)
REMARK    1  A    between atoms: C_1  and  N_2
REMARK    2  A    between atoms: C_6  and  C_7
REMARK    3  A    between atoms: C_7  and  C_8
REMARK    4  A    between atoms: C_8  and  C_9
REMARK    5  A    between atoms: C_13  and  N_14
REMARK    6  A    between atoms: C_19  and  C_20
REMARK    7  A    between atoms: C_20  and  N_21
REMARK    8  A    between atoms: C_32  and  C_33
REMARK                            x       y       z     vdW  Elec       q    Type
REMARK                         _______ _______ _______ _____ _____    ______ ____
ROOT
ATOM      1  N   UNL     1       1.466   7.960  20.391  0.00  0.00    +0.000 N 
ATOM      2  C   UNL     1       1.613   6.657  20.994  0.00  0.00    +0.000 C 
ATOM      3  C   UNL     1       2.229   5.839  19.924  0.00  0.00    +0.000 A 
ATOM      4  C   UNL     1       2.631   6.640  18.856  0.00  0.00    +0.000 A 
ATOM      5  C   UNL     1       3.440   6.125  17.831  0.00  0.00    +0.000 A 
ATOM      6  C   UNL     1       3.787   4.756  17.876  0.00  0.00    +0.000 A 
ATOM      7  C   UNL     1       3.216   3.948  18.910  0.00  0.00    +0.000 A 
ATOM      8  C   UNL     1       2.468   4.478  19.959  0.00  0.00    +0.000 A 
ATOM      9  C   UNL     1       2.061   8.003  19.117  0.00  0.00    +0.000 C 
ATOM     10  O   UNL     1       2.121   8.923  18.322  0.00  0.00    +0.000 OA
ENDROOT
BRANCH   1  15
ATOM     11  C   UNL     1      -0.800  10.939  20.750  0.00  0.00    +0.000 A 
ATOM     12  C   UNL     1      -0.853  11.009  22.152  0.00  0.00    +0.000 A 
ATOM     13  C   UNL     1      -0.264  10.025  22.965  0.00  0.00    +0.000 A 
ATOM     14  C   UNL     1       0.435   8.946  22.406  0.00  0.00    +0.000 A 
ATOM     15  C   UNL     1       0.579   8.871  21.028  0.00  0.00    +0.000 A 
ATOM     16  C   UNL     1      -0.080   9.842  20.237  0.00  0.00    +0.000 A 
BRANCH  11  17
ATOM     17  C   UNL     1      -1.518  12.015  19.771  0.00  0.00    +0.000 C 
ATOM     18  C   UNL     1      -2.405  11.389  18.657  0.00  0.00    +0.000 C 
ATOM     19  O   UNL     1      -1.626  11.986  17.604  0.00  0.00    +0.000 OA
ATOM     20  C   UNL     1      -0.705  12.559  18.556  0.00  0.00    +0.000 C 
BRANCH  17  21
ATOM     21  C   UNL     1      -2.254  13.131  20.560  0.00  0.00    +0.000 C 
BRANCH  21  27
ATOM     22  C   UNL     1      -3.828  12.661  23.265  0.00  0.00    +0.000 C 
ATOM     23  N   UNL     1      -4.368  12.704  21.937  0.00  0.00    +0.000 N 
ATOM     24  C   UNL     1      -5.687  12.501  21.629  0.00  0.00    +0.000 A 
ATOM     25  N   UNL     1      -5.845  12.572  20.329  0.00  0.00    +0.000 NA
ATOM     26  N   UNL     1      -4.619  12.826  19.773  0.00  0.00    +0.000 NA
ATOM     27  C   UNL     1      -3.727  12.916  20.741  0.00  0.00    +0.000 A 
ENDBRANCH  21  27
ENDBRANCH  17  21
ENDBRANCH  11  17
ENDBRANCH   1  15
BRANCH   8  28
ATOM     28  C   UNL     1       1.980   3.604  21.090  0.00  0.00    +0.000 C 
ATOM     29  F   UNL     1       2.368   4.033  22.316  0.00  0.00    +0.000 F 
ATOM     30  F   UNL     1       0.623   3.521  21.130  0.00  0.00    +0.000 F 
ATOM     31  F   UNL     1       2.437   2.326  20.988  0.00  0.00    +0.000 F 
ENDBRANCH   8  28
BRANCH   6  32
ATOM     32  C   UNL     1       4.939   4.083  17.133  0.00  0.00    +0.000 C 
BRANCH  32  33
ATOM     33  N   UNL     1       6.336   4.534  17.244  0.00  0.00    +0.000 NA
ATOM     34  C   UNL     1       6.420   6.002  17.332  0.00  0.00    +0.000 C 
ATOM     35  C   UNL     1       6.238   6.793  16.011  0.00  0.00    +0.000 C 
ATOM     36  O   UNL     1       5.998   6.069  14.800  0.00  0.00    +0.000 OA
ATOM     37  C   UNL     1       6.546   4.744  14.661  0.00  0.00    +0.000 C 
ATOM     38  C   UNL     1       7.539   4.751  13.483  0.00  0.00    +0.000 C 
ATOM     39  C   UNL     1       6.833   4.046  12.328  0.00  0.00    +0.000 C 
ATOM     40  O   UNL     1       5.457   3.965  12.674  0.00  0.00    +0.000 OA
ATOM     41  C   UNL     1       5.430   3.840  14.099  0.00  0.00    +0.000 C 
ATOM     42  C   UNL     1       7.112   4.188  16.005  0.00  0.00    +0.000 C 
ENDBRANCH  32  33
ENDBRANCH   6  32
TORSDOF 7
ENDMDL
