MODEL 1
REMARK VINA RESULT:      -8.2      0.000      0.000
REMARK  Name = 
REMARK  9 active torsions:
REMARK  status: ('A' for Active; 'I' for Inactive)
REMARK    1  A    between atoms: C_1  and  C_2
REMARK    2  A    between atoms: C_4  and  C_5
REMARK    3  A    between atoms: N_7  and  C_8
REMARK    4  A    between atoms: C_12  and  C_13
REMARK    5  A    between atoms: C_13  and  C_14
REMARK    6  A    between atoms: C_13  and  C_15
REMARK    7  A    between atoms: C_15  and  C_16
REMARK    8  A    between atoms: N_20  and  C_21
REMARK    9  A    between atoms: C_24  and  C_25
REMARK                            x       y       z     vdW  Elec       q    Type
REMARK                         _______ _______ _______ _____ _____    ______ ____
ROOT
ATOM      1  C   UNL     1       2.632   5.907  18.333  0.00  0.00    +0.000 A 
ATOM      2  C   UNL     1       1.995   4.666  18.411  0.00  0.00    +0.000 A 
ATOM      3  C   UNL     1       2.470   3.569  17.694  0.00  0.00    +0.000 A 
ATOM      4  C   UNL     1       3.608   3.692  16.904  0.00  0.00    +0.000 A 
ATOM      5  C   UNL     1       4.275   4.921  16.803  0.00  0.00    +0.000 A 
ATOM      6  C   UNL     1       3.748   6.037  17.492  0.00  0.00    +0.000 A 
ENDROOT
BRANCH   1   9
ATOM      7  C   UNL     1       1.972   8.297  18.582  0.00  0.00    +0.000 C 
ATOM      8  O   UNL     1       2.081   8.635  17.407  0.00  0.00    +0.000 OA
ATOM      9  N   UNL     1       2.214   7.027  19.093  0.00  0.00    +0.000 N 
ATOM     10  H   UNL     1       1.935   6.881  20.059  0.00  0.00    +0.000 HD
BRANCH   7  14
ATOM     11  C   UNL     1       0.251   9.495  23.093  0.00  0.00    +0.000 C 
ATOM     12  C   UNL     1       0.666   9.831  21.695  0.00  0.00    +0.000 A 
ATOM     13  C   UNL     1       1.117   8.872  20.825  0.00  0.00    +0.000 A 
ATOM     14  C   UNL     1       1.477   9.315  19.566  0.00  0.00    +0.000 A 
ATOM     15  N   UNL     1       1.420  10.607  19.168  0.00  0.00    +0.000 NA
ATOM     16  C   UNL     1       0.964  11.481  20.087  0.00  0.00    +0.000 A 
ATOM     17  N   UNL     1       0.580  11.123  21.332  0.00  0.00    +0.000 NA
BRANCH  16  18
ATOM     18  C   UNL     1       0.861  12.949  19.747  0.00  0.00    +0.000 C 
ATOM     19  C   UNL     1       2.066  13.837  19.993  0.00  0.00    +0.000 C 
ATOM     20  C   UNL     1       1.621  13.552  18.590  0.00  0.00    +0.000 C 
ENDBRANCH  16  18
ENDBRANCH   7  14
ENDBRANCH   1   9
BRANCH   5  21
ATOM     21  C   UNL     1       5.595   5.032  16.039  0.00  0.00    +0.000 C 
ATOM     22  C   UNL     1       5.667   4.012  14.895  0.00  0.00    +0.000 C 
BRANCH  21  23
ATOM     23  C   UNL     1       6.791   4.885  17.013  0.00  0.00    +0.000 C 
BRANCH  23  24
ATOM     24  C   UNL     1       7.352   6.202  17.442  0.00  0.00    +0.000 A 
ATOM     25  N   UNL     1       7.392   7.299  16.712  0.00  0.00    +0.000 NA
ATOM     26  N   UNL     1       7.974   8.294  17.459  0.00  0.00    +0.000 NA
ATOM     27  C   UNL     1       8.270   7.790  18.632  0.00  0.00    +0.000 A 
ATOM     28  N   UNL     1       7.896   6.482  18.671  0.00  0.00    +0.000 N 
ATOM     29  C   UNL     1       8.054   5.601  19.797  0.00  0.00    +0.000 C 
ENDBRANCH  23  24
ENDBRANCH  21  23
ENDBRANCH   5  21
TORSDOF 6
ENDMDL
MODEL 2
REMARK VINA RESULT:      -8.1      3.177      8.954
REMARK  Name = 
REMARK  9 active torsions:
REMARK  status: ('A' for Active; 'I' for Inactive)
REMARK    1  A    between atoms: C_1  and  C_2
REMARK    2  A    between atoms: C_4  and  C_5
REMARK    3  A    between atoms: N_7  and  C_8
REMARK    4  A    between atoms: C_12  and  C_13
REMARK    5  A    between atoms: C_13  and  C_14
REMARK    6  A    between atoms: C_13  and  C_15
REMARK    7  A    between atoms: C_15  and  C_16
REMARK    8  A    between atoms: N_20  and  C_21
REMARK    9  A    between atoms: C_24  and  C_25
REMARK                            x       y       z     vdW  Elec       q    Type
REMARK                         _______ _______ _______ _____ _____    ______ ____
ROOT
ATOM      1  C   UNL     1       1.453   8.322  20.561  0.00  0.00    +0.000 A 
ATOM      2  C   UNL     1       0.880   8.377  21.834  0.00  0.00    +0.000 A 
ATOM      3  C   UNL     1      -0.051   9.362  22.160  0.00  0.00    +0.000 A 
ATOM      4  C   UNL     1      -0.443  10.295  21.207  0.00  0.00    +0.000 A 
ATOM      5  C   UNL     1       0.107  10.269  19.917  0.00  0.00    +0.000 A 
ATOM      6  C   UNL     1       1.092   9.300  19.620  0.00  0.00    +0.000 A 
ENDROOT
BRANCH   1   9
ATOM      7  C   UNL     1       2.098   5.938  20.236  0.00  0.00    +0.000 C 
ATOM      8  O   UNL     1       1.059   5.416  20.631  0.00  0.00    +0.000 OA
ATOM      9  N   UNL     1       2.356   7.302  20.174  0.00  0.00    +0.000 N 
ATOM     10  H   UNL     1       3.207   7.567  19.687  0.00  0.00    +0.000 HD
BRANCH   7  14
ATOM     11  C   UNL     1       3.635   1.523  18.534  0.00  0.00    +0.000 C 
ATOM     12  C   UNL     1       3.860   2.951  18.925  0.00  0.00    +0.000 A 
ATOM     13  C   UNL     1       2.843   3.740  19.395  0.00  0.00    +0.000 A 
ATOM     14  C   UNL     1       3.182   5.042  19.714  0.00  0.00    +0.000 A 
ATOM     15  N   UNL     1       4.423   5.561  19.574  0.00  0.00    +0.000 NA
ATOM     16  C   UNL     1       5.361   4.714  19.107  0.00  0.00    +0.000 A 
ATOM     17  N   UNL     1       5.111   3.425  18.788  0.00  0.00    +0.000 NA
BRANCH  16  18
ATOM     18  C   UNL     1       6.781   5.192  18.912  0.00  0.00    +0.000 C 
ATOM     19  C   UNL     1       7.458   4.937  17.579  0.00  0.00    +0.000 C 
ATOM     20  C   UNL     1       7.115   6.338  17.987  0.00  0.00    +0.000 C 
ENDBRANCH  16  18
ENDBRANCH   7  14
ENDBRANCH   1   9
BRANCH   5  21
ATOM     21  C   UNL     1      -0.410  11.210  18.829  0.00  0.00    +0.000 C 
ATOM     22  C   UNL     1       0.497  12.438  18.673  0.00  0.00    +0.000 C 
BRANCH  21  23
ATOM     23  C   UNL     1      -1.876  11.615  19.125  0.00  0.00    +0.000 C 
BRANCH  23  24
ATOM     24  C   UNL     1      -2.770  11.455  17.938  0.00  0.00    +0.000 A 
ATOM     25  N   UNL     1      -2.388  11.106  16.725  0.00  0.00    +0.000 NA
ATOM     26  N   UNL     1      -3.499  11.062  15.918  0.00  0.00    +0.000 NA
ATOM     27  C   UNL     1      -4.537  11.376  16.653  0.00  0.00    +0.000 A 
ATOM     28  N   UNL     1      -4.132  11.628  17.927  0.00  0.00    +0.000 N 
ATOM     29  C   UNL     1      -4.991  11.996  19.021  0.00  0.00    +0.000 C 
ENDBRANCH  23  24
ENDBRANCH  21  23
ENDBRANCH   5  21
TORSDOF 6
ENDMDL
MODEL 3
REMARK VINA RESULT:      -8.0      1.083      2.637
REMARK  Name = 
REMARK  9 active torsions:
REMARK  status: ('A' for Active; 'I' for Inactive)
REMARK    1  A    between atoms: C_1  and  C_2
REMARK    2  A    between atoms: C_4  and  C_5
REMARK    3  A    between atoms: N_7  and  C_8
REMARK    4  A    between atoms: C_12  and  C_13
REMARK    5  A    between atoms: C_13  and  C_14
REMARK    6  A    between atoms: C_13  and  C_15
REMARK    7  A    between atoms: C_15  and  C_16
REMARK    8  A    between atoms: N_20  and  C_21
REMARK    9  A    between atoms: C_24  and  C_25
REMARK                            x       y       z     vdW  Elec       q    Type
REMARK                         _______ _______ _______ _____ _____    ______ ____
ROOT
ATOM      1  C   UNL     1       3.061   5.724  18.177  0.00  0.00    +0.000 A 
ATOM      2  C   UNL     1       2.837   4.415  18.610  0.00  0.00    +0.000 A 
ATOM      3  C   UNL     1       3.514   3.342  18.031  0.00  0.00    +0.000 A 
ATOM      4  C   UNL     1       4.447   3.567  17.025  0.00  0.00    +0.000 A 
ATOM      5  C   UNL     1       4.701   4.868  16.567  0.00  0.00    +0.000 A 
ATOM      6  C   UNL     1       3.965   5.938  17.124  0.00  0.00    +0.000 A 
ENDROOT
BRANCH   1   9
ATOM      7  C   UNL     1       2.296   8.096  18.194  0.00  0.00    +0.000 C 
ATOM      8  O   UNL     1       2.687   8.417  17.075  0.00  0.00    +0.000 OA
ATOM      9  N   UNL     1       2.437   6.844  18.781  0.00  0.00    +0.000 N 
ATOM     10  H   UNL     1       1.929   6.706  19.650  0.00  0.00    +0.000 HD
BRANCH   7  14
ATOM     11  C   UNL     1       0.704  12.757  18.894  0.00  0.00    +0.000 C 
ATOM     12  C   UNL     1       0.823  11.317  19.289  0.00  0.00    +0.000 A 
ATOM     13  C   UNL     1       1.517  10.414  18.526  0.00  0.00    +0.000 A 
ATOM     14  C   UNL     1       1.544   9.115  18.998  0.00  0.00    +0.000 A 
ATOM     15  N   UNL     1       0.928   8.702  20.129  0.00  0.00    +0.000 NA
ATOM     16  C   UNL     1       0.271   9.657  20.817  0.00  0.00    +0.000 A 
ATOM     17  N   UNL     1       0.211  10.950  20.429  0.00  0.00    +0.000 NA
BRANCH  16  18
ATOM     18  C   UNL     1      -0.453   9.304  22.095  0.00  0.00    +0.000 C 
ATOM     19  C   UNL     1       0.280   9.463  23.413  0.00  0.00    +0.000 C 
ATOM     20  C   UNL     1      -0.876  10.361  23.087  0.00  0.00    +0.000 C 
ENDBRANCH  16  18
ENDBRANCH   7  14
ENDBRANCH   1   9
BRANCH   5  21
ATOM     21  C   UNL     1       5.812   5.136  15.553  0.00  0.00    +0.000 C 
ATOM     22  C   UNL     1       5.496   4.496  14.194  0.00  0.00    +0.000 C 
BRANCH  21  23
ATOM     23  C   UNL     1       7.174   4.651  16.110  0.00  0.00    +0.000 C 
BRANCH  23  24
ATOM     24  C   UNL     1       7.446   5.155  17.490  0.00  0.00    +0.000 A 
ATOM     25  N   UNL     1       7.611   4.411  18.566  0.00  0.00    +0.000 NA
ATOM     26  N   UNL     1       7.847   5.242  19.634  0.00  0.00    +0.000 NA
ATOM     27  C   UNL     1       7.830   6.475  19.191  0.00  0.00    +0.000 A 
ATOM     28  N   UNL     1       7.585   6.472  17.852  0.00  0.00    +0.000 N 
ATOM     29  C   UNL     1       7.500   7.639  17.015  0.00  0.00    +0.000 C 
ENDBRANCH  23  24
ENDBRANCH  21  23
ENDBRANCH   5  21
TORSDOF 6
ENDMDL
MODEL 4
REMARK VINA RESULT:      -7.9      4.692      7.061
REMARK  Name = 
REMARK  9 active torsions:
REMARK  status: ('A' for Active; 'I' for Inactive)
REMARK    1  A    between atoms: C_1  and  C_2
REMARK    2  A    between atoms: C_4  and  C_5
REMARK    3  A    between atoms: N_7  and  C_8
REMARK    4  A    between atoms: C_12  and  C_13
REMARK    5  A    between atoms: C_13  and  C_14
REMARK    6  A    between atoms: C_13  and  C_15
REMARK    7  A    between atoms: C_15  and  C_16
REMARK    8  A    between atoms: N_20  and  C_21
REMARK    9  A    between atoms: C_24  and  C_25
REMARK                            x       y       z     vdW  Elec       q    Type
REMARK                         _______ _______ _______ _____ _____    ______ ____
ROOT
ATOM      1  C   UNL     1       7.876   8.159  18.012  0.00  0.00    +0.000 A 
ATOM      2  C   UNL     1       8.479   7.306  18.940  0.00  0.00    +0.000 A 
ATOM      3  C   UNL     1       8.071   5.980  19.066  0.00  0.00    +0.000 A 
ATOM      4  C   UNL     1       7.067   5.478  18.245  0.00  0.00    +0.000 A 
ATOM      5  C   UNL     1       6.441   6.303  17.300  0.00  0.00    +0.000 A 
ATOM      6  C   UNL     1       6.827   7.660  17.223  0.00  0.00    +0.000 A 
ENDROOT
BRANCH   1   9
ATOM      7  C   UNL     1       8.993  10.263  18.745  0.00  0.00    +0.000 C 
ATOM      8  O   UNL     1       9.330   9.903  19.870  0.00  0.00    +0.000 OA
ATOM      9  N   UNL     1       8.304   9.495  17.813  0.00  0.00    +0.000 N 
ATOM     10  H   UNL     1       8.233   9.894  16.882  0.00  0.00    +0.000 HD
BRANCH   7  14
ATOM     11  C   UNL     1      12.333  13.360  16.746  0.00  0.00    +0.000 C 
ATOM     12  C   UNL     1      11.000  13.052  17.355  0.00  0.00    +0.000 A 
ATOM     13  C   UNL     1      10.663  11.785  17.753  0.00  0.00    +0.000 A 
ATOM     14  C   UNL     1       9.399  11.634  18.292  0.00  0.00    +0.000 A 
ATOM     15  N   UNL     1       8.504  12.639  18.428  0.00  0.00    +0.000 NA
ATOM     16  C   UNL     1       8.920  13.851  18.011  0.00  0.00    +0.000 A 
ATOM     17  N   UNL     1      10.144  14.081  17.488  0.00  0.00    +0.000 NA
BRANCH  16  18
ATOM     18  C   UNL     1       7.998  15.043  18.116  0.00  0.00    +0.000 C 
ATOM     19  C   UNL     1       6.561  14.893  17.657  0.00  0.00    +0.000 C 
ATOM     20  C   UNL     1       6.864  15.086  19.112  0.00  0.00    +0.000 C 
ENDBRANCH  16  18
ENDBRANCH   7  14
ENDBRANCH   1   9
BRANCH   5  21
ATOM     21  C   UNL     1       5.427   5.727  16.311  0.00  0.00    +0.000 C 
ATOM     22  C   UNL     1       4.076   5.458  16.987  0.00  0.00    +0.000 C 
BRANCH  21  23
ATOM     23  C   UNL     1       5.997   4.451  15.642  0.00  0.00    +0.000 C 
BRANCH  23  24
ATOM     24  C   UNL     1       6.807   4.750  14.423  0.00  0.00    +0.000 A 
ATOM     25  N   UNL     1       7.877   5.519  14.376  0.00  0.00    +0.000 NA
ATOM     26  N   UNL     1       8.340   5.539  13.083  0.00  0.00    +0.000 NA
ATOM     27  C   UNL     1       7.550   4.776  12.367  0.00  0.00    +0.000 A 
ATOM     28  N   UNL     1       6.576   4.257  13.163  0.00  0.00    +0.000 N 
ATOM     29  C   UNL     1       5.531   3.367  12.733  0.00  0.00    +0.000 C 
ENDBRANCH  23  24
ENDBRANCH  21  23
ENDBRANCH   5  21
TORSDOF 6
ENDMDL
MODEL 5
REMARK VINA RESULT:      -7.9      3.450      8.725
REMARK  Name = 
REMARK  9 active torsions:
REMARK  status: ('A' for Active; 'I' for Inactive)
REMARK    1  A    between atoms: C_1  and  C_2
REMARK    2  A    between atoms: C_4  and  C_5
REMARK    3  A    between atoms: N_7  and  C_8
REMARK    4  A    between atoms: C_12  and  C_13
REMARK    5  A    between atoms: C_13  and  C_14
REMARK    6  A    between atoms: C_13  and  C_15
REMARK    7  A    between atoms: C_15  and  C_16
REMARK    8  A    between atoms: N_20  and  C_21
REMARK    9  A    between atoms: C_24  and  C_25
REMARK                            x       y       z     vdW  Elec       q    Type
REMARK                         _______ _______ _______ _____ _____    ______ ____
ROOT
ATOM      1  C   UNL     1       1.451   8.469  20.449  0.00  0.00    +0.000 A 
ATOM      2  C   UNL     1       1.037   8.729  21.758  0.00  0.00    +0.000 A 
ATOM      3  C   UNL     1       0.052   9.678  22.024  0.00  0.00    +0.000 A 
ATOM      4  C   UNL     1      -0.554  10.366  20.979  0.00  0.00    +0.000 A 
ATOM      5  C   UNL     1      -0.167  10.130  19.652  0.00  0.00    +0.000 A 
ATOM      6  C   UNL     1       0.873   9.206  19.403  0.00  0.00    +0.000 A 
ENDROOT
BRANCH   1   9
ATOM      7  C   UNL     1       2.188   6.100  20.214  0.00  0.00    +0.000 C 
ATOM      8  O   UNL     1       1.146   5.554  20.565  0.00  0.00    +0.000 OA
ATOM      9  N   UNL     1       2.406   7.471  20.135  0.00  0.00    +0.000 N 
ATOM     10  H   UNL     1       3.274   7.753  19.688  0.00  0.00    +0.000 HD
BRANCH   7  14
ATOM     11  C   UNL     1       4.409   1.656  19.963  0.00  0.00    +0.000 C 
ATOM     12  C   UNL     1       4.336   3.125  19.683  0.00  0.00    +0.000 A 
ATOM     13  C   UNL     1       3.276   3.888  20.101  0.00  0.00    +0.000 A 
ATOM     14  C   UNL     1       3.326   5.229  19.772  0.00  0.00    +0.000 A 
ATOM     15  N   UNL     1       4.328   5.804  19.068  0.00  0.00    +0.000 NA
ATOM     16  C   UNL     1       5.329   4.980  18.699  0.00  0.00    +0.000 A 
ATOM     17  N   UNL     1       5.359   3.662  18.995  0.00  0.00    +0.000 NA
BRANCH  16  18
ATOM     18  C   UNL     1       6.498   5.518  17.908  0.00  0.00    +0.000 C 
ATOM     19  C   UNL     1       6.293   5.848  16.442  0.00  0.00    +0.000 C 
ATOM     20  C   UNL     1       6.542   6.949  17.428  0.00  0.00    +0.000 C 
ENDBRANCH  16  18
ENDBRANCH   7  14
ENDBRANCH   1   9
BRANCH   5  21
ATOM     21  C   UNL     1      -0.914  10.789  18.492  0.00  0.00    +0.000 C 
ATOM     22  C   UNL     1      -1.104  12.293  18.731  0.00  0.00    +0.000 C 
BRANCH  21  23
ATOM     23  C   UNL     1      -2.267  10.073  18.250  0.00  0.00    +0.000 C 
BRANCH  23  24
ATOM     24  C   UNL     1      -2.756  10.222  16.847  0.00  0.00    +0.000 A 
ATOM     25  N   UNL     1      -2.216   9.670  15.778  0.00  0.00    +0.000 NA
ATOM     26  N   UNL     1      -2.956  10.038  14.680  0.00  0.00    +0.000 NA
ATOM     27  C   UNL     1      -3.937  10.800  15.099  0.00  0.00    +0.000 A 
ATOM     28  N   UNL     1      -3.856  10.942  16.450  0.00  0.00    +0.000 N 
ATOM     29  C   UNL     1      -4.765  11.701  17.267  0.00  0.00    +0.000 C 
ENDBRANCH  23  24
ENDBRANCH  21  23
ENDBRANCH   5  21
TORSDOF 6
ENDMDL
MODEL 6
REMARK VINA RESULT:      -7.9      3.121      9.623
REMARK  Name = 
REMARK  9 active torsions:
REMARK  status: ('A' for Active; 'I' for Inactive)
REMARK    1  A    between atoms: C_1  and  C_2
REMARK    2  A    between atoms: C_4  and  C_5
REMARK    3  A    between atoms: N_7  and  C_8
REMARK    4  A    between atoms: C_12  and  C_13
REMARK    5  A    between atoms: C_13  and  C_14
REMARK    6  A    between atoms: C_13  and  C_15
REMARK    7  A    between atoms: C_15  and  C_16
REMARK    8  A    between atoms: N_20  and  C_21
REMARK    9  A    between atoms: C_24  and  C_25
REMARK                            x       y       z     vdW  Elec       q    Type
REMARK                         _______ _______ _______ _____ _____    ______ ____
ROOT
ATOM      1  C   UNL     1       0.539  10.483  19.255  0.00  0.00    +0.000 A 
ATOM      2  C   UNL     1       1.261  11.675  19.152  0.00  0.00    +0.000 A 
ATOM      3  C   UNL     1       0.612  12.909  19.158  0.00  0.00    +0.000 A 
ATOM      4  C   UNL     1      -0.770  12.970  19.292  0.00  0.00    +0.000 A 
ATOM      5  C   UNL     1      -1.528  11.794  19.401  0.00  0.00    +0.000 A 
ATOM      6  C   UNL     1      -0.861  10.550  19.336  0.00  0.00    +0.000 A 
ENDROOT
BRANCH   1   9
ATOM      7  C   UNL     1       1.952   8.662  18.308  0.00  0.00    +0.000 C 
ATOM      8  O   UNL     1       2.217   9.185  17.229  0.00  0.00    +0.000 OA
ATOM      9  N   UNL     1       1.167   9.214  19.313  0.00  0.00    +0.000 N 
ATOM     10  H   UNL     1       1.169   8.714  20.197  0.00  0.00    +0.000 HD
BRANCH   7  14
ATOM     11  C   UNL     1       5.272   5.087  17.335  0.00  0.00    +0.000 C 
ATOM     12  C   UNL     1       4.138   5.673  18.118  0.00  0.00    +0.000 A 
ATOM     13  C   UNL     1       3.605   6.897  17.809  0.00  0.00    +0.000 A 
ATOM     14  C   UNL     1       2.567   7.329  18.615  0.00  0.00    +0.000 A 
ATOM     15  N   UNL     1       2.080   6.632  19.667  0.00  0.00    +0.000 NA
ATOM     16  C   UNL     1       2.663   5.439  19.897  0.00  0.00    +0.000 A 
ATOM     17  N   UNL     1       3.671   4.943  19.146  0.00  0.00    +0.000 NA
BRANCH  16  18
ATOM     18  C   UNL     1       2.195   4.579  21.048  0.00  0.00    +0.000 C 
ATOM     19  C   UNL     1       1.162   3.502  20.778  0.00  0.00    +0.000 C 
ATOM     20  C   UNL     1       2.563   3.118  21.150  0.00  0.00    +0.000 C 
ENDBRANCH  16  18
ENDBRANCH   7  14
ENDBRANCH   1   9
BRANCH   5  21
ATOM     21  C   UNL     1      -3.030  11.856  19.675  0.00  0.00    +0.000 C 
ATOM     22  C   UNL     1      -3.839  11.794  18.372  0.00  0.00    +0.000 C 
BRANCH  21  23
ATOM     23  C   UNL     1      -3.372  13.122  20.500  0.00  0.00    +0.000 C 
BRANCH  23  24
ATOM     24  C   UNL     1      -3.759  12.807  21.908  0.00  0.00    +0.000 A 
ATOM     25  N   UNL     1      -4.982  12.565  22.338  0.00  0.00    +0.000 NA
ATOM     26  N   UNL     1      -4.926  12.312  23.686  0.00  0.00    +0.000 NA
ATOM     27  C   UNL     1      -3.670  12.395  24.054  0.00  0.00    +0.000 A 
ATOM     28  N   UNL     1      -2.900  12.700  22.974  0.00  0.00    +0.000 N 
ATOM     29  C   UNL     1      -1.471  12.866  22.985  0.00  0.00    +0.000 C 
ENDBRANCH  23  24
ENDBRANCH  21  23
ENDBRANCH   5  21
TORSDOF 6
ENDMDL
MODEL 7
REMARK VINA RESULT:      -7.9      3.883      9.811
REMARK  Name = 
REMARK  9 active torsions:
REMARK  status: ('A' for Active; 'I' for Inactive)
REMARK    1  A    between atoms: C_1  and  C_2
REMARK    2  A    between atoms: C_4  and  C_5
REMARK    3  A    between atoms: N_7  and  C_8
REMARK    4  A    between atoms: C_12  and  C_13
REMARK    5  A    between atoms: C_13  and  C_14
REMARK    6  A    between atoms: C_13  and  C_15
REMARK    7  A    between atoms: C_15  and  C_16
REMARK    8  A    between atoms: N_20  and  C_21
REMARK    9  A    between atoms: C_24  and  C_25
REMARK                            x       y       z     vdW  Elec       q    Type
REMARK                         _______ _______ _______ _____ _____    ______ ____
ROOT
ATOM      1  C   UNL     1       0.870   9.585  18.058  0.00  0.00    +0.000 A 
ATOM      2  C   UNL     1       1.305  10.676  18.814  0.00  0.00    +0.000 A 
ATOM      3  C   UNL     1       0.428  11.702  19.163  0.00  0.00    +0.000 A 
ATOM      4  C   UNL     1      -0.906  11.640  18.780  0.00  0.00    +0.000 A 
ATOM      5  C   UNL     1      -1.380  10.559  18.023  0.00  0.00    +0.000 A 
ATOM      6  C   UNL     1      -0.467   9.555  17.630  0.00  0.00    +0.000 A 
ENDROOT
BRANCH   1   9
ATOM      7  C   UNL     1       2.232   7.584  18.650  0.00  0.00    +0.000 C 
ATOM      8  O   UNL     1       2.035   7.587  19.862  0.00  0.00    +0.000 OA
ATOM      9  N   UNL     1       1.716   8.494  17.736  0.00  0.00    +0.000 N 
ATOM     10  H   UNL     1       1.857   8.263  16.757  0.00  0.00    +0.000 HD
BRANCH   7  14
ATOM     11  C   UNL     1       6.410   5.937  16.510  0.00  0.00    +0.000 C 
ATOM     12  C   UNL     1       5.032   5.744  17.063  0.00  0.00    +0.000 A 
ATOM     13  C   UNL     1       4.311   6.785  17.587  0.00  0.00    +0.000 A 
ATOM     14  C   UNL     1       3.055   6.471  18.072  0.00  0.00    +0.000 A 
ATOM     15  N   UNL     1       2.527   5.226  18.068  0.00  0.00    +0.000 NA
ATOM     16  C   UNL     1       3.304   4.264  17.533  0.00  0.00    +0.000 A 
ATOM     17  N   UNL     1       4.535   4.494  17.026  0.00  0.00    +0.000 NA
BRANCH  16  18
ATOM     18  C   UNL     1       2.811   2.837  17.480  0.00  0.00    +0.000 C 
ATOM     19  C   UNL     1       3.216   1.886  18.590  0.00  0.00    +0.000 C 
ATOM     20  C   UNL     1       1.785   2.313  18.456  0.00  0.00    +0.000 C 
ENDBRANCH  16  18
ENDBRANCH   7  14
ENDBRANCH   1   9
BRANCH   5  21
ATOM     21  C   UNL     1      -2.869  10.421  17.706  0.00  0.00    +0.000 C 
ATOM     22  C   UNL     1      -3.092   9.854  16.297  0.00  0.00    +0.000 C 
BRANCH  21  23
ATOM     23  C   UNL     1      -3.585  11.782  17.895  0.00  0.00    +0.000 C 
BRANCH  23  24
ATOM     24  C   UNL     1      -4.889  11.654  18.613  0.00  0.00    +0.000 A 
ATOM     25  N   UNL     1      -5.953  11.009  18.175  0.00  0.00    +0.000 NA
ATOM     26  N   UNL     1      -6.943  11.115  19.120  0.00  0.00    +0.000 NA
ATOM     27  C   UNL     1      -6.465  11.815  20.120  0.00  0.00    +0.000 A 
ATOM     28  N   UNL     1      -5.180  12.173  19.850  0.00  0.00    +0.000 N 
ATOM     29  C   UNL     1      -4.326  12.940  20.717  0.00  0.00    +0.000 C 
ENDBRANCH  23  24
ENDBRANCH  21  23
ENDBRANCH   5  21
TORSDOF 6
ENDMDL
MODEL 8
REMARK VINA RESULT:      -7.8      1.131      1.283
REMARK  Name = 
REMARK  9 active torsions:
REMARK  status: ('A' for Active; 'I' for Inactive)
REMARK    1  A    between atoms: C_1  and  C_2
REMARK    2  A    between atoms: C_4  and  C_5
REMARK    3  A    between atoms: N_7  and  C_8
REMARK    4  A    between atoms: C_12  and  C_13
REMARK    5  A    between atoms: C_13  and  C_14
REMARK    6  A    between atoms: C_13  and  C_15
REMARK    7  A    between atoms: C_15  and  C_16
REMARK    8  A    between atoms: N_20  and  C_21
REMARK    9  A    between atoms: C_24  and  C_25
REMARK                            x       y       z     vdW  Elec       q    Type
REMARK                         _______ _______ _______ _____ _____    ______ ____
ROOT
ATOM      1  C   UNL     1       2.683   5.572  18.021  0.00  0.00    +0.000 A 
ATOM      2  C   UNL     1       2.176   4.288  18.242  0.00  0.00    +0.000 A 
ATOM      3  C   UNL     1       2.805   3.167  17.703  0.00  0.00    +0.000 A 
ATOM      4  C   UNL     1       3.966   3.311  16.952  0.00  0.00    +0.000 A 
ATOM      5  C   UNL     1       4.505   4.583  16.712  0.00  0.00    +0.000 A 
ATOM      6  C   UNL     1       3.826   5.714  17.218  0.00  0.00    +0.000 A 
ENDROOT
BRANCH   1   9
ATOM      7  C   UNL     1       1.926   6.937  19.964  0.00  0.00    +0.000 C 
ATOM      8  O   UNL     1       2.234   6.156  20.861  0.00  0.00    +0.000 OA
ATOM      9  N   UNL     1       2.107   6.729  18.602  0.00  0.00    +0.000 N 
ATOM     10  H   UNL     1       1.932   7.534  18.008  0.00  0.00    +0.000 HD
BRANCH   7  14
ATOM     11  C   UNL     1      -0.308   9.896  23.281  0.00  0.00    +0.000 C 
ATOM     12  C   UNL     1       0.297   9.618  21.940  0.00  0.00    +0.000 A 
ATOM     13  C   UNL     1       0.816   8.390  21.622  0.00  0.00    +0.000 A 
ATOM     14  C   UNL     1       1.352   8.266  20.354  0.00  0.00    +0.000 A 
ATOM     15  N   UNL     1       1.401   9.269  19.447  0.00  0.00    +0.000 NA
ATOM     16  C   UNL     1       0.867  10.441  19.844  0.00  0.00    +0.000 A 
ATOM     17  N   UNL     1       0.312  10.635  21.060  0.00  0.00    +0.000 NA
BRANCH  16  18
ATOM     18  C   UNL     1       0.871  11.628  18.909  0.00  0.00    +0.000 C 
ATOM     19  C   UNL     1      -0.448  12.304  18.588  0.00  0.00    +0.000 C 
ATOM     20  C   UNL     1       0.585  13.027  19.399  0.00  0.00    +0.000 C 
ENDBRANCH  16  18
ENDBRANCH   7  14
ENDBRANCH   1   9
BRANCH   5  21
ATOM     21  C   UNL     1       5.847   4.740  15.997  0.00  0.00    +0.000 C 
ATOM     22  C   UNL     1       6.019   3.687  14.894  0.00  0.00    +0.000 C 
BRANCH  21  23
ATOM     23  C   UNL     1       7.009   4.691  17.021  0.00  0.00    +0.000 C 
BRANCH  23  24
ATOM     24  C   UNL     1       7.468   6.051  17.437  0.00  0.00    +0.000 A 
ATOM     25  N   UNL     1       7.510   7.121  16.669  0.00  0.00    +0.000 NA
ATOM     26  N   UNL     1       7.983   8.172  17.416  0.00  0.00    +0.000 NA
ATOM     27  C   UNL     1       8.213   7.727  18.627  0.00  0.00    +0.000 A 
ATOM     28  N   UNL     1       7.903   6.404  18.691  0.00  0.00    +0.000 N 
ATOM     29  C   UNL     1       8.019   5.573  19.860  0.00  0.00    +0.000 C 
ENDBRANCH  23  24
ENDBRANCH  21  23
ENDBRANCH   5  21
TORSDOF 6
ENDMDL
MODEL 9
REMARK VINA RESULT:      -7.8      4.095     10.148
REMARK  Name = 
REMARK  9 active torsions:
REMARK  status: ('A' for Active; 'I' for Inactive)
REMARK    1  A    between atoms: C_1  and  C_2
REMARK    2  A    between atoms: C_4  and  C_5
REMARK    3  A    between atoms: N_7  and  C_8
REMARK    4  A    between atoms: C_12  and  C_13
REMARK    5  A    between atoms: C_13  and  C_14
REMARK    6  A    between atoms: C_13  and  C_15
REMARK    7  A    between atoms: C_15  and  C_16
REMARK    8  A    between atoms: N_20  and  C_21
REMARK    9  A    between atoms: C_24  and  C_25
REMARK                            x       y       z     vdW  Elec       q    Type
REMARK                         _______ _______ _______ _____ _____    ______ ____
ROOT
ATOM      1  C   UNL     1       0.087  10.421  19.547  0.00  0.00    +0.000 A 
ATOM      2  C   UNL     1       0.550  11.574  20.186  0.00  0.00    +0.000 A 
ATOM      3  C   UNL     1      -0.255  12.708  20.292  0.00  0.00    +0.000 A 
ATOM      4  C   UNL     1      -1.548  12.696  19.781  0.00  0.00    +0.000 A 
ATOM      5  C   UNL     1      -2.049  11.555  19.137  0.00  0.00    +0.000 A 
ATOM      6  C   UNL     1      -1.201  10.434  18.987  0.00  0.00    +0.000 A 
ENDROOT
BRANCH   1   9
ATOM      7  C   UNL     1       1.720   8.900  18.439  0.00  0.00    +0.000 C 
ATOM      8  O   UNL     1       1.952   9.582  17.444  0.00  0.00    +0.000 OA
ATOM      9  N   UNL     1       0.852   9.231  19.473  0.00  0.00    +0.000 N 
ATOM     10  H   UNL     1       0.888   8.626  20.288  0.00  0.00    +0.000 HD
BRANCH   7  14
ATOM     11  C   UNL     1       5.302   5.757  17.013  0.00  0.00    +0.000 C 
ATOM     12  C   UNL     1       4.164   6.166  17.895  0.00  0.00    +0.000 A 
ATOM     13  C   UNL     1       3.501   7.352  17.716  0.00  0.00    +0.000 A 
ATOM     14  C   UNL     1       2.474   7.614  18.603  0.00  0.00    +0.000 A 
ATOM     15  N   UNL     1       2.113   6.791  19.614  0.00  0.00    +0.000 NA
ATOM     16  C   UNL     1       2.817   5.646  19.715  0.00  0.00    +0.000 A 
ATOM     17  N   UNL     1       3.824   5.313  18.878  0.00  0.00    +0.000 NA
BRANCH  16  18
ATOM     18  C   UNL     1       2.497   4.657  20.810  0.00  0.00    +0.000 C 
ATOM     19  C   UNL     1       1.258   3.793  20.670  0.00  0.00    +0.000 C 
ATOM     20  C   UNL     1       2.618   3.167  20.596  0.00  0.00    +0.000 C 
ENDBRANCH  16  18
ENDBRANCH   7  14
ENDBRANCH   1   9
BRANCH   5  21
ATOM     21  C   UNL     1      -3.508  11.491  18.685  0.00  0.00    +0.000 C 
ATOM     22  C   UNL     1      -3.619  11.456  17.155  0.00  0.00    +0.000 C 
BRANCH  21  23
ATOM     23  C   UNL     1      -4.308  12.671  19.291  0.00  0.00    +0.000 C 
BRANCH  23  24
ATOM     24  C   UNL     1      -5.493  12.221  20.081  0.00  0.00    +0.000 A 
ATOM     25  N   UNL     1      -5.569  12.164  21.396  0.00  0.00    +0.000 NA
ATOM     26  N   UNL     1      -6.818  11.707  21.739  0.00  0.00    +0.000 NA
ATOM     27  C   UNL     1      -7.483  11.501  20.629  0.00  0.00    +0.000 A 
ATOM     28  N   UNL     1      -6.697  11.811  19.563  0.00  0.00    +0.000 N 
ATOM     29  C   UNL     1      -7.086  11.718  18.181  0.00  0.00    +0.000 C 
ENDBRANCH  23  24
ENDBRANCH  21  23
ENDBRANCH   5  21
TORSDOF 6
ENDMDL
