MODEL 1
REMARK VINA RESULT:     -10.3      0.000      0.000
REMARK  Name = 
REMARK  7 active torsions:
REMARK  status: ('A' for Active; 'I' for Inactive)
REMARK    1  A    between atoms: C_1  and  N_2
REMARK    2  A    between atoms: C_6  and  C_7
REMARK    3  A    between atoms: C_7  and  C_8
REMARK    4  A    between atoms: C_8  and  C_9
REMARK    5  A    between atoms: C_13  and  N_14
REMARK    6  A    between atoms: C_19  and  C_20
REMARK    7  A    between atoms: C_29  and  C_30
REMARK                            x       y       z     vdW  Elec       q    Type
REMARK                         _______ _______ _______ _____ _____    ______ ____
ROOT
ATOM      1  N   UNL     1       1.156   8.437  20.473  0.00  0.00    +0.000 N 
ATOM      2  C   UNL     1       1.276   7.077  20.963  0.00  0.00    +0.000 C 
ATOM      3  C   UNL     1       2.120   6.403  19.951  0.00  0.00    +0.000 A 
ATOM      4  C   UNL     1       2.550   7.326  19.003  0.00  0.00    +0.000 A 
ATOM      5  C   UNL     1       3.399   6.959  17.973  0.00  0.00    +0.000 A 
ATOM      6  C   UNL     1       3.814   5.616  17.899  0.00  0.00    +0.000 A 
ATOM      7  C   UNL     1       3.327   4.688  18.854  0.00  0.00    +0.000 A 
ATOM      8  C   UNL     1       2.467   5.063  19.892  0.00  0.00    +0.000 A 
ATOM      9  C   UNL     1       1.916   8.632  19.315  0.00  0.00    +0.000 C 
ATOM     10  O   UNL     1       2.073   9.625  18.630  0.00  0.00    +0.000 OA
ENDROOT
BRANCH   6  11
ATOM     11  C   UNL     1       4.759   5.145  16.874  0.00  0.00    +0.000 C 
ATOM     12  C   UNL     1       4.979   3.854  16.554  0.00  0.00    +0.000 C 
ATOM     13  N   UNL     1       5.934   3.609  15.551  0.00  0.00    +0.000 N 
ATOM     14  C   UNL     1       5.525   4.263  14.267  0.00  0.00    +0.000 C 
ATOM     15  C   UNL     1       5.310   5.773  14.542  0.00  0.00    +0.000 C 
ATOM     16  C   UNL     1       5.628   6.076  16.029  0.00  0.00    +0.000 C 
ATOM     17  C   UNL     1       7.104   5.659  16.272  0.00  0.00    +0.000 C 
ATOM     18  C   UNL     1       7.277   4.159  15.930  0.00  0.00    +0.000 C 
ENDBRANCH   6  11
BRANCH   1  23
ATOM     19  C   UNL     1      -1.159  11.359  20.887  0.00  0.00    +0.000 A 
ATOM     20  C   UNL     1      -1.388  11.291  22.269  0.00  0.00    +0.000 A 
ATOM     21  C   UNL     1      -0.824  10.275  23.057  0.00  0.00    +0.000 A 
ATOM     22  C   UNL     1       0.008   9.301  22.490  0.00  0.00    +0.000 A 
ATOM     23  C   UNL     1       0.272   9.331  21.128  0.00  0.00    +0.000 A 
ATOM     24  C   UNL     1      -0.343  10.342  20.366  0.00  0.00    +0.000 A 
BRANCH  19  25
ATOM     25  C   UNL     1      -1.761  12.493  19.907  0.00  0.00    +0.000 C 
ATOM     26  C   UNL     1      -0.789  13.022  18.820  0.00  0.00    +0.000 C 
ATOM     27  O   UNL     1      -0.855  14.372  19.317  0.00  0.00    +0.000 OA
ATOM     28  C   UNL     1      -1.722  13.973  20.399  0.00  0.00    +0.000 C 
BRANCH  25  29
ATOM     29  C   UNL     1      -3.139  12.074  19.335  0.00  0.00    +0.000 C 
BRANCH  29  35
ATOM     30  C   UNL     1      -5.387  12.180  17.114  0.00  0.00    +0.000 C 
ATOM     31  N   UNL     1      -4.094  11.560  17.012  0.00  0.00    +0.000 N 
ATOM     32  C   UNL     1      -3.638  10.890  15.916  0.00  0.00    +0.000 A 
ATOM     33  N   UNL     1      -2.442  10.411  16.164  0.00  0.00    +0.000 NA
ATOM     34  N   UNL     1      -2.112  10.765  17.449  0.00  0.00    +0.000 NA
ATOM     35  C   UNL     1      -3.096  11.486  17.954  0.00  0.00    +0.000 A 
ENDBRANCH  29  35
ENDBRANCH  25  29
ENDBRANCH  19  25
ENDBRANCH   1  23
BRANCH   8  36
ATOM     36  C   UNL     1       1.941   4.034  20.858  0.00  0.00    +0.000 C 
ATOM     37  F   UNL     1       0.584   3.970  20.908  0.00  0.00    +0.000 F 
ATOM     38  F   UNL     1       2.367   2.779  20.554  0.00  0.00    +0.000 F 
ATOM     39  F   UNL     1       2.344   4.272  22.135  0.00  0.00    +0.000 F 
ENDBRANCH   8  36
TORSDOF 6
ENDMDL
MODEL 2
REMARK VINA RESULT:     -10.1      0.486      1.087
REMARK  Name = 
REMARK  7 active torsions:
REMARK  status: ('A' for Active; 'I' for Inactive)
REMARK    1  A    between atoms: C_1  and  N_2
REMARK    2  A    between atoms: C_6  and  C_7
REMARK    3  A    between atoms: C_7  and  C_8
REMARK    4  A    between atoms: C_8  and  C_9
REMARK    5  A    between atoms: C_13  and  N_14
REMARK    6  A    between atoms: C_19  and  C_20
REMARK    7  A    between atoms: C_29  and  C_30
REMARK                            x       y       z     vdW  Elec       q    Type
REMARK                         _______ _______ _______ _____ _____    ______ ____
ROOT
ATOM      1  N   UNL     1       1.200   8.539  20.387  0.00  0.00    +0.000 N 
ATOM      2  C   UNL     1       1.347   7.172  20.851  0.00  0.00    +0.000 C 
ATOM      3  C   UNL     1       2.200   6.534  19.825  0.00  0.00    +0.000 A 
ATOM      4  C   UNL     1       2.611   7.482  18.894  0.00  0.00    +0.000 A 
ATOM      5  C   UNL     1       3.463   7.150  17.855  0.00  0.00    +0.000 A 
ATOM      6  C   UNL     1       3.904   5.817  17.755  0.00  0.00    +0.000 A 
ATOM      7  C   UNL     1       3.437   4.862  18.693  0.00  0.00    +0.000 A 
ATOM      8  C   UNL     1       2.572   5.202  19.740  0.00  0.00    +0.000 A 
ATOM      9  C   UNL     1       1.953   8.769  19.232  0.00  0.00    +0.000 C 
ATOM     10  O   UNL     1       2.090   9.779  18.565  0.00  0.00    +0.000 OA
ENDROOT
BRANCH   6  11
ATOM     11  C   UNL     1       4.854   5.382  16.718  0.00  0.00    +0.000 C 
ATOM     12  C   UNL     1       5.136   6.062  15.589  0.00  0.00    +0.000 C 
ATOM     13  N   UNL     1       6.066   5.470  14.716  0.00  0.00    +0.000 N 
ATOM     14  C   UNL     1       7.387   5.289  15.401  0.00  0.00    +0.000 C 
ATOM     15  C   UNL     1       7.151   4.459  16.688  0.00  0.00    +0.000 C 
ATOM     16  C   UNL     1       5.651   4.081  16.790  0.00  0.00    +0.000 C 
ATOM     17  C   UNL     1       5.301   3.265  15.517  0.00  0.00    +0.000 C 
ATOM     18  C   UNL     1       5.605   4.118  14.261  0.00  0.00    +0.000 C 
ENDBRANCH   6  11
BRANCH   1  23
ATOM     19  C   UNL     1      -1.166  11.410  20.862  0.00  0.00    +0.000 A 
ATOM     20  C   UNL     1      -1.391  11.311  22.243  0.00  0.00    +0.000 A 
ATOM     21  C   UNL     1      -0.809  10.290  23.010  0.00  0.00    +0.000 A 
ATOM     22  C   UNL     1       0.040   9.342  22.423  0.00  0.00    +0.000 A 
ATOM     23  C   UNL     1       0.302   9.404  21.061  0.00  0.00    +0.000 A 
ATOM     24  C   UNL     1      -0.332  10.419  20.320  0.00  0.00    +0.000 A 
BRANCH  19  25
ATOM     25  C   UNL     1      -1.789  12.553  19.905  0.00  0.00    +0.000 C 
ATOM     26  C   UNL     1      -0.832  13.112  18.819  0.00  0.00    +0.000 C 
ATOM     27  O   UNL     1      -0.911  14.452  19.339  0.00  0.00    +0.000 OA
ATOM     28  C   UNL     1      -1.764  14.025  20.421  0.00  0.00    +0.000 C 
BRANCH  25  29
ATOM     29  C   UNL     1      -3.167  12.126  19.338  0.00  0.00    +0.000 C 
BRANCH  29  35
ATOM     30  C   UNL     1      -5.439  12.178  17.139  0.00  0.00    +0.000 C 
ATOM     31  N   UNL     1      -4.134  11.585  17.026  0.00  0.00    +0.000 N 
ATOM     32  C   UNL     1      -3.673  10.922  15.927  0.00  0.00    +0.000 A 
ATOM     33  N   UNL     1      -2.465  10.470  16.165  0.00  0.00    +0.000 NA
ATOM     34  N   UNL     1      -2.130  10.835  17.445  0.00  0.00    +0.000 NA
ATOM     35  C   UNL     1      -3.125  11.536  17.958  0.00  0.00    +0.000 A 
ENDBRANCH  29  35
ENDBRANCH  25  29
ENDBRANCH  19  25
ENDBRANCH   1  23
BRANCH   8  36
ATOM     36  C   UNL     1       2.068   4.145  20.688  0.00  0.00    +0.000 C 
ATOM     37  F   UNL     1       0.713   4.037  20.721  0.00  0.00    +0.000 F 
ATOM     38  F   UNL     1       2.538   2.908  20.375  0.00  0.00    +0.000 F 
ATOM     39  F   UNL     1       2.448   4.381  21.972  0.00  0.00    +0.000 F 
ENDBRANCH   8  36
TORSDOF 6
ENDMDL
MODEL 3
REMARK VINA RESULT:     -10.1      1.682      2.748
REMARK  Name = 
REMARK  7 active torsions:
REMARK  status: ('A' for Active; 'I' for Inactive)
REMARK    1  A    between atoms: C_1  and  N_2
REMARK    2  A    between atoms: C_6  and  C_7
REMARK    3  A    between atoms: C_7  and  C_8
REMARK    4  A    between atoms: C_8  and  C_9
REMARK    5  A    between atoms: C_13  and  N_14
REMARK    6  A    between atoms: C_19  and  C_20
REMARK    7  A    between atoms: C_29  and  C_30
REMARK                            x       y       z     vdW  Elec       q    Type
REMARK                         _______ _______ _______ _____ _____    ______ ____
ROOT
ATOM      1  N   UNL     1       1.165   8.440  20.481  0.00  0.00    +0.000 N 
ATOM      2  C   UNL     1       1.278   7.078  20.966  0.00  0.00    +0.000 C 
ATOM      3  C   UNL     1       2.118   6.404  19.953  0.00  0.00    +0.000 A 
ATOM      4  C   UNL     1       2.554   7.327  19.009  0.00  0.00    +0.000 A 
ATOM      5  C   UNL     1       3.402   6.960  17.978  0.00  0.00    +0.000 A 
ATOM      6  C   UNL     1       3.810   5.614  17.900  0.00  0.00    +0.000 A 
ATOM      7  C   UNL     1       3.317   4.686  18.851  0.00  0.00    +0.000 A 
ATOM      8  C   UNL     1       2.458   5.062  19.890  0.00  0.00    +0.000 A 
ATOM      9  C   UNL     1       1.927   8.635  19.325  0.00  0.00    +0.000 C 
ATOM     10  O   UNL     1       2.089   9.630  18.643  0.00  0.00    +0.000 OA
ENDROOT
BRANCH   6  11
ATOM     11  C   UNL     1       4.753   5.141  16.873  0.00  0.00    +0.000 C 
ATOM     12  C   UNL     1       4.972   3.850  16.556  0.00  0.00    +0.000 C 
ATOM     13  N   UNL     1       5.926   3.603  15.551  0.00  0.00    +0.000 N 
ATOM     14  C   UNL     1       5.514   4.256  14.267  0.00  0.00    +0.000 C 
ATOM     15  C   UNL     1       5.300   5.766  14.540  0.00  0.00    +0.000 C 
ATOM     16  C   UNL     1       5.621   6.071  16.026  0.00  0.00    +0.000 C 
ATOM     17  C   UNL     1       7.097   5.654  16.267  0.00  0.00    +0.000 C 
ATOM     18  C   UNL     1       7.269   4.154  15.927  0.00  0.00    +0.000 C 
ENDBRANCH   6  11
BRANCH   1  23
ATOM     19  C   UNL     1      -1.259  11.276  20.869  0.00  0.00    +0.000 A 
ATOM     20  C   UNL     1      -1.387  11.295  22.265  0.00  0.00    +0.000 A 
ATOM     21  C   UNL     1      -0.720  10.363  23.076  0.00  0.00    +0.000 A 
ATOM     22  C   UNL     1       0.118   9.390  22.515  0.00  0.00    +0.000 A 
ATOM     23  C   UNL     1       0.286   9.337  21.139  0.00  0.00    +0.000 A 
ATOM     24  C   UNL     1      -0.431  10.264  20.359  0.00  0.00    +0.000 A 
BRANCH  19  25
ATOM     25  C   UNL     1      -1.984  12.311  19.863  0.00  0.00    +0.000 C 
ATOM     26  C   UNL     1      -3.507  12.506  20.085  0.00  0.00    +0.000 C 
ATOM     27  O   UNL     1      -3.832  12.039  18.762  0.00  0.00    +0.000 OA
ATOM     28  C   UNL     1      -2.444  11.771  18.473  0.00  0.00    +0.000 C 
BRANCH  25  29
ATOM     29  C   UNL     1      -1.208  13.650  19.773  0.00  0.00    +0.000 C 
BRANCH  29  35
ATOM     30  C   UNL     1       1.164  14.411  21.720  0.00  0.00    +0.000 C 
ATOM     31  N   UNL     1       1.270  13.845  20.402  0.00  0.00    +0.000 N 
ATOM     32  C   UNL     1       2.443  13.560  19.770  0.00  0.00    +0.000 A 
ATOM     33  N   UNL     1       2.190  13.095  18.570  0.00  0.00    +0.000 NA
ATOM     34  N   UNL     1       0.827  13.085  18.407  0.00  0.00    +0.000 NA
ATOM     35  C   UNL     1       0.266  13.509  19.525  0.00  0.00    +0.000 A 
ENDBRANCH  29  35
ENDBRANCH  25  29
ENDBRANCH  19  25
ENDBRANCH   1  23
BRANCH   8  36
ATOM     36  C   UNL     1       1.926   4.033  20.852  0.00  0.00    +0.000 C 
ATOM     37  F   UNL     1       2.319   2.762  20.571  0.00  0.00    +0.000 F 
ATOM     38  F   UNL     1       2.319   4.274  22.132  0.00  0.00    +0.000 F 
ATOM     39  F   UNL     1       0.567   3.999  20.873  0.00  0.00    +0.000 F 
ENDBRANCH   8  36
TORSDOF 6
ENDMDL
MODEL 4
REMARK VINA RESULT:     -10.0      1.890      2.731
REMARK  Name = 
REMARK  7 active torsions:
REMARK  status: ('A' for Active; 'I' for Inactive)
REMARK    1  A    between atoms: C_1  and  N_2
REMARK    2  A    between atoms: C_6  and  C_7
REMARK    3  A    between atoms: C_7  and  C_8
REMARK    4  A    between atoms: C_8  and  C_9
REMARK    5  A    between atoms: C_13  and  N_14
REMARK    6  A    between atoms: C_19  and  C_20
REMARK    7  A    between atoms: C_29  and  C_30
REMARK                            x       y       z     vdW  Elec       q    Type
REMARK                         _______ _______ _______ _____ _____    ______ ____
ROOT
ATOM      1  N   UNL     1       1.170   9.129  19.499  0.00  0.00    +0.000 N 
ATOM      2  C   UNL     1       1.311   7.863  20.193  0.00  0.00    +0.000 C 
ATOM      3  C   UNL     1       2.218   7.078  19.328  0.00  0.00    +0.000 A 
ATOM      4  C   UNL     1       2.660   7.864  18.268  0.00  0.00    +0.000 A 
ATOM      5  C   UNL     1       3.563   7.379  17.338  0.00  0.00    +0.000 A 
ATOM      6  C   UNL     1       4.024   6.056  17.484  0.00  0.00    +0.000 A 
ATOM      7  C   UNL     1       3.525   5.264  18.549  0.00  0.00    +0.000 A 
ATOM      8  C   UNL     1       2.609   5.758  19.485  0.00  0.00    +0.000 A 
ATOM      9  C   UNL     1       1.972   9.177  18.355  0.00  0.00    +0.000 C 
ATOM     10  O   UNL     1       2.128  10.062  17.534  0.00  0.00    +0.000 OA
ENDROOT
BRANCH   6  11
ATOM     11  C   UNL     1       5.026   5.472  16.579  0.00  0.00    +0.000 C 
ATOM     12  C   UNL     1       5.390   5.987  15.388  0.00  0.00    +0.000 C 
ATOM     13  N   UNL     1       6.360   5.270  14.663  0.00  0.00    +0.000 N 
ATOM     14  C   UNL     1       7.632   5.167  15.449  0.00  0.00    +0.000 C 
ATOM     15  C   UNL     1       7.300   4.523  16.820  0.00  0.00    +0.000 C 
ATOM     16  C   UNL     1       5.789   4.182  16.876  0.00  0.00    +0.000 C 
ATOM     17  C   UNL     1       5.499   3.205  15.705  0.00  0.00    +0.000 C 
ATOM     18  C   UNL     1       5.898   3.874  14.367  0.00  0.00    +0.000 C 
ENDBRANCH   6  11
BRANCH   1  23
ATOM     19  C   UNL     1      -1.903  11.280  19.510  0.00  0.00    +0.000 A 
ATOM     20  C   UNL     1      -1.673  12.024  20.676  0.00  0.00    +0.000 A 
ATOM     21  C   UNL     1      -0.543  11.799  21.478  0.00  0.00    +0.000 A 
ATOM     22  C   UNL     1       0.409  10.833  21.128  0.00  0.00    +0.000 A 
ATOM     23  C   UNL     1       0.231  10.078  19.977  0.00  0.00    +0.000 A 
ATOM     24  C   UNL     1      -0.934  10.306  19.221  0.00  0.00    +0.000 A 
BRANCH  19  25
ATOM     25  C   UNL     1      -3.170  11.475  18.526  0.00  0.00    +0.000 C 
ATOM     26  C   UNL     1      -3.936  10.177  18.156  0.00  0.00    +0.000 C 
ATOM     27  O   UNL     1      -3.674  10.340  16.750  0.00  0.00    +0.000 OA
ATOM     28  C   UNL     1      -2.896  11.530  16.992  0.00  0.00    +0.000 C 
BRANCH  25  29
ATOM     29  C   UNL     1      -4.103  12.609  19.023  0.00  0.00    +0.000 C 
BRANCH  29  35
ATOM     30  C   UNL     1      -6.973  12.178  17.769  0.00  0.00    +0.000 C 
ATOM     31  N   UNL     1      -6.580  11.959  19.135  0.00  0.00    +0.000 N 
ATOM     32  C   UNL     1      -7.416  11.537  20.127  0.00  0.00    +0.000 A 
ATOM     33  N   UNL     1      -6.754  11.479  21.258  0.00  0.00    +0.000 NA
ATOM     34  N   UNL     1      -5.465  11.879  21.007  0.00  0.00    +0.000 NA
ATOM     35  C   UNL     1      -5.348  12.141  19.718  0.00  0.00    +0.000 A 
ENDBRANCH  29  35
ENDBRANCH  25  29
ENDBRANCH  19  25
ENDBRANCH   1  23
BRANCH   8  36
ATOM     36  C   UNL     1       2.074   4.867  20.575  0.00  0.00    +0.000 C 
ATOM     37  F   UNL     1       2.513   3.582  20.500  0.00  0.00    +0.000 F 
ATOM     38  F   UNL     1       2.416   5.309  21.815  0.00  0.00    +0.000 F 
ATOM     39  F   UNL     1       0.717   4.791  20.561  0.00  0.00    +0.000 F 
ENDBRANCH   8  36
TORSDOF 6
ENDMDL
MODEL 5
REMARK VINA RESULT:      -9.9      1.748      2.886
REMARK  Name = 
REMARK  7 active torsions:
REMARK  status: ('A' for Active; 'I' for Inactive)
REMARK    1  A    between atoms: C_1  and  N_2
REMARK    2  A    between atoms: C_6  and  C_7
REMARK    3  A    between atoms: C_7  and  C_8
REMARK    4  A    between atoms: C_8  and  C_9
REMARK    5  A    between atoms: C_13  and  N_14
REMARK    6  A    between atoms: C_19  and  C_20
REMARK    7  A    between atoms: C_29  and  C_30
REMARK                            x       y       z     vdW  Elec       q    Type
REMARK                         _______ _______ _______ _____ _____    ______ ____
ROOT
ATOM      1  N   UNL     1       1.198   8.563  20.391  0.00  0.00    +0.000 N 
ATOM      2  C   UNL     1       1.345   7.198  20.859  0.00  0.00    +0.000 C 
ATOM      3  C   UNL     1       2.196   6.555  19.834  0.00  0.00    +0.000 A 
ATOM      4  C   UNL     1       2.606   7.501  18.899  0.00  0.00    +0.000 A 
ATOM      5  C   UNL     1       3.457   7.166  17.860  0.00  0.00    +0.000 A 
ATOM      6  C   UNL     1       3.897   5.831  17.764  0.00  0.00    +0.000 A 
ATOM      7  C   UNL     1       3.430   4.880  18.706  0.00  0.00    +0.000 A 
ATOM      8  C   UNL     1       2.567   5.223  19.753  0.00  0.00    +0.000 A 
ATOM      9  C   UNL     1       1.950   8.790  19.234  0.00  0.00    +0.000 C 
ATOM     10  O   UNL     1       2.086   9.797  18.564  0.00  0.00    +0.000 OA
ENDROOT
BRANCH   6  11
ATOM     11  C   UNL     1       4.846   5.393  16.728  0.00  0.00    +0.000 C 
ATOM     12  C   UNL     1       5.136   6.076  15.602  0.00  0.00    +0.000 C 
ATOM     13  N   UNL     1       6.064   5.480  14.728  0.00  0.00    +0.000 N 
ATOM     14  C   UNL     1       7.381   5.284  15.416  0.00  0.00    +0.000 C 
ATOM     15  C   UNL     1       7.135   4.449  16.699  0.00  0.00    +0.000 C 
ATOM     16  C   UNL     1       5.631   4.084  16.795  0.00  0.00    +0.000 C 
ATOM     17  C   UNL     1       5.276   3.278  15.517  0.00  0.00    +0.000 C 
ATOM     18  C   UNL     1       5.592   4.134  14.266  0.00  0.00    +0.000 C 
ENDBRANCH   6  11
BRANCH   1  23
ATOM     19  C   UNL     1      -1.291  11.335  20.825  0.00  0.00    +0.000 A 
ATOM     20  C   UNL     1      -1.412  11.334  22.222  0.00  0.00    +0.000 A 
ATOM     21  C   UNL     1      -0.719  10.409  23.018  0.00  0.00    +0.000 A 
ATOM     22  C   UNL     1       0.139   9.463  22.442  0.00  0.00    +0.000 A 
ATOM     23  C   UNL     1       0.301   9.430  21.064  0.00  0.00    +0.000 A 
ATOM     24  C   UNL     1      -0.442  10.349  20.298  0.00  0.00    +0.000 A 
BRANCH  19  25
ATOM     25  C   UNL     1      -2.045  12.365  19.834  0.00  0.00    +0.000 C 
ATOM     26  C   UNL     1      -3.566  12.539  20.082  0.00  0.00    +0.000 C 
ATOM     27  O   UNL     1      -3.906  12.073  18.762  0.00  0.00    +0.000 OA
ATOM     28  C   UNL     1      -2.520  11.824  18.450  0.00  0.00    +0.000 C 
BRANCH  25  29
ATOM     29  C   UNL     1      -1.288  13.714  19.738  0.00  0.00    +0.000 C 
BRANCH  29  35
ATOM     30  C   UNL     1       1.053  14.389  21.754  0.00  0.00    +0.000 C 
ATOM     31  N   UNL     1       1.180  13.890  20.411  0.00  0.00    +0.000 N 
ATOM     32  C   UNL     1       2.364  13.641  19.782  0.00  0.00    +0.000 A 
ATOM     33  N   UNL     1       2.130  13.236  18.557  0.00  0.00    +0.000 NA
ATOM     34  N   UNL     1       0.769  13.226  18.375  0.00  0.00    +0.000 NA
ATOM     35  C   UNL     1       0.190  13.592  19.504  0.00  0.00    +0.000 A 
ENDBRANCH  29  35
ENDBRANCH  25  29
ENDBRANCH  19  25
ENDBRANCH   1  23
BRANCH   8  36
ATOM     36  C   UNL     1       2.064   4.170  20.704  0.00  0.00    +0.000 C 
ATOM     37  F   UNL     1       0.709   4.065  20.742  0.00  0.00    +0.000 F 
ATOM     38  F   UNL     1       2.530   2.930  20.393  0.00  0.00    +0.000 F 
ATOM     39  F   UNL     1       2.448   4.407  21.987  0.00  0.00    +0.000 F 
ENDBRANCH   8  36
TORSDOF 6
ENDMDL
MODEL 6
REMARK VINA RESULT:      -9.9      1.980      3.058
REMARK  Name = 
REMARK  7 active torsions:
REMARK  status: ('A' for Active; 'I' for Inactive)
REMARK    1  A    between atoms: C_1  and  N_2
REMARK    2  A    between atoms: C_6  and  C_7
REMARK    3  A    between atoms: C_7  and  C_8
REMARK    4  A    between atoms: C_8  and  C_9
REMARK    5  A    between atoms: C_13  and  N_14
REMARK    6  A    between atoms: C_19  and  C_20
REMARK    7  A    between atoms: C_29  and  C_30
REMARK                            x       y       z     vdW  Elec       q    Type
REMARK                         _______ _______ _______ _____ _____    ______ ____
ROOT
ATOM      1  N   UNL     1       1.158   8.401  20.538  0.00  0.00    +0.000 N 
ATOM      2  C   UNL     1       1.280   7.036  21.014  0.00  0.00    +0.000 C 
ATOM      3  C   UNL     1       2.121   6.373  19.993  0.00  0.00    +0.000 A 
ATOM      4  C   UNL     1       2.547   7.306  19.053  0.00  0.00    +0.000 A 
ATOM      5  C   UNL     1       3.393   6.950  18.016  0.00  0.00    +0.000 A 
ATOM      6  C   UNL     1       3.809   5.608  17.928  0.00  0.00    +0.000 A 
ATOM      7  C   UNL     1       3.326   4.670  18.875  0.00  0.00    +0.000 A 
ATOM      8  C   UNL     1       2.468   5.034  19.919  0.00  0.00    +0.000 A 
ATOM      9  C   UNL     1       1.913   8.608  19.380  0.00  0.00    +0.000 C 
ATOM     10  O   UNL     1       2.067   9.609  18.704  0.00  0.00    +0.000 OA
ENDROOT
BRANCH   6  11
ATOM     11  C   UNL     1       4.750   5.148  16.894  0.00  0.00    +0.000 C 
ATOM     12  C   UNL     1       4.978   3.859  16.569  0.00  0.00    +0.000 C 
ATOM     13  N   UNL     1       5.928   3.625  15.559  0.00  0.00    +0.000 N 
ATOM     14  C   UNL     1       5.506   4.281  14.279  0.00  0.00    +0.000 C 
ATOM     15  C   UNL     1       5.281   5.788  14.562  0.00  0.00    +0.000 C 
ATOM     16  C   UNL     1       5.607   6.088  16.048  0.00  0.00    +0.000 C 
ATOM     17  C   UNL     1       7.087   5.682  16.279  0.00  0.00    +0.000 C 
ATOM     18  C   UNL     1       7.269   4.184  15.930  0.00  0.00    +0.000 C 
ENDBRANCH   6  11
BRANCH   1  23
ATOM     19  C   UNL     1      -1.248  11.248  20.964  0.00  0.00    +0.000 A 
ATOM     20  C   UNL     1      -1.398  11.230  22.358  0.00  0.00    +0.000 A 
ATOM     21  C   UNL     1      -0.752  10.271  23.153  0.00  0.00    +0.000 A 
ATOM     22  C   UNL     1       0.087   9.306  22.580  0.00  0.00    +0.000 A 
ATOM     23  C   UNL     1       0.275   9.288  21.206  0.00  0.00    +0.000 A 
ATOM     24  C   UNL     1      -0.421  10.242  20.439  0.00  0.00    +0.000 A 
BRANCH  19  25
ATOM     25  C   UNL     1      -1.947  12.316  19.974  0.00  0.00    +0.000 C 
ATOM     26  C   UNL     1      -3.261  12.952  20.496  0.00  0.00    +0.000 C 
ATOM     27  O   UNL     1      -4.032  12.439  19.392  0.00  0.00    +0.000 OA
ATOM     28  C   UNL     1      -2.878  11.763  18.851  0.00  0.00    +0.000 C 
BRANCH  25  29
ATOM     29  C   UNL     1      -0.927  13.365  19.462  0.00  0.00    +0.000 C 
BRANCH  29  35
ATOM     30  C   UNL     1       2.219  13.093  19.636  0.00  0.00    +0.000 C 
ATOM     31  N   UNL     1       1.355  13.787  20.553  0.00  0.00    +0.000 N 
ATOM     32  C   UNL     1       1.773  14.436  21.677  0.00  0.00    +0.000 A 
ATOM     33  N   UNL     1       0.734  14.924  22.310  0.00  0.00    +0.000 NA
ATOM     34  N   UNL     1      -0.387  14.583  21.595  0.00  0.00    +0.000 NA
ATOM     35  C   UNL     1      -0.013  13.921  20.515  0.00  0.00    +0.000 A 
ENDBRANCH  29  35
ENDBRANCH  25  29
ENDBRANCH  19  25
ENDBRANCH   1  23
BRANCH   8  36
ATOM     36  C   UNL     1       1.947   3.995  20.877  0.00  0.00    +0.000 C 
ATOM     37  F   UNL     1       2.354   2.730  20.591  0.00  0.00    +0.000 F 
ATOM     38  F   UNL     1       2.335   4.236  22.158  0.00  0.00    +0.000 F 
ATOM     39  F   UNL     1       0.588   3.947  20.896  0.00  0.00    +0.000 F 
ENDBRANCH   8  36
TORSDOF 6
ENDMDL
MODEL 7
REMARK VINA RESULT:      -9.9      1.824      2.732
REMARK  Name = 
REMARK  7 active torsions:
REMARK  status: ('A' for Active; 'I' for Inactive)
REMARK    1  A    between atoms: C_1  and  N_2
REMARK    2  A    between atoms: C_6  and  C_7
REMARK    3  A    between atoms: C_7  and  C_8
REMARK    4  A    between atoms: C_8  and  C_9
REMARK    5  A    between atoms: C_13  and  N_14
REMARK    6  A    between atoms: C_19  and  C_20
REMARK    7  A    between atoms: C_29  and  C_30
REMARK                            x       y       z     vdW  Elec       q    Type
REMARK                         _______ _______ _______ _____ _____    ______ ____
ROOT
ATOM      1  N   UNL     1       1.170   8.394  20.551  0.00  0.00    +0.000 N 
ATOM      2  C   UNL     1       1.283   7.024  21.015  0.00  0.00    +0.000 C 
ATOM      3  C   UNL     1       2.122   6.366  19.990  0.00  0.00    +0.000 A 
ATOM      4  C   UNL     1       2.556   7.304  19.059  0.00  0.00    +0.000 A 
ATOM      5  C   UNL     1       3.401   6.952  18.021  0.00  0.00    +0.000 A 
ATOM      6  C   UNL     1       3.810   5.608  17.921  0.00  0.00    +0.000 A 
ATOM      7  C   UNL     1       3.319   4.665  18.859  0.00  0.00    +0.000 A 
ATOM      8  C   UNL     1       2.462   5.025  19.905  0.00  0.00    +0.000 A 
ATOM      9  C   UNL     1       1.929   8.607  19.397  0.00  0.00    +0.000 C 
ATOM     10  O   UNL     1       2.090   9.612  18.730  0.00  0.00    +0.000 OA
ENDROOT
BRANCH   6  11
ATOM     11  C   UNL     1       4.750   5.152  16.886  0.00  0.00    +0.000 C 
ATOM     12  C   UNL     1       4.971   3.865  16.550  0.00  0.00    +0.000 C 
ATOM     13  N   UNL     1       5.923   3.635  15.539  0.00  0.00    +0.000 N 
ATOM     14  C   UNL     1       5.506   4.304  14.265  0.00  0.00    +0.000 C 
ATOM     15  C   UNL     1       5.290   5.810  14.560  0.00  0.00    +0.000 C 
ATOM     16  C   UNL     1       5.614   6.095  16.049  0.00  0.00    +0.000 C 
ATOM     17  C   UNL     1       7.092   5.678  16.280  0.00  0.00    +0.000 C 
ATOM     18  C   UNL     1       7.266   4.182  15.918  0.00  0.00    +0.000 C 
ENDBRANCH   6  11
BRANCH   1  23
ATOM     19  C   UNL     1      -1.148  11.306  21.018  0.00  0.00    +0.000 A 
ATOM     20  C   UNL     1      -1.360  11.226  22.402  0.00  0.00    +0.000 A 
ATOM     21  C   UNL     1      -0.786  10.205  23.174  0.00  0.00    +0.000 A 
ATOM     22  C   UNL     1       0.042   9.237  22.589  0.00  0.00    +0.000 A 
ATOM     23  C   UNL     1       0.291   9.280  21.225  0.00  0.00    +0.000 A 
ATOM     24  C   UNL     1      -0.335  10.296  20.479  0.00  0.00    +0.000 A 
BRANCH  19  25
ATOM     25  C   UNL     1      -1.763  12.448  20.055  0.00  0.00    +0.000 C 
ATOM     26  C   UNL     1      -2.311  13.708  20.775  0.00  0.00    +0.000 C 
ATOM     27  O   UNL     1      -3.643  13.508  20.264  0.00  0.00    +0.000 OA
ATOM     28  C   UNL     1      -3.247  12.291  19.599  0.00  0.00    +0.000 C 
BRANCH  25  29
ATOM     29  C   UNL     1      -0.797  12.787  18.891  0.00  0.00    +0.000 C 
BRANCH  29  35
ATOM     30  C   UNL     1       1.952  13.103  20.421  0.00  0.00    +0.000 C 
ATOM     31  N   UNL     1       1.206  14.135  19.752  0.00  0.00    +0.000 N 
ATOM     32  C   UNL     1       1.575  15.446  19.692  0.00  0.00    +0.000 A 
ATOM     33  N   UNL     1       0.659  16.127  19.047  0.00  0.00    +0.000 NA
ATOM     34  N   UNL     1      -0.334  15.250  18.687  0.00  0.00    +0.000 NA
ATOM     35  C   UNL     1       0.008  14.039  19.085  0.00  0.00    +0.000 A 
ENDBRANCH  29  35
ENDBRANCH  25  29
ENDBRANCH  19  25
ENDBRANCH   1  23
BRANCH   8  36
ATOM     36  C   UNL     1       1.932   3.981  20.853  0.00  0.00    +0.000 C 
ATOM     37  F   UNL     1       0.576   3.897  20.876  0.00  0.00    +0.000 F 
ATOM     38  F   UNL     1       2.382   2.734  20.547  0.00  0.00    +0.000 F 
ATOM     39  F   UNL     1       2.307   4.214  22.139  0.00  0.00    +0.000 F 
ENDBRANCH   8  36
TORSDOF 6
ENDMDL
MODEL 8
REMARK VINA RESULT:      -9.8      1.746      2.347
REMARK  Name = 
REMARK  7 active torsions:
REMARK  status: ('A' for Active; 'I' for Inactive)
REMARK    1  A    between atoms: C_1  and  N_2
REMARK    2  A    between atoms: C_6  and  C_7
REMARK    3  A    between atoms: C_7  and  C_8
REMARK    4  A    between atoms: C_8  and  C_9
REMARK    5  A    between atoms: C_13  and  N_14
REMARK    6  A    between atoms: C_19  and  C_20
REMARK    7  A    between atoms: C_29  and  C_30
REMARK                            x       y       z     vdW  Elec       q    Type
REMARK                         _______ _______ _______ _____ _____    ______ ____
ROOT
ATOM      1  N   UNL     1       1.188   8.356  20.605  0.00  0.00    +0.000 N 
ATOM      2  C   UNL     1       1.312   6.986  21.065  0.00  0.00    +0.000 C 
ATOM      3  C   UNL     1       2.142   6.332  20.029  0.00  0.00    +0.000 A 
ATOM      4  C   UNL     1       2.562   7.274  19.096  0.00  0.00    +0.000 A 
ATOM      5  C   UNL     1       3.398   6.927  18.047  0.00  0.00    +0.000 A 
ATOM      6  C   UNL     1       3.810   5.585  17.941  0.00  0.00    +0.000 A 
ATOM      7  C   UNL     1       3.333   4.638  18.883  0.00  0.00    +0.000 A 
ATOM      8  C   UNL     1       2.486   4.993  19.939  0.00  0.00    +0.000 A 
ATOM      9  C   UNL     1       1.934   8.573  19.442  0.00  0.00    +0.000 C 
ATOM     10  O   UNL     1       2.084   9.581  18.775  0.00  0.00    +0.000 OA
ENDROOT
BRANCH   6  11
ATOM     11  C   UNL     1       4.741   5.134  16.895  0.00  0.00    +0.000 C 
ATOM     12  C   UNL     1       4.944   3.850  16.536  0.00  0.00    +0.000 C 
ATOM     13  N   UNL     1       5.888   3.624  15.518  0.00  0.00    +0.000 N 
ATOM     14  C   UNL     1       5.477   4.321  14.257  0.00  0.00    +0.000 C 
ATOM     15  C   UNL     1       5.282   5.825  14.579  0.00  0.00    +0.000 C 
ATOM     16  C   UNL     1       5.615   6.079  16.071  0.00  0.00    +0.000 C 
ATOM     17  C   UNL     1       7.087   5.639  16.290  0.00  0.00    +0.000 C 
ATOM     18  C   UNL     1       7.240   4.147  15.902  0.00  0.00    +0.000 C 
ENDBRANCH   6  11
BRANCH   1  23
ATOM     19  C   UNL     1      -1.176  11.228  21.090  0.00  0.00    +0.000 A 
ATOM     20  C   UNL     1      -1.339  11.173  22.481  0.00  0.00    +0.000 A 
ATOM     21  C   UNL     1      -0.717  10.181  23.255  0.00  0.00    +0.000 A 
ATOM     22  C   UNL     1       0.112   9.219  22.662  0.00  0.00    +0.000 A 
ATOM     23  C   UNL     1       0.314   9.237  21.289  0.00  0.00    +0.000 A 
ATOM     24  C   UNL     1      -0.360  10.224  20.544  0.00  0.00    +0.000 A 
BRANCH  19  25
ATOM     25  C   UNL     1      -1.848  12.334  20.124  0.00  0.00    +0.000 C 
ATOM     26  C   UNL     1      -2.771  11.778  19.008  0.00  0.00    +0.000 C 
ATOM     27  O   UNL     1      -1.957  12.336  17.959  0.00  0.00    +0.000 OA
ATOM     28  C   UNL     1      -1.008  12.850  18.915  0.00  0.00    +0.000 C 
BRANCH  25  29
ATOM     29  C   UNL     1      -2.507  13.474  20.943  0.00  0.00    +0.000 C 
BRANCH  29  35
ATOM     30  C   UNL     1      -4.897  15.431  20.267  0.00  0.00    +0.000 C 
ATOM     31  N   UNL     1      -4.980  14.151  20.917  0.00  0.00    +0.000 N 
ATOM     32  C   UNL     1      -6.134  13.581  21.368  0.00  0.00    +0.000 A 
ATOM     33  N   UNL     1      -5.857  12.438  21.947  0.00  0.00    +0.000 NA
ATOM     34  N   UNL     1      -4.497  12.257  21.883  0.00  0.00    +0.000 NA
ATOM     35  C   UNL     1      -3.967  13.277  21.234  0.00  0.00    +0.000 A 
ENDBRANCH  29  35
ENDBRANCH  25  29
ENDBRANCH  19  25
ENDBRANCH   1  23
BRANCH   8  36
ATOM     36  C   UNL     1       1.971   3.945  20.890  0.00  0.00    +0.000 C 
ATOM     37  F   UNL     1       2.421   2.691  20.623  0.00  0.00    +0.000 F 
ATOM     38  F   UNL     1       2.320   4.204  22.179  0.00  0.00    +0.000 F 
ATOM     39  F   UNL     1       0.614   3.858  20.875  0.00  0.00    +0.000 F 
ENDBRANCH   8  36
TORSDOF 6
ENDMDL
MODEL 9
REMARK VINA RESULT:      -9.8      0.760      1.320
REMARK  Name = 
REMARK  7 active torsions:
REMARK  status: ('A' for Active; 'I' for Inactive)
REMARK    1  A    between atoms: C_1  and  N_2
REMARK    2  A    between atoms: C_6  and  C_7
REMARK    3  A    between atoms: C_7  and  C_8
REMARK    4  A    between atoms: C_8  and  C_9
REMARK    5  A    between atoms: C_13  and  N_14
REMARK    6  A    between atoms: C_19  and  C_20
REMARK    7  A    between atoms: C_29  and  C_30
REMARK                            x       y       z     vdW  Elec       q    Type
REMARK                         _______ _______ _______ _____ _____    ______ ____
ROOT
ATOM      1  N   UNL     1       1.160   8.456  20.524  0.00  0.00    +0.000 N 
ATOM      2  C   UNL     1       1.284   7.095  21.011  0.00  0.00    +0.000 C 
ATOM      3  C   UNL     1       2.118   6.423  19.990  0.00  0.00    +0.000 A 
ATOM      4  C   UNL     1       2.540   7.348  19.041  0.00  0.00    +0.000 A 
ATOM      5  C   UNL     1       3.380   6.983  18.002  0.00  0.00    +0.000 A 
ATOM      6  C   UNL     1       3.795   5.640  17.922  0.00  0.00    +0.000 A 
ATOM      7  C   UNL     1       3.316   4.710  18.879  0.00  0.00    +0.000 A 
ATOM      8  C   UNL     1       2.465   5.083  19.925  0.00  0.00    +0.000 A 
ATOM      9  C   UNL     1       1.910   8.653  19.361  0.00  0.00    +0.000 C 
ATOM     10  O   UNL     1       2.060   9.648  18.676  0.00  0.00    +0.000 OA
ENDROOT
BRANCH   6  11
ATOM     11  C   UNL     1       4.730   5.171  16.887  0.00  0.00    +0.000 C 
ATOM     12  C   UNL     1       4.936   3.881  16.553  0.00  0.00    +0.000 C 
ATOM     13  N   UNL     1       5.884   3.637  15.543  0.00  0.00    +0.000 N 
ATOM     14  C   UNL     1       5.476   4.310  14.267  0.00  0.00    +0.000 C 
ATOM     15  C   UNL     1       5.277   5.819  14.560  0.00  0.00    +0.000 C 
ATOM     16  C   UNL     1       5.605   6.102  16.049  0.00  0.00    +0.000 C 
ATOM     17  C   UNL     1       7.077   5.668  16.280  0.00  0.00    +0.000 C 
ATOM     18  C   UNL     1       7.234   4.170  15.921  0.00  0.00    +0.000 C 
ENDBRANCH   6  11
BRANCH   1  23
ATOM     19  C   UNL     1      -0.932  11.523  21.059  0.00  0.00    +0.000 A 
ATOM     20  C   UNL     1      -1.332  11.314  22.386  0.00  0.00    +0.000 A 
ATOM     21  C   UNL     1      -0.957  10.160  23.092  0.00  0.00    +0.000 A 
ATOM     22  C   UNL     1      -0.148   9.183  22.498  0.00  0.00    +0.000 A 
ATOM     23  C   UNL     1       0.282   9.349  21.190  0.00  0.00    +0.000 A 
ATOM     24  C   UNL     1      -0.147  10.500  20.503  0.00  0.00    +0.000 A 
BRANCH  19  25
ATOM     25  C   UNL     1      -1.310  12.821  20.175  0.00  0.00    +0.000 C 
ATOM     26  C   UNL     1      -0.368  14.042  20.340  0.00  0.00    +0.000 C 
ATOM     27  O   UNL     1      -1.432  14.889  20.814  0.00  0.00    +0.000 OA
ATOM     28  C   UNL     1      -2.379  13.803  20.747  0.00  0.00    +0.000 C 
BRANCH  25  29
ATOM     29  C   UNL     1      -1.558  12.443  18.692  0.00  0.00    +0.000 C 
BRANCH  29  35
ATOM     30  C   UNL     1      -1.989   9.896  16.869  0.00  0.00    +0.000 C 
ATOM     31  N   UNL     1      -2.984  10.590  17.640  0.00  0.00    +0.000 N 
ATOM     32  C   UNL     1      -4.305  10.255  17.688  0.00  0.00    +0.000 A 
ATOM     33  N   UNL     1      -4.945  11.112  18.446  0.00  0.00    +0.000 NA
ATOM     34  N   UNL     1      -4.030  12.032  18.897  0.00  0.00    +0.000 NA
ATOM     35  C   UNL     1      -2.838  11.702  18.436  0.00  0.00    +0.000 A 
ENDBRANCH  29  35
ENDBRANCH  25  29
ENDBRANCH  19  25
ENDBRANCH   1  23
BRANCH   8  36
ATOM     36  C   UNL     1       1.948   4.052  20.894  0.00  0.00    +0.000 C 
ATOM     37  F   UNL     1       2.348   2.784  20.613  0.00  0.00    +0.000 F 
ATOM     38  F   UNL     1       2.348   4.300  22.170  0.00  0.00    +0.000 F 
ATOM     39  F   UNL     1       0.589   4.009  20.925  0.00  0.00    +0.000 F 
ENDBRANCH   8  36
TORSDOF 6
ENDMDL
