MODEL 1
REMARK VINA RESULT:      -9.8      0.000      0.000
REMARK  Name = 
REMARK  9 active torsions:
REMARK  status: ('A' for Active; 'I' for Inactive)
REMARK    1  A    between atoms: C_1  and  N_2
REMARK    2  A    between atoms: C_6  and  C_7
REMARK    3  A    between atoms: C_7  and  C_8
REMARK    4  A    between atoms: C_8  and  C_9
REMARK    5  A    between atoms: C_13  and  N_14
REMARK    6  A    between atoms: C_19  and  C_20
REMARK    7  A    between atoms: C_20  and  N_21
REMARK    8  A    between atoms: C_24  and  C_25
REMARK    9  A    between atoms: C_33  and  C_34
REMARK                            x       y       z     vdW  Elec       q    Type
REMARK                         _______ _______ _______ _____ _____    ______ ____
ROOT
ATOM      1  N   UNL     1       2.339   7.239  18.845  0.00  0.00    +0.000 N 
ATOM      2  C   UNL     1       1.760   7.557  20.126  0.00  0.00    +0.000 C 
ATOM      3  C   UNL     1       1.398   8.978  20.026  0.00  0.00    +0.000 A 
ATOM      4  C   UNL     1       1.737   9.480  18.775  0.00  0.00    +0.000 A 
ATOM      5  C   UNL     1       1.491  10.810  18.468  0.00  0.00    +0.000 A 
ATOM      6  C   UNL     1       0.812  11.598  19.428  0.00  0.00    +0.000 A 
ATOM      7  C   UNL     1       0.408  11.020  20.654  0.00  0.00    +0.000 A 
ATOM      8  C   UNL     1       0.791   9.740  21.017  0.00  0.00    +0.000 A 
ATOM      9  C   UNL     1       2.377   8.368  18.010  0.00  0.00    +0.000 C 
ATOM     10  O   UNL     1       2.826   8.492  16.887  0.00  0.00    +0.000 OA
ENDROOT
BRANCH   1  15
ATOM     11  C   UNL     1       4.465   4.521  17.383  0.00  0.00    +0.000 A 
ATOM     12  C   UNL     1       3.886   3.403  17.996  0.00  0.00    +0.000 A 
ATOM     13  C   UNL     1       2.830   3.532  18.916  0.00  0.00    +0.000 A 
ATOM     14  C   UNL     1       2.290   4.788  19.235  0.00  0.00    +0.000 A 
ATOM     15  C   UNL     1       2.823   5.922  18.647  0.00  0.00    +0.000 A 
ATOM     16  C   UNL     1       3.913   5.749  17.764  0.00  0.00    +0.000 A 
BRANCH  11  17
ATOM     17  C   UNL     1       5.683   4.484  16.318  0.00  0.00    +0.000 C 
ATOM     18  C   UNL     1       5.515   5.450  15.114  0.00  0.00    +0.000 C 
ATOM     19  O   UNL     1       5.528   4.378  14.154  0.00  0.00    +0.000 OA
ATOM     20  C   UNL     1       5.647   3.390  15.200  0.00  0.00    +0.000 C 
BRANCH  17  21
ATOM     21  C   UNL     1       7.065   4.574  17.024  0.00  0.00    +0.000 C 
BRANCH  21  27
ATOM     22  C   UNL     1       8.034   5.626  19.889  0.00  0.00    +0.000 C 
ATOM     23  N   UNL     1       7.907   6.381  18.662  0.00  0.00    +0.000 N 
ATOM     24  C   UNL     1       8.164   7.710  18.558  0.00  0.00    +0.000 A 
ATOM     25  N   UNL     1       7.914   8.107  17.329  0.00  0.00    +0.000 NA
ATOM     26  N   UNL     1       7.476   7.018  16.629  0.00  0.00    +0.000 NA
ATOM     27  C   UNL     1       7.492   5.959  17.417  0.00  0.00    +0.000 A 
ENDBRANCH  21  27
ENDBRANCH  17  21
ENDBRANCH  11  17
ENDBRANCH   1  15
BRANCH   8  28
ATOM     28  C   UNL     1       0.625   9.254  22.432  0.00  0.00    +0.000 C 
ATOM     29  F   UNL     1       1.796   8.954  23.058  0.00  0.00    +0.000 F 
ATOM     30  F   UNL     1       0.026  10.196  23.213  0.00  0.00    +0.000 F 
ATOM     31  F   UNL     1      -0.141   8.138  22.525  0.00  0.00    +0.000 F 
ENDBRANCH   8  28
BRANCH   6  32
ATOM     32  C   UNL     1       0.530  13.073  19.233  0.00  0.00    +0.000 C 
BRANCH  32  33
ATOM     33  N   UNL     1      -0.852  13.461  18.909  0.00  0.00    +0.000 NA
ATOM     34  C   UNL     1      -1.565  14.176  19.961  0.00  0.00    +0.000 C 
ATOM     35  C   UNL     1      -2.446  13.147  20.651  0.00  0.00    +0.000 C 
ATOM     36  C   UNL     1      -2.760  12.105  19.573  0.00  0.00    +0.000 C 
ATOM     37  C   UNL     1      -1.765  12.410  18.433  0.00  0.00    +0.000 C 
BRANCH  36  38
ATOM     38  C   UNL     1      -4.217  12.106  19.137  0.00  0.00    +0.000 A 
ATOM     39  C   UNL     1      -5.249  12.519  19.995  0.00  0.00    +0.000 A 
ATOM     40  C   UNL     1      -6.580  12.515  19.571  0.00  0.00    +0.000 A 
ATOM     41  C   UNL     1      -6.904  12.097  18.284  0.00  0.00    +0.000 A 
ATOM     42  C   UNL     1      -5.895  11.676  17.422  0.00  0.00    +0.000 A 
ATOM     43  C   UNL     1      -4.561  11.680  17.844  0.00  0.00    +0.000 A 
ENDBRANCH  36  38
ENDBRANCH  32  33
ENDBRANCH   6  32
TORSDOF 8
ENDMDL
MODEL 2
REMARK VINA RESULT:      -9.6      3.850     11.597
REMARK  Name = 
REMARK  9 active torsions:
REMARK  status: ('A' for Active; 'I' for Inactive)
REMARK    1  A    between atoms: C_1  and  N_2
REMARK    2  A    between atoms: C_6  and  C_7
REMARK    3  A    between atoms: C_7  and  C_8
REMARK    4  A    between atoms: C_8  and  C_9
REMARK    5  A    between atoms: C_13  and  N_14
REMARK    6  A    between atoms: C_19  and  C_20
REMARK    7  A    between atoms: C_20  and  N_21
REMARK    8  A    between atoms: C_24  and  C_25
REMARK    9  A    between atoms: C_33  and  C_34
REMARK                            x       y       z     vdW  Elec       q    Type
REMARK                         _______ _______ _______ _____ _____    ______ ____
ROOT
ATOM      1  N   UNL     1      -1.985  12.317  20.746  0.00  0.00    +0.000 N 
ATOM      2  C   UNL     1      -2.504  11.685  19.559  0.00  0.00    +0.000 C 
ATOM      3  C   UNL     1      -1.358  10.957  18.995  0.00  0.00    +0.000 A 
ATOM      4  C   UNL     1      -0.230  11.140  19.786  0.00  0.00    +0.000 A 
ATOM      5  C   UNL     1       0.972  10.546  19.431  0.00  0.00    +0.000 A 
ATOM      6  C   UNL     1       0.983   9.689  18.304  0.00  0.00    +0.000 A 
ATOM      7  C   UNL     1      -0.212   9.465  17.580  0.00  0.00    +0.000 A 
ATOM      8  C   UNL     1      -1.369  10.178  17.846  0.00  0.00    +0.000 A 
ATOM      9  C   UNL     1      -0.615  12.046  20.909  0.00  0.00    +0.000 C 
ATOM     10  O   UNL     1       0.160  12.436  21.760  0.00  0.00    +0.000 OA
ENDROOT
BRANCH   1  15
ATOM     11  C   UNL     1      -5.260  13.548  22.088  0.00  0.00    +0.000 A 
ATOM     12  C   UNL     1      -4.823  14.664  22.810  0.00  0.00    +0.000 A 
ATOM     13  C   UNL     1      -3.460  14.998  22.897  0.00  0.00    +0.000 A 
ATOM     14  C   UNL     1      -2.480  14.241  22.235  0.00  0.00    +0.000 A 
ATOM     15  C   UNL     1      -2.865  13.132  21.500  0.00  0.00    +0.000 A 
ATOM     16  C   UNL     1      -4.240  12.808  21.478  0.00  0.00    +0.000 A 
BRANCH  11  17
ATOM     17  C   UNL     1      -6.800  13.074  21.929  0.00  0.00    +0.000 C 
ATOM     18  C   UNL     1      -7.419  12.459  23.214  0.00  0.00    +0.000 C 
ATOM     19  O   UNL     1      -7.663  11.190  22.581  0.00  0.00    +0.000 OA
ATOM     20  C   UNL     1      -7.072  11.647  21.346  0.00  0.00    +0.000 C 
BRANCH  17  21
ATOM     21  C   UNL     1      -7.672  14.172  21.259  0.00  0.00    +0.000 C 
BRANCH  21  27
ATOM     22  C   UNL     1      -6.003  16.507  19.840  0.00  0.00    +0.000 C 
ATOM     23  N   UNL     1      -6.691  15.400  19.213  0.00  0.00    +0.000 N 
ATOM     24  C   UNL     1      -6.752  15.206  17.870  0.00  0.00    +0.000 A 
ATOM     25  N   UNL     1      -7.484  14.143  17.617  0.00  0.00    +0.000 NA
ATOM     26  N   UNL     1      -7.913  13.647  18.816  0.00  0.00    +0.000 NA
ATOM     27  C   UNL     1      -7.418  14.383  19.794  0.00  0.00    +0.000 A 
ENDBRANCH  21  27
ENDBRANCH  17  21
ENDBRANCH  11  17
ENDBRANCH   1  15
BRANCH   8  28
ATOM     28  C   UNL     1      -2.527  10.160  16.884  0.00  0.00    +0.000 C 
ATOM     29  F   UNL     1      -2.902  11.391  16.442  0.00  0.00    +0.000 F 
ATOM     30  F   UNL     1      -2.230   9.445  15.763  0.00  0.00    +0.000 F 
ATOM     31  F   UNL     1      -3.645   9.599  17.409  0.00  0.00    +0.000 F 
ENDBRANCH   8  28
BRANCH   6  32
ATOM     32  C   UNL     1       2.240   9.023  17.785  0.00  0.00    +0.000 C 
BRANCH  32  33
ATOM     33  N   UNL     1       2.850   7.981  18.626  0.00  0.00    +0.000 NA
ATOM     34  C   UNL     1       3.819   7.123  17.955  0.00  0.00    +0.000 C 
ATOM     35  C   UNL     1       3.081   5.840  17.608  0.00  0.00    +0.000 C 
ATOM     36  C   UNL     1       1.994   5.704  18.679  0.00  0.00    +0.000 C 
ATOM     37  C   UNL     1       1.949   7.085  19.367  0.00  0.00    +0.000 C 
BRANCH  36  38
ATOM     38  C   UNL     1       2.228   4.546  19.635  0.00  0.00    +0.000 A 
ATOM     39  C   UNL     1       1.354   4.274  20.701  0.00  0.00    +0.000 A 
ATOM     40  C   UNL     1       1.587   3.201  21.565  0.00  0.00    +0.000 A 
ATOM     41  C   UNL     1       2.697   2.382  21.381  0.00  0.00    +0.000 A 
ATOM     42  C   UNL     1       3.580   2.642  20.335  0.00  0.00    +0.000 A 
ATOM     43  C   UNL     1       3.347   3.714  19.468  0.00  0.00    +0.000 A 
ENDBRANCH  36  38
ENDBRANCH  32  33
ENDBRANCH   6  32
TORSDOF 8
ENDMDL
MODEL 3
REMARK VINA RESULT:      -9.6      2.510      4.829
REMARK  Name = 
REMARK  9 active torsions:
REMARK  status: ('A' for Active; 'I' for Inactive)
REMARK    1  A    between atoms: C_1  and  N_2
REMARK    2  A    between atoms: C_6  and  C_7
REMARK    3  A    between atoms: C_7  and  C_8
REMARK    4  A    between atoms: C_8  and  C_9
REMARK    5  A    between atoms: C_13  and  N_14
REMARK    6  A    between atoms: C_19  and  C_20
REMARK    7  A    between atoms: C_20  and  N_21
REMARK    8  A    between atoms: C_24  and  C_25
REMARK    9  A    between atoms: C_33  and  C_34
REMARK                            x       y       z     vdW  Elec       q    Type
REMARK                         _______ _______ _______ _____ _____    ______ ____
ROOT
ATOM      1  N   UNL     1       2.368   7.453  19.375  0.00  0.00    +0.000 N 
ATOM      2  C   UNL     1       1.641   7.780  20.576  0.00  0.00    +0.000 C 
ATOM      3  C   UNL     1       0.971   9.051  20.269  0.00  0.00    +0.000 A 
ATOM      4  C   UNL     1       1.275   9.462  18.976  0.00  0.00    +0.000 A 
ATOM      5  C   UNL     1       0.753  10.648  18.482  0.00  0.00    +0.000 A 
ATOM      6  C   UNL     1      -0.156  11.364  19.296  0.00  0.00    +0.000 A 
ATOM      7  C   UNL     1      -0.504  10.862  20.572  0.00  0.00    +0.000 A 
ATOM      8  C   UNL     1       0.136   9.763  21.121  0.00  0.00    +0.000 A 
ATOM      9  C   UNL     1       2.206   8.448  18.396  0.00  0.00    +0.000 C 
ATOM     10  O   UNL     1       2.694   8.536  17.286  0.00  0.00    +0.000 OA
ENDROOT
BRANCH   1  15
ATOM     11  C   UNL     1       5.390   5.312  18.800  0.00  0.00    +0.000 A 
ATOM     12  C   UNL     1       4.879   4.064  19.179  0.00  0.00    +0.000 A 
ATOM     13  C   UNL     1       3.565   3.921  19.658  0.00  0.00    +0.000 A 
ATOM     14  C   UNL     1       2.698   5.021  19.750  0.00  0.00    +0.000 A 
ATOM     15  C   UNL     1       3.154   6.275  19.379  0.00  0.00    +0.000 A 
ATOM     16  C   UNL     1       4.496   6.379  18.945  0.00  0.00    +0.000 A 
BRANCH  11  17
ATOM     17  C   UNL     1       6.884   5.587  18.242  0.00  0.00    +0.000 C 
ATOM     18  C   UNL     1       7.913   5.994  19.331  0.00  0.00    +0.000 C 
ATOM     19  O   UNL     1       8.171   7.271  18.718  0.00  0.00    +0.000 OA
ATOM     20  C   UNL     1       7.206   7.010  17.677  0.00  0.00    +0.000 C 
BRANCH  17  21
ATOM     21  C   UNL     1       7.364   4.446  17.301  0.00  0.00    +0.000 C 
BRANCH  21  27
ATOM     22  C   UNL     1       4.708   3.423  15.833  0.00  0.00    +0.000 C 
ATOM     23  N   UNL     1       5.818   4.150  15.256  0.00  0.00    +0.000 N 
ATOM     24  C   UNL     1       5.904   4.489  13.944  0.00  0.00    +0.000 A 
ATOM     25  N   UNL     1       7.047   5.102  13.727  0.00  0.00    +0.000 NA
ATOM     26  N   UNL     1       7.718   5.150  14.917  0.00  0.00    +0.000 NA
ATOM     27  C   UNL     1       6.972   4.601  15.859  0.00  0.00    +0.000 A 
ENDBRANCH  21  27
ENDBRANCH  17  21
ENDBRANCH  11  17
ENDBRANCH   1  15
BRANCH   8  28
ATOM     28  C   UNL     1      -0.015   9.429  22.582  0.00  0.00    +0.000 C 
ATOM     29  F   UNL     1       1.165   9.247  23.235  0.00  0.00    +0.000 F 
ATOM     30  F   UNL     1      -0.654  10.426  23.255  0.00  0.00    +0.000 F 
ATOM     31  F   UNL     1      -0.736   8.300  22.797  0.00  0.00    +0.000 F 
ENDBRANCH   8  28
BRANCH   6  32
ATOM     32  C   UNL     1      -0.754  12.695  18.891  0.00  0.00    +0.000 C 
BRANCH  32  33
ATOM     33  N   UNL     1      -0.052  13.913  19.326  0.00  0.00    +0.000 NA
ATOM     34  C   UNL     1       0.740  14.579  18.299  0.00  0.00    +0.000 C 
ATOM     35  C   UNL     1       2.181  14.155  18.531  0.00  0.00    +0.000 C 
ATOM     36  C   UNL     1       2.275  13.874  20.035  0.00  0.00    +0.000 C 
ATOM     37  C   UNL     1       0.809  13.819  20.515  0.00  0.00    +0.000 C 
BRANCH  36  38
ATOM     38  C   UNL     1       3.133  14.881  20.785  0.00  0.00    +0.000 A 
ATOM     39  C   UNL     1       2.834  15.278  22.099  0.00  0.00    +0.000 A 
ATOM     40  C   UNL     1       3.639  16.202  22.770  0.00  0.00    +0.000 A 
ATOM     41  C   UNL     1       4.754  16.746  22.141  0.00  0.00    +0.000 A 
ATOM     42  C   UNL     1       5.062  16.371  20.836  0.00  0.00    +0.000 A 
ATOM     43  C   UNL     1       4.258  15.445  20.162  0.00  0.00    +0.000 A 
ENDBRANCH  36  38
ENDBRANCH  32  33
ENDBRANCH   6  32
TORSDOF 8
ENDMDL
MODEL 4
REMARK VINA RESULT:      -9.5      2.585      4.740
REMARK  Name = 
REMARK  9 active torsions:
REMARK  status: ('A' for Active; 'I' for Inactive)
REMARK    1  A    between atoms: C_1  and  N_2
REMARK    2  A    between atoms: C_6  and  C_7
REMARK    3  A    between atoms: C_7  and  C_8
REMARK    4  A    between atoms: C_8  and  C_9
REMARK    5  A    between atoms: C_13  and  N_14
REMARK    6  A    between atoms: C_19  and  C_20
REMARK    7  A    between atoms: C_20  and  N_21
REMARK    8  A    between atoms: C_24  and  C_25
REMARK    9  A    between atoms: C_33  and  C_34
REMARK                            x       y       z     vdW  Elec       q    Type
REMARK                         _______ _______ _______ _____ _____    ______ ____
ROOT
ATOM      1  N   UNL     1       2.280   7.481  19.400  0.00  0.00    +0.000 N 
ATOM      2  C   UNL     1       1.553   7.805  20.602  0.00  0.00    +0.000 C 
ATOM      3  C   UNL     1       0.916   9.098  20.313  0.00  0.00    +0.000 A 
ATOM      4  C   UNL     1       1.239   9.522  19.029  0.00  0.00    +0.000 A 
ATOM      5  C   UNL     1       0.750  10.729  18.551  0.00  0.00    +0.000 A 
ATOM      6  C   UNL     1      -0.147  11.454  19.372  0.00  0.00    +0.000 A 
ATOM      7  C   UNL     1      -0.516  10.938  20.637  0.00  0.00    +0.000 A 
ATOM      8  C   UNL     1       0.093   9.815  21.171  0.00  0.00    +0.000 A 
ATOM      9  C   UNL     1       2.149   8.496  18.438  0.00  0.00    +0.000 C 
ATOM     10  O   UNL     1       2.647   8.591  17.332  0.00  0.00    +0.000 OA
ENDROOT
BRANCH   1  15
ATOM     11  C   UNL     1       5.254   5.277  18.815  0.00  0.00    +0.000 A 
ATOM     12  C   UNL     1       4.709   4.036  19.163  0.00  0.00    +0.000 A 
ATOM     13  C   UNL     1       3.387   3.915  19.626  0.00  0.00    +0.000 A 
ATOM     14  C   UNL     1       2.546   5.035  19.730  0.00  0.00    +0.000 A 
ATOM     15  C   UNL     1       3.037   6.283  19.389  0.00  0.00    +0.000 A 
ATOM     16  C   UNL     1       4.385   6.363  18.971  0.00  0.00    +0.000 A 
BRANCH  11  17
ATOM     17  C   UNL     1       6.761   5.526  18.278  0.00  0.00    +0.000 C 
ATOM     18  C   UNL     1       7.783   5.908  19.383  0.00  0.00    +0.000 C 
ATOM     19  O   UNL     1       8.073   7.182  18.780  0.00  0.00    +0.000 OA
ATOM     20  C   UNL     1       7.118   6.946  17.725  0.00  0.00    +0.000 C 
BRANCH  17  21
ATOM     21  C   UNL     1       7.231   4.381  17.337  0.00  0.00    +0.000 C 
BRANCH  21  27
ATOM     22  C   UNL     1       4.558   3.574  15.769  0.00  0.00    +0.000 C 
ATOM     23  N   UNL     1       5.740   4.217  15.238  0.00  0.00    +0.000 N 
ATOM     24  C   UNL     1       5.898   4.556  13.932  0.00  0.00    +0.000 A 
ATOM     25  N   UNL     1       7.092   5.080  13.760  0.00  0.00    +0.000 NA
ATOM     26  N   UNL     1       7.722   5.069  14.973  0.00  0.00    +0.000 NA
ATOM     27  C   UNL     1       6.904   4.574  15.884  0.00  0.00    +0.000 A 
ENDBRANCH  21  27
ENDBRANCH  17  21
ENDBRANCH  11  17
ENDBRANCH   1  15
BRANCH   8  28
ATOM     28  C   UNL     1      -0.076   9.460  22.625  0.00  0.00    +0.000 C 
ATOM     29  F   UNL     1       1.095   9.289  23.295  0.00  0.00    +0.000 F 
ATOM     30  F   UNL     1      -0.743  10.438  23.300  0.00  0.00    +0.000 F 
ATOM     31  F   UNL     1      -0.782   8.317  22.814  0.00  0.00    +0.000 F 
ENDBRANCH   8  28
BRANCH   6  32
ATOM     32  C   UNL     1      -0.709  12.806  18.986  0.00  0.00    +0.000 C 
BRANCH  32  33
ATOM     33  N   UNL     1      -0.279  13.968  19.778  0.00  0.00    +0.000 NA
ATOM     34  C   UNL     1      -0.861  15.246  19.382  0.00  0.00    +0.000 C 
ATOM     35  C   UNL     1       0.190  15.946  18.536  0.00  0.00    +0.000 C 
ATOM     36  C   UNL     1       1.533  15.421  19.054  0.00  0.00    +0.000 C 
ATOM     37  C   UNL     1       1.166  14.200  19.925  0.00  0.00    +0.000 C 
BRANCH  36  38
ATOM     38  C   UNL     1       2.353  16.474  19.783  0.00  0.00    +0.000 A 
ATOM     39  C   UNL     1       1.786  17.678  20.231  0.00  0.00    +0.000 A 
ATOM     40  C   UNL     1       2.558  18.630  20.902  0.00  0.00    +0.000 A 
ATOM     41  C   UNL     1       3.910  18.397  21.135  0.00  0.00    +0.000 A 
ATOM     42  C   UNL     1       4.492  17.212  20.690  0.00  0.00    +0.000 A 
ATOM     43  C   UNL     1       3.720  16.258  20.019  0.00  0.00    +0.000 A 
ENDBRANCH  36  38
ENDBRANCH  32  33
ENDBRANCH   6  32
TORSDOF 8
ENDMDL
MODEL 5
REMARK VINA RESULT:      -9.4      1.673      2.694
REMARK  Name = 
REMARK  9 active torsions:
REMARK  status: ('A' for Active; 'I' for Inactive)
REMARK    1  A    between atoms: C_1  and  N_2
REMARK    2  A    between atoms: C_6  and  C_7
REMARK    3  A    between atoms: C_7  and  C_8
REMARK    4  A    between atoms: C_8  and  C_9
REMARK    5  A    between atoms: C_13  and  N_14
REMARK    6  A    between atoms: C_19  and  C_20
REMARK    7  A    between atoms: C_20  and  N_21
REMARK    8  A    between atoms: C_24  and  C_25
REMARK    9  A    between atoms: C_33  and  C_34
REMARK                            x       y       z     vdW  Elec       q    Type
REMARK                         _______ _______ _______ _____ _____    ______ ____
ROOT
ATOM      1  N   UNL     1       2.038   7.555  18.982  0.00  0.00    +0.000 N 
ATOM      2  C   UNL     1       1.476   7.817  20.283  0.00  0.00    +0.000 C 
ATOM      3  C   UNL     1       1.048   9.223  20.226  0.00  0.00    +0.000 A 
ATOM      4  C   UNL     1       1.336   9.768  18.980  0.00  0.00    +0.000 A 
ATOM      5  C   UNL     1       1.024  11.092  18.711  0.00  0.00    +0.000 A 
ATOM      6  C   UNL     1       0.333  11.827  19.704  0.00  0.00    +0.000 A 
ATOM      7  C   UNL     1      -0.016  11.203  20.925  0.00  0.00    +0.000 A 
ATOM      8  C   UNL     1       0.432   9.933  21.248  0.00  0.00    +0.000 A 
ATOM      9  C   UNL     1       2.007   8.705  18.174  0.00  0.00    +0.000 C 
ATOM     10  O   UNL     1       2.423   8.874  17.044  0.00  0.00    +0.000 OA
ENDROOT
BRANCH   1  15
ATOM     11  C   UNL     1       4.517   5.012  17.784  0.00  0.00    +0.000 A 
ATOM     12  C   UNL     1       3.809   3.836  18.058  0.00  0.00    +0.000 A 
ATOM     13  C   UNL     1       2.542   3.863  18.668  0.00  0.00    +0.000 A 
ATOM     14  C   UNL     1       1.919   5.076  19.001  0.00  0.00    +0.000 A 
ATOM     15  C   UNL     1       2.576   6.267  18.742  0.00  0.00    +0.000 A 
ATOM     16  C   UNL     1       3.866   6.190  18.169  0.00  0.00    +0.000 A 
BRANCH  11  17
ATOM     17  C   UNL     1       5.978   5.092  17.092  0.00  0.00    +0.000 C 
ATOM     18  C   UNL     1       7.165   5.079  18.093  0.00  0.00    +0.000 C 
ATOM     19  O   UNL     1       7.633   6.374  17.672  0.00  0.00    +0.000 OA
ATOM     20  C   UNL     1       6.544   6.506  16.735  0.00  0.00    +0.000 C 
BRANCH  17  21
ATOM     21  C   UNL     1       6.114   4.078  15.922  0.00  0.00    +0.000 C 
BRANCH  21  27
ATOM     22  C   UNL     1       5.526   3.416  12.845  0.00  0.00    +0.000 C 
ATOM     23  N   UNL     1       6.535   4.300  13.386  0.00  0.00    +0.000 N 
ATOM     24  C   UNL     1       7.435   4.979  12.629  0.00  0.00    +0.000 A 
ATOM     25  N   UNL     1       8.242   5.657  13.416  0.00  0.00    +0.000 NA
ATOM     26  N   UNL     1       7.865   5.402  14.705  0.00  0.00    +0.000 NA
ATOM     27  C   UNL     1       6.814   4.603  14.702  0.00  0.00    +0.000 A 
ENDBRANCH  21  27
ENDBRANCH  17  21
ENDBRANCH  11  17
ENDBRANCH   1  15
BRANCH   8  28
ATOM     28  C   UNL     1       0.321   9.407  22.655  0.00  0.00    +0.000 C 
ATOM     29  F   UNL     1      -0.446   8.290  22.772  0.00  0.00    +0.000 F 
ATOM     30  F   UNL     1       1.542   9.065  23.154  0.00  0.00    +0.000 F 
ATOM     31  F   UNL     1      -0.205  10.311  23.520  0.00  0.00    +0.000 F 
ENDBRANCH   8  28
BRANCH   6  32
ATOM     32  C   UNL     1      -0.019  13.292  19.552  0.00  0.00    +0.000 C 
BRANCH  32  33
ATOM     33  N   UNL     1      -1.439  13.661  19.657  0.00  0.00    +0.000 NA
ATOM     34  C   UNL     1      -1.739  14.733  20.599  0.00  0.00    +0.000 C 
ATOM     35  C   UNL     1      -2.241  14.056  21.865  0.00  0.00    +0.000 C 
ATOM     36  C   UNL     1      -2.883  12.749  21.390  0.00  0.00    +0.000 C 
ATOM     37  C   UNL     1      -2.407  12.588  19.930  0.00  0.00    +0.000 C 
BRANCH  36  38
ATOM     38  C   UNL     1      -4.395  12.723  21.553  0.00  0.00    +0.000 A 
ATOM     39  C   UNL     1      -5.009  12.873  22.807  0.00  0.00    +0.000 A 
ATOM     40  C   UNL     1      -6.400  12.850  22.933  0.00  0.00    +0.000 A 
ATOM     41  C   UNL     1      -7.202  12.674  21.808  0.00  0.00    +0.000 A 
ATOM     42  C   UNL     1      -6.610  12.515  20.558  0.00  0.00    +0.000 A 
ATOM     43  C   UNL     1      -5.218  12.539  20.430  0.00  0.00    +0.000 A 
ENDBRANCH  36  38
ENDBRANCH  32  33
ENDBRANCH   6  32
TORSDOF 8
ENDMDL
MODEL 6
REMARK VINA RESULT:      -9.4      2.769      5.295
REMARK  Name = 
REMARK  9 active torsions:
REMARK  status: ('A' for Active; 'I' for Inactive)
REMARK    1  A    between atoms: C_1  and  N_2
REMARK    2  A    between atoms: C_6  and  C_7
REMARK    3  A    between atoms: C_7  and  C_8
REMARK    4  A    between atoms: C_8  and  C_9
REMARK    5  A    between atoms: C_13  and  N_14
REMARK    6  A    between atoms: C_19  and  C_20
REMARK    7  A    between atoms: C_20  and  N_21
REMARK    8  A    between atoms: C_24  and  C_25
REMARK    9  A    between atoms: C_33  and  C_34
REMARK                            x       y       z     vdW  Elec       q    Type
REMARK                         _______ _______ _______ _____ _____    ______ ____
ROOT
ATOM      1  N   UNL     1       2.096   7.539  19.085  0.00  0.00    +0.000 N 
ATOM      2  C   UNL     1       1.441   7.845  20.333  0.00  0.00    +0.000 C 
ATOM      3  C   UNL     1       0.996   9.238  20.185  0.00  0.00    +0.000 A 
ATOM      4  C   UNL     1       1.359   9.735  18.939  0.00  0.00    +0.000 A 
ATOM      5  C   UNL     1       1.045  11.041  18.591  0.00  0.00    +0.000 A 
ATOM      6  C   UNL     1       0.275  11.804  19.502  0.00  0.00    +0.000 A 
ATOM      7  C   UNL     1      -0.146  11.225  20.723  0.00  0.00    +0.000 A 
ATOM      8  C   UNL     1       0.300   9.980  21.131  0.00  0.00    +0.000 A 
ATOM      9  C   UNL     1       2.101   8.652  18.227  0.00  0.00    +0.000 C 
ATOM     10  O   UNL     1       2.591   8.781  17.122  0.00  0.00    +0.000 OA
ENDROOT
BRANCH   1  15
ATOM     11  C   UNL     1       4.564   4.965  17.931  0.00  0.00    +0.000 A 
ATOM     12  C   UNL     1       3.946   3.804  18.412  0.00  0.00    +0.000 A 
ATOM     13  C   UNL     1       2.748   3.856  19.145  0.00  0.00    +0.000 A 
ATOM     14  C   UNL     1       2.103   5.077  19.402  0.00  0.00    +0.000 A 
ATOM     15  C   UNL     1       2.670   6.252  18.939  0.00  0.00    +0.000 A 
ATOM     16  C   UNL     1       3.898   6.155  18.245  0.00  0.00    +0.000 A 
BRANCH  11  17
ATOM     17  C   UNL     1       5.941   5.016  17.083  0.00  0.00    +0.000 C 
ATOM     18  C   UNL     1       7.223   4.762  17.923  0.00  0.00    +0.000 C 
ATOM     19  O   UNL     1       7.771   6.058  17.619  0.00  0.00    +0.000 OA
ATOM     20  C   UNL     1       6.605   6.413  16.846  0.00  0.00    +0.000 C 
BRANCH  17  21
ATOM     21  C   UNL     1       5.847   4.168  15.784  0.00  0.00    +0.000 C 
BRANCH  21  27
ATOM     22  C   UNL     1       5.644   3.402  12.682  0.00  0.00    +0.000 C 
ATOM     23  N   UNL     1       6.579   4.307  13.313  0.00  0.00    +0.000 N 
ATOM     24  C   UNL     1       7.566   4.964  12.651  0.00  0.00    +0.000 A 
ATOM     25  N   UNL     1       8.269   5.671  13.508  0.00  0.00    +0.000 NA
ATOM     26  N   UNL     1       7.736   5.458  14.749  0.00  0.00    +0.000 NA
ATOM     27  C   UNL     1       6.693   4.655  14.642  0.00  0.00    +0.000 A 
ENDBRANCH  21  27
ENDBRANCH  17  21
ENDBRANCH  11  17
ENDBRANCH   1  15
BRANCH   8  28
ATOM     28  C   UNL     1       0.102   9.512  22.548  0.00  0.00    +0.000 C 
ATOM     29  F   UNL     1      -0.694   8.415  22.666  0.00  0.00    +0.000 F 
ATOM     30  F   UNL     1       1.286   9.167  23.127  0.00  0.00    +0.000 F 
ATOM     31  F   UNL     1      -0.452  10.459  23.348  0.00  0.00    +0.000 F 
ENDBRANCH   8  28
BRANCH   6  32
ATOM     32  C   UNL     1      -0.089  13.253  19.262  0.00  0.00    +0.000 C 
BRANCH  32  33
ATOM     33  N   UNL     1       0.778  14.278  19.865  0.00  0.00    +0.000 NA
ATOM     34  C   UNL     1       0.893  15.522  19.114  0.00  0.00    +0.000 C 
ATOM     35  C   UNL     1       2.207  15.439  18.354  0.00  0.00    +0.000 C 
ATOM     36  C   UNL     1       3.107  14.542  19.211  0.00  0.00    +0.000 C 
ATOM     37  C   UNL     1       2.149  13.887  20.229  0.00  0.00    +0.000 C 
BRANCH  36  38
ATOM     38  C   UNL     1       4.270  15.286  19.849  0.00  0.00    +0.000 A 
ATOM     39  C   UNL     1       4.947  14.781  20.971  0.00  0.00    +0.000 A 
ATOM     40  C   UNL     1       6.017  15.480  21.538  0.00  0.00    +0.000 A 
ATOM     41  C   UNL     1       6.427  16.694  20.995  0.00  0.00    +0.000 A 
ATOM     42  C   UNL     1       5.761  17.213  19.887  0.00  0.00    +0.000 A 
ATOM     43  C   UNL     1       4.692  16.515  19.318  0.00  0.00    +0.000 A 
ENDBRANCH  36  38
ENDBRANCH  32  33
ENDBRANCH   6  32
TORSDOF 8
ENDMDL
MODEL 7
REMARK VINA RESULT:      -9.3      2.348      4.672
REMARK  Name = 
REMARK  9 active torsions:
REMARK  status: ('A' for Active; 'I' for Inactive)
REMARK    1  A    between atoms: C_1  and  N_2
REMARK    2  A    between atoms: C_6  and  C_7
REMARK    3  A    between atoms: C_7  and  C_8
REMARK    4  A    between atoms: C_8  and  C_9
REMARK    5  A    between atoms: C_13  and  N_14
REMARK    6  A    between atoms: C_19  and  C_20
REMARK    7  A    between atoms: C_20  and  N_21
REMARK    8  A    between atoms: C_24  and  C_25
REMARK    9  A    between atoms: C_33  and  C_34
REMARK                            x       y       z     vdW  Elec       q    Type
REMARK                         _______ _______ _______ _____ _____    ______ ____
ROOT
ATOM      1  N   UNL     1       2.167   7.508  19.225  0.00  0.00    +0.000 N 
ATOM      2  C   UNL     1       1.479   7.835  20.449  0.00  0.00    +0.000 C 
ATOM      3  C   UNL     1       0.989   9.206  20.244  0.00  0.00    +0.000 A 
ATOM      4  C   UNL     1       1.359   9.671  18.988  0.00  0.00    +0.000 A 
ATOM      5  C   UNL     1       1.007  10.952  18.589  0.00  0.00    +0.000 A 
ATOM      6  C   UNL     1       0.195  11.719  19.458  0.00  0.00    +0.000 A 
ATOM      7  C   UNL     1      -0.230  11.170  20.691  0.00  0.00    +0.000 A 
ATOM      8  C   UNL     1       0.250   9.955  21.150  0.00  0.00    +0.000 A 
ATOM      9  C   UNL     1       2.150   8.589  18.328  0.00  0.00    +0.000 C 
ATOM     10  O   UNL     1       2.656   8.697  17.228  0.00  0.00    +0.000 OA
ENDROOT
BRANCH   1  15
ATOM     11  C   UNL     1       4.414   4.849  17.839  0.00  0.00    +0.000 A 
ATOM     12  C   UNL     1       4.069   3.779  18.674  0.00  0.00    +0.000 A 
ATOM     13  C   UNL     1       3.135   3.929  19.714  0.00  0.00    +0.000 A 
ATOM     14  C   UNL     1       2.485   5.152  19.941  0.00  0.00    +0.000 A 
ATOM     15  C   UNL     1       2.786   6.237  19.135  0.00  0.00    +0.000 A 
ATOM     16  C   UNL     1       3.764   6.053  18.131  0.00  0.00    +0.000 A 
BRANCH  11  17
ATOM     17  C   UNL     1       5.477   4.786  16.620  0.00  0.00    +0.000 C 
ATOM     18  C   UNL     1       5.184   5.774  15.459  0.00  0.00    +0.000 C 
ATOM     19  O   UNL     1       5.030   4.716  14.495  0.00  0.00    +0.000 OA
ATOM     20  C   UNL     1       5.252   3.710  15.505  0.00  0.00    +0.000 C 
BRANCH  17  21
ATOM     21  C   UNL     1       6.944   4.818  17.135  0.00  0.00    +0.000 C 
BRANCH  21  27
ATOM     22  C   UNL     1       8.151   5.777  19.940  0.00  0.00    +0.000 C 
ATOM     23  N   UNL     1       7.973   6.559  18.737  0.00  0.00    +0.000 N 
ATOM     24  C   UNL     1       8.279   7.878  18.635  0.00  0.00    +0.000 A 
ATOM     25  N   UNL     1       7.962   8.307  17.434  0.00  0.00    +0.000 NA
ATOM     26  N   UNL     1       7.430   7.250  16.749  0.00  0.00    +0.000 NA
ATOM     27  C   UNL     1       7.455   6.177  17.518  0.00  0.00    +0.000 A 
ENDBRANCH  21  27
ENDBRANCH  17  21
ENDBRANCH  11  17
ENDBRANCH   1  15
BRANCH   8  28
ATOM     28  C   UNL     1       0.041   9.531  22.580  0.00  0.00    +0.000 C 
ATOM     29  F   UNL     1      -0.741   8.427  22.724  0.00  0.00    +0.000 F 
ATOM     30  F   UNL     1       1.223   9.221  23.183  0.00  0.00    +0.000 F 
ATOM     31  F   UNL     1      -0.534  10.495  23.342  0.00  0.00    +0.000 F 
ENDBRANCH   8  28
BRANCH   6  32
ATOM     32  C   UNL     1      -0.213  13.146  19.160  0.00  0.00    +0.000 C 
BRANCH  32  33
ATOM     33  N   UNL     1       0.671  14.218  19.643  0.00  0.00    +0.000 NA
ATOM     34  C   UNL     1       1.613  14.743  18.661  0.00  0.00    +0.000 C 
ATOM     35  C   UNL     1       2.945  14.069  18.947  0.00  0.00    +0.000 C 
ATOM     36  C   UNL     1       2.922  13.766  20.449  0.00  0.00    +0.000 C 
ATOM     37  C   UNL     1       1.449  13.965  20.866  0.00  0.00    +0.000 C 
BRANCH  36  38
ATOM     38  C   UNL     1       3.909  14.600  21.250  0.00  0.00    +0.000 A 
ATOM     39  C   UNL     1       4.011  15.991  21.084  0.00  0.00    +0.000 A 
ATOM     40  C   UNL     1       4.923  16.739  21.835  0.00  0.00    +0.000 A 
ATOM     41  C   UNL     1       5.748  16.110  22.762  0.00  0.00    +0.000 A 
ATOM     42  C   UNL     1       5.666  14.730  22.934  0.00  0.00    +0.000 A 
ATOM     43  C   UNL     1       4.754  13.981  22.185  0.00  0.00    +0.000 A 
ENDBRANCH  36  38
ENDBRANCH  32  33
ENDBRANCH   6  32
TORSDOF 8
ENDMDL
MODEL 8
REMARK VINA RESULT:      -9.2      1.530      2.358
REMARK  Name = 
REMARK  9 active torsions:
REMARK  status: ('A' for Active; 'I' for Inactive)
REMARK    1  A    between atoms: C_1  and  N_2
REMARK    2  A    between atoms: C_6  and  C_7
REMARK    3  A    between atoms: C_7  and  C_8
REMARK    4  A    between atoms: C_8  and  C_9
REMARK    5  A    between atoms: C_13  and  N_14
REMARK    6  A    between atoms: C_19  and  C_20
REMARK    7  A    between atoms: C_20  and  N_21
REMARK    8  A    between atoms: C_24  and  C_25
REMARK    9  A    between atoms: C_33  and  C_34
REMARK                            x       y       z     vdW  Elec       q    Type
REMARK                         _______ _______ _______ _____ _____    ______ ____
ROOT
ATOM      1  N   UNL     1       2.017   7.869  18.836  0.00  0.00    +0.000 N 
ATOM      2  C   UNL     1       1.448   7.965  20.157  0.00  0.00    +0.000 C 
ATOM      3  C   UNL     1       1.022   9.367  20.276  0.00  0.00    +0.000 A 
ATOM      4  C   UNL     1       1.317  10.065  19.111  0.00  0.00    +0.000 A 
ATOM      5  C   UNL     1       1.007  11.413  19.010  0.00  0.00    +0.000 A 
ATOM      6  C   UNL     1       0.311  12.017  20.085  0.00  0.00    +0.000 A 
ATOM      7  C   UNL     1      -0.044  11.244  21.215  0.00  0.00    +0.000 A 
ATOM      8  C   UNL     1       0.401   9.943  21.377  0.00  0.00    +0.000 A 
ATOM      9  C   UNL     1       1.991   9.111  18.180  0.00  0.00    +0.000 C 
ATOM     10  O   UNL     1       2.414   9.422  17.083  0.00  0.00    +0.000 OA
ENDROOT
BRANCH   1  15
ATOM     11  C   UNL     1       4.638   5.428  17.732  0.00  0.00    +0.000 A 
ATOM     12  C   UNL     1       3.842   4.295  17.525  0.00  0.00    +0.000 A 
ATOM     13  C   UNL     1       2.460   4.309  17.780  0.00  0.00    +0.000 A 
ATOM     14  C   UNL     1       1.812   5.472  18.226  0.00  0.00    +0.000 A 
ATOM     15  C   UNL     1       2.555   6.621  18.437  0.00  0.00    +0.000 A 
ATOM     16  C   UNL     1       3.948   6.548  18.211  0.00  0.00    +0.000 A 
BRANCH  11  17
ATOM     17  C   UNL     1       6.233   5.517  17.476  0.00  0.00    +0.000 C 
ATOM     18  C   UNL     1       7.081   5.726  18.760  0.00  0.00    +0.000 C 
ATOM     19  O   UNL     1       7.612   6.981  18.298  0.00  0.00    +0.000 OA
ATOM     20  C   UNL     1       6.837   6.907  17.083  0.00  0.00    +0.000 C 
BRANCH  17  21
ATOM     21  C   UNL     1       6.732   4.366  16.558  0.00  0.00    +0.000 C 
BRANCH  21  27
ATOM     22  C   UNL     1       5.245   3.574  13.836  0.00  0.00    +0.000 C 
ATOM     23  N   UNL     1       6.410   4.415  13.999  0.00  0.00    +0.000 N 
ATOM     24  C   UNL     1       7.084   4.988  12.968  0.00  0.00    +0.000 A 
ATOM     25  N   UNL     1       8.116   5.652  13.438  0.00  0.00    +0.000 NA
ATOM     26  N   UNL     1       8.118   5.497  14.797  0.00  0.00    +0.000 NA
ATOM     27  C   UNL     1       7.073   4.772  15.153  0.00  0.00    +0.000 A 
ENDBRANCH  21  27
ENDBRANCH  17  21
ENDBRANCH  11  17
ENDBRANCH   1  15
BRANCH   8  28
ATOM     28  C   UNL     1       0.282   9.243  22.705  0.00  0.00    +0.000 C 
ATOM     29  F   UNL     1       1.472   8.843  23.230  0.00  0.00    +0.000 F 
ATOM     30  F   UNL     1      -0.276  10.055  23.645  0.00  0.00    +0.000 F 
ATOM     31  F   UNL     1      -0.493   8.131  22.652  0.00  0.00    +0.000 F 
ENDBRANCH   8  28
BRANCH   6  32
ATOM     32  C   UNL     1      -0.038  13.490  20.118  0.00  0.00    +0.000 C 
BRANCH  32  33
ATOM     33  N   UNL     1      -1.404  13.870  19.725  0.00  0.00    +0.000 NA
ATOM     34  C   UNL     1      -2.241  14.395  20.797  0.00  0.00    +0.000 C 
ATOM     35  C   UNL     1      -3.127  13.244  21.246  0.00  0.00    +0.000 C 
ATOM     36  C   UNL     1      -3.292  12.362  20.005  0.00  0.00    +0.000 C 
ATOM     37  C   UNL     1      -2.217  12.868  19.019  0.00  0.00    +0.000 C 
BRANCH  36  38
ATOM     38  C   UNL     1      -4.704  12.373  19.438  0.00  0.00    +0.000 A 
ATOM     39  C   UNL     1      -5.615  13.399  19.737  0.00  0.00    +0.000 A 
ATOM     40  C   UNL     1      -6.906  13.391  19.202  0.00  0.00    +0.000 A 
ATOM     41  C   UNL     1      -7.308  12.358  18.361  0.00  0.00    +0.000 A 
ATOM     42  C   UNL     1      -6.421  11.327  18.060  0.00  0.00    +0.000 A 
ATOM     43  C   UNL     1      -5.128  11.334  18.594  0.00  0.00    +0.000 A 
ENDBRANCH  36  38
ENDBRANCH  32  33
ENDBRANCH   6  32
TORSDOF 8
ENDMDL
MODEL 9
REMARK VINA RESULT:      -9.2      2.596      4.978
REMARK  Name = 
REMARK  9 active torsions:
REMARK  status: ('A' for Active; 'I' for Inactive)
REMARK    1  A    between atoms: C_1  and  N_2
REMARK    2  A    between atoms: C_6  and  C_7
REMARK    3  A    between atoms: C_7  and  C_8
REMARK    4  A    between atoms: C_8  and  C_9
REMARK    5  A    between atoms: C_13  and  N_14
REMARK    6  A    between atoms: C_19  and  C_20
REMARK    7  A    between atoms: C_20  and  N_21
REMARK    8  A    between atoms: C_24  and  C_25
REMARK    9  A    between atoms: C_33  and  C_34
REMARK                            x       y       z     vdW  Elec       q    Type
REMARK                         _______ _______ _______ _____ _____    ______ ____
ROOT
ATOM      1  N   UNL     1       1.968   7.729  19.493  0.00  0.00    +0.000 N 
ATOM      2  C   UNL     1       1.242   8.028  20.702  0.00  0.00    +0.000 C 
ATOM      3  C   UNL     1       0.642   9.348  20.456  0.00  0.00    +0.000 A 
ATOM      4  C   UNL     1       0.986   9.810  19.191  0.00  0.00    +0.000 A 
ATOM      5  C   UNL     1       0.533  11.046  18.755  0.00  0.00    +0.000 A 
ATOM      6  C   UNL     1      -0.350  11.765  19.596  0.00  0.00    +0.000 A 
ATOM      7  C   UNL     1      -0.741  11.214  20.840  0.00  0.00    +0.000 A 
ATOM      8  C   UNL     1      -0.167  10.056  21.336  0.00  0.00    +0.000 A 
ATOM      9  C   UNL     1       1.872   8.782  18.568  0.00  0.00    +0.000 C 
ATOM     10  O   UNL     1       2.380   8.903  17.470  0.00  0.00    +0.000 OA
ENDROOT
BRANCH   1  15
ATOM     11  C   UNL     1       4.829   5.440  18.706  0.00  0.00    +0.000 A 
ATOM     12  C   UNL     1       4.285   4.219  19.123  0.00  0.00    +0.000 A 
ATOM     13  C   UNL     1       3.004   4.141  19.697  0.00  0.00    +0.000 A 
ATOM     14  C   UNL     1       2.202   5.283  19.848  0.00  0.00    +0.000 A 
ATOM     15  C   UNL     1       2.693   6.512  19.442  0.00  0.00    +0.000 A 
ATOM     16  C   UNL     1       4.003   6.550  18.913  0.00  0.00    +0.000 A 
BRANCH  11  17
ATOM     17  C   UNL     1       6.291   5.640  18.040  0.00  0.00    +0.000 C 
ATOM     18  C   UNL     1       7.170   4.360  18.022  0.00  0.00    +0.000 C 
ATOM     19  O   UNL     1       8.196   4.960  18.834  0.00  0.00    +0.000 OA
ATOM     20  C   UNL     1       7.442   6.186  18.949  0.00  0.00    +0.000 C 
BRANCH  17  21
ATOM     21  C   UNL     1       6.204   6.378  16.675  0.00  0.00    +0.000 C 
BRANCH  21  27
ATOM     22  C   UNL     1       4.316   4.030  15.592  0.00  0.00    +0.000 C 
ATOM     23  N   UNL     1       5.559   4.504  15.024  0.00  0.00    +0.000 N 
ATOM     24  C   UNL     1       6.139   3.972  13.917  0.00  0.00    +0.000 A 
ATOM     25  N   UNL     1       7.276   4.590  13.683  0.00  0.00    +0.000 NA
ATOM     26  N   UNL     1       7.440   5.530  14.662  0.00  0.00    +0.000 NA
ATOM     27  C   UNL     1       6.393   5.508  15.466  0.00  0.00    +0.000 A 
ENDBRANCH  21  27
ENDBRANCH  17  21
ENDBRANCH  11  17
ENDBRANCH   1  15
BRANCH   8  28
ATOM     28  C   UNL     1      -0.355   9.653  22.774  0.00  0.00    +0.000 C 
ATOM     29  F   UNL     1      -1.155  10.492  23.486  0.00  0.00    +0.000 F 
ATOM     30  F   UNL     1      -0.937   8.425  22.873  0.00  0.00    +0.000 F 
ATOM     31  F   UNL     1       0.811   9.579  23.463  0.00  0.00    +0.000 F 
ENDBRANCH   8  28
BRANCH   6  32
ATOM     32  C   UNL     1      -0.873  13.145  19.257  0.00  0.00    +0.000 C 
BRANCH  32  33
ATOM     33  N   UNL     1      -0.072  14.298  19.695  0.00  0.00    +0.000 NA
ATOM     34  C   UNL     1       0.595  15.038  18.630  0.00  0.00    +0.000 C 
ATOM     35  C   UNL     1       2.037  14.558  18.617  0.00  0.00    +0.000 C 
ATOM     36  C   UNL     1       2.328  14.136  20.062  0.00  0.00    +0.000 C 
ATOM     37  C   UNL     1       0.942  14.072  20.737  0.00  0.00    +0.000 C 
BRANCH  36  38
ATOM     38  C   UNL     1       3.319  15.046  20.770  0.00  0.00    +0.000 A 
ATOM     39  C   UNL     1       3.561  14.949  22.150  0.00  0.00    +0.000 A 
ATOM     40  C   UNL     1       4.479  15.794  22.779  0.00  0.00    +0.000 A 
ATOM     41  C   UNL     1       5.169  16.751  22.041  0.00  0.00    +0.000 A 
ATOM     42  C   UNL     1       4.936  16.868  20.673  0.00  0.00    +0.000 A 
ATOM     43  C   UNL     1       4.018  16.022  20.042  0.00  0.00    +0.000 A 
ENDBRANCH  36  38
ENDBRANCH  32  33
ENDBRANCH   6  32
TORSDOF 8
ENDMDL
