MODEL 1
REMARK VINA RESULT:      -8.4      0.000      0.000
REMARK  Name = 
REMARK  6 active torsions:
REMARK  status: ('A' for Active; 'I' for Inactive)
REMARK    1  A    between atoms: C_1  and  C_2
REMARK    2  A    between atoms: C_2  and  C_3
REMARK    3  A    between atoms: C_2  and  C_10
REMARK    4  A    between atoms: C_3  and  C_4
REMARK    5  A    between atoms: N_8  and  C_9
REMARK    6  A    between atoms: C_14  and  C_15
REMARK                            x       y       z     vdW  Elec       q    Type
REMARK                         _______ _______ _______ _____ _____    ______ ____
ROOT
ATOM      1  C   UNL     1       2.411   7.572  18.889  0.00  0.00    +0.000 A 
ATOM      2  C   UNL     1       2.410   8.451  17.792  0.00  0.00    +0.000 A 
ATOM      3  C   UNL     1       1.727   9.665  17.837  0.00  0.00    +0.000 A 
ATOM      4  C   UNL     1       1.031  10.031  18.983  0.00  0.00    +0.000 A 
ATOM      5  C   UNL     1       1.014   9.192  20.103  0.00  0.00    +0.000 A 
ATOM      6  C   UNL     1       1.698   7.963  20.041  0.00  0.00    +0.000 A 
ENDROOT
BRANCH   5   7
ATOM      7  C   UNL     1       0.318   9.612  21.324  0.00  0.00    +0.000 A 
ATOM      8  N   UNL     1       0.534   9.007  22.511  0.00  0.00    +0.000 NA
ATOM      9  N   UNL     1      -0.273   9.661  23.366  0.00  0.00    +0.000 N 
ATOM     10  C   UNL     1      -0.993  10.674  22.805  0.00  0.00    +0.000 A 
ATOM     11  C   UNL     1      -1.911  11.589  23.323  0.00  0.00    +0.000 A 
ATOM     12  C   UNL     1      -2.436  12.497  22.406  0.00  0.00    +0.000 A 
ATOM     13  C   UNL     1      -2.032  12.435  21.079  0.00  0.00    +0.000 A 
ATOM     14  N   UNL     1      -1.151  11.552  20.568  0.00  0.00    +0.000 NA
ATOM     15  C   UNL     1      -0.636  10.670  21.465  0.00  0.00    +0.000 A 
ATOM     16  H   UNL     1      -0.279   9.363  24.334  0.00  0.00    +0.000 HD
ENDBRANCH   5   7
BRANCH   1  18
ATOM     17  C   UNL     1       4.319   6.220  17.833  0.00  0.00    +0.000 C 
ATOM     18  C   UNL     1       3.184   6.243  18.876  0.00  0.00    +0.000 C 
BRANCH  18  19
ATOM     19  C   UNL     1       2.217   5.047  18.683  0.00  0.00    +0.000 C 
BRANCH  19  20
ATOM     20  C   UNL     1       2.028   4.213  19.912  0.00  0.00    +0.000 A 
ATOM     21  N   UNL     1       2.419   4.500  21.139  0.00  0.00    +0.000 NA
ATOM     22  N   UNL     1       2.129   3.428  21.950  0.00  0.00    +0.000 NA
ATOM     23  C   UNL     1       1.532   2.525  21.211  0.00  0.00    +0.000 A 
ATOM     24  N   UNL     1       1.412   2.986  19.938  0.00  0.00    +0.000 N 
ATOM     25  C   UNL     1       0.746   2.316  18.854  0.00  0.00    +0.000 C 
ENDBRANCH  19  20
ENDBRANCH  18  19
ENDBRANCH   1  18
TORSDOF 4
ENDMDL
MODEL 2
REMARK VINA RESULT:      -8.4      3.408      5.599
REMARK  Name = 
REMARK  6 active torsions:
REMARK  status: ('A' for Active; 'I' for Inactive)
REMARK    1  A    between atoms: C_1  and  C_2
REMARK    2  A    between atoms: C_2  and  C_3
REMARK    3  A    between atoms: C_2  and  C_10
REMARK    4  A    between atoms: C_3  and  C_4
REMARK    5  A    between atoms: N_8  and  C_9
REMARK    6  A    between atoms: C_14  and  C_15
REMARK                            x       y       z     vdW  Elec       q    Type
REMARK                         _______ _______ _______ _____ _____    ______ ____
ROOT
ATOM      1  C   UNL     1       4.305   4.747  16.936  0.00  0.00    +0.000 A 
ATOM      2  C   UNL     1       3.585   3.540  16.891  0.00  0.00    +0.000 A 
ATOM      3  C   UNL     1       2.442   3.348  17.667  0.00  0.00    +0.000 A 
ATOM      4  C   UNL     1       1.991   4.360  18.504  0.00  0.00    +0.000 A 
ATOM      5  C   UNL     1       2.669   5.583  18.572  0.00  0.00    +0.000 A 
ATOM      6  C   UNL     1       3.829   5.760  17.793  0.00  0.00    +0.000 A 
ENDROOT
BRANCH   5   7
ATOM      7  C   UNL     1       2.154   6.662  19.422  0.00  0.00    +0.000 A 
ATOM      8  N   UNL     1       1.887   6.472  20.731  0.00  0.00    +0.000 NA
ATOM      9  N   UNL     1       1.441   7.668  21.153  0.00  0.00    +0.000 N 
ATOM     10  C   UNL     1       1.417   8.638  20.193  0.00  0.00    +0.000 A 
ATOM     11  C   UNL     1       1.050   9.984  20.209  0.00  0.00    +0.000 A 
ATOM     12  C   UNL     1       1.180  10.655  18.995  0.00  0.00    +0.000 A 
ATOM     13  C   UNL     1       1.645   9.967  17.883  0.00  0.00    +0.000 A 
ATOM     14  N   UNL     1       1.996   8.666  17.856  0.00  0.00    +0.000 NA
ATOM     15  C   UNL     1       1.873   8.014  19.042  0.00  0.00    +0.000 A 
ATOM     16  H   UNL     1       1.169   7.758  22.125  0.00  0.00    +0.000 HD
ENDBRANCH   5   7
BRANCH   1  18
ATOM     17  C   UNL     1       5.635   4.038  14.860  0.00  0.00    +0.000 C 
ATOM     18  C   UNL     1       5.547   4.995  16.065  0.00  0.00    +0.000 C 
BRANCH  18  19
ATOM     19  C   UNL     1       6.838   4.942  16.923  0.00  0.00    +0.000 C 
BRANCH  19  20
ATOM     20  C   UNL     1       7.316   6.283  17.388  0.00  0.00    +0.000 A 
ATOM     21  N   UNL     1       7.268   7.421  16.723  0.00  0.00    +0.000 NA
ATOM     22  N   UNL     1       7.893   8.389  17.473  0.00  0.00    +0.000 NA
ATOM     23  C   UNL     1       8.273   7.833  18.597  0.00  0.00    +0.000 A 
ATOM     24  N   UNL     1       7.901   6.525  18.605  0.00  0.00    +0.000 N 
ATOM     25  C   UNL     1       8.073   5.603  19.695  0.00  0.00    +0.000 C 
ENDBRANCH  19  20
ENDBRANCH  18  19
ENDBRANCH   1  18
TORSDOF 4
ENDMDL
MODEL 3
REMARK VINA RESULT:      -8.3      3.207      5.640
REMARK  Name = 
REMARK  6 active torsions:
REMARK  status: ('A' for Active; 'I' for Inactive)
REMARK    1  A    between atoms: C_1  and  C_2
REMARK    2  A    between atoms: C_2  and  C_3
REMARK    3  A    between atoms: C_2  and  C_10
REMARK    4  A    between atoms: C_3  and  C_4
REMARK    5  A    between atoms: N_8  and  C_9
REMARK    6  A    between atoms: C_14  and  C_15
REMARK                            x       y       z     vdW  Elec       q    Type
REMARK                         _______ _______ _______ _____ _____    ______ ____
ROOT
ATOM      1  C   UNL     1       4.763   4.751  16.665  0.00  0.00    +0.000 A 
ATOM      2  C   UNL     1       4.420   3.401  16.853  0.00  0.00    +0.000 A 
ATOM      3  C   UNL     1       3.502   3.015  17.829  0.00  0.00    +0.000 A 
ATOM      4  C   UNL     1       2.902   3.972  18.638  0.00  0.00    +0.000 A 
ATOM      5  C   UNL     1       3.205   5.330  18.478  0.00  0.00    +0.000 A 
ATOM      6  C   UNL     1       4.143   5.705  17.498  0.00  0.00    +0.000 A 
ENDROOT
BRANCH   5   7
ATOM      7  C   UNL     1       2.527   6.335  19.304  0.00  0.00    +0.000 A 
ATOM      8  N   UNL     1       2.172   6.084  20.582  0.00  0.00    +0.000 NA
ATOM      9  N   UNL     1       1.587   7.225  20.990  0.00  0.00    +0.000 N 
ATOM     10  C   UNL     1       1.556   8.216  20.052  0.00  0.00    +0.000 A 
ATOM     11  C   UNL     1       1.070   9.524  20.066  0.00  0.00    +0.000 A 
ATOM     12  C   UNL     1       1.238  10.238  18.882  0.00  0.00    +0.000 A 
ATOM     13  C   UNL     1       1.853   9.626  17.798  0.00  0.00    +0.000 A 
ATOM     14  N   UNL     1       2.319   8.361  17.774  0.00  0.00    +0.000 NA
ATOM     15  C   UNL     1       2.159   7.667  18.931  0.00  0.00    +0.000 A 
ATOM     16  H   UNL     1       1.230   7.262  21.938  0.00  0.00    +0.000 HD
ENDBRANCH   5   7
BRANCH   1  18
ATOM     17  C   UNL     1       5.419   4.614  14.188  0.00  0.00    +0.000 C 
ATOM     18  C   UNL     1       5.747   5.204  15.574  0.00  0.00    +0.000 C 
BRANCH  18  19
ATOM     19  C   UNL     1       7.209   4.891  15.989  0.00  0.00    +0.000 C 
BRANCH  19  20
ATOM     20  C   UNL     1       7.526   5.239  17.410  0.00  0.00    +0.000 A 
ATOM     21  N   UNL     1       7.757   4.402  18.403  0.00  0.00    +0.000 NA
ATOM     22  N   UNL     1       7.916   5.130  19.558  0.00  0.00    +0.000 NA
ATOM     23  C   UNL     1       7.820   6.399  19.241  0.00  0.00    +0.000 A 
ATOM     24  N   UNL     1       7.613   6.517  17.902  0.00  0.00    +0.000 N 
ATOM     25  C   UNL     1       7.531   7.748  17.164  0.00  0.00    +0.000 C 
ENDBRANCH  19  20
ENDBRANCH  18  19
ENDBRANCH   1  18
TORSDOF 4
ENDMDL
MODEL 4
REMARK VINA RESULT:      -8.3      4.407      8.800
REMARK  Name = 
REMARK  6 active torsions:
REMARK  status: ('A' for Active; 'I' for Inactive)
REMARK    1  A    between atoms: C_1  and  C_2
REMARK    2  A    between atoms: C_2  and  C_3
REMARK    3  A    between atoms: C_2  and  C_10
REMARK    4  A    between atoms: C_3  and  C_4
REMARK    5  A    between atoms: N_8  and  C_9
REMARK    6  A    between atoms: C_14  and  C_15
REMARK                            x       y       z     vdW  Elec       q    Type
REMARK                         _______ _______ _______ _____ _____    ______ ____
ROOT
ATOM      1  C   UNL     1       4.059   5.796  18.078  0.00  0.00    +0.000 A 
ATOM      2  C   UNL     1       4.791   5.428  19.220  0.00  0.00    +0.000 A 
ATOM      3  C   UNL     1       6.107   4.975  19.123  0.00  0.00    +0.000 A 
ATOM      4  C   UNL     1       6.722   4.883  17.880  0.00  0.00    +0.000 A 
ATOM      5  C   UNL     1       6.034   5.250  16.717  0.00  0.00    +0.000 A 
ATOM      6  C   UNL     1       4.702   5.694  16.828  0.00  0.00    +0.000 A 
ENDROOT
BRANCH   5   7
ATOM      7  C   UNL     1       6.711   5.197  15.417  0.00  0.00    +0.000 A 
ATOM      8  N   UNL     1       7.883   5.830  15.198  0.00  0.00    +0.000 NA
ATOM      9  N   UNL     1       8.172   5.551  13.914  0.00  0.00    +0.000 N 
ATOM     10  C   UNL     1       7.260   4.754  13.286  0.00  0.00    +0.000 A 
ATOM     11  C   UNL     1       7.187   4.227  11.996  0.00  0.00    +0.000 A 
ATOM     12  C   UNL     1       6.073   3.432  11.736  0.00  0.00    +0.000 A 
ATOM     13  C   UNL     1       5.135   3.225  12.738  0.00  0.00    +0.000 A 
ATOM     14  N   UNL     1       5.194   3.735  13.985  0.00  0.00    +0.000 NA
ATOM     15  C   UNL     1       6.284   4.505  14.238  0.00  0.00    +0.000 A 
ATOM     16  H   UNL     1       9.024   5.938  13.525  0.00  0.00    +0.000 HD
ENDBRANCH   5   7
BRANCH   1  18
ATOM     17  C   UNL     1       2.553   7.868  18.226  0.00  0.00    +0.000 C 
ATOM     18  C   UNL     1       2.619   6.329  18.163  0.00  0.00    +0.000 C 
BRANCH  18  19
ATOM     19  C   UNL     1       1.863   5.682  19.352  0.00  0.00    +0.000 C 
BRANCH  19  20
ATOM     20  C   UNL     1       1.568   4.226  19.167  0.00  0.00    +0.000 A 
ATOM     21  N   UNL     1       1.179   3.626  18.059  0.00  0.00    +0.000 NA
ATOM     22  N   UNL     1       0.931   2.304  18.344  0.00  0.00    +0.000 NA
ATOM     23  C   UNL     1       1.212   2.114  19.610  0.00  0.00    +0.000 A 
ATOM     24  N   UNL     1       1.649   3.279  20.158  0.00  0.00    +0.000 N 
ATOM     25  C   UNL     1       2.124   3.457  21.503  0.00  0.00    +0.000 C 
ENDBRANCH  19  20
ENDBRANCH  18  19
ENDBRANCH   1  18
TORSDOF 4
ENDMDL
MODEL 5
REMARK VINA RESULT:      -8.3      3.486      5.452
REMARK  Name = 
REMARK  6 active torsions:
REMARK  status: ('A' for Active; 'I' for Inactive)
REMARK    1  A    between atoms: C_1  and  C_2
REMARK    2  A    between atoms: C_2  and  C_3
REMARK    3  A    between atoms: C_2  and  C_10
REMARK    4  A    between atoms: C_3  and  C_4
REMARK    5  A    between atoms: N_8  and  C_9
REMARK    6  A    between atoms: C_14  and  C_15
REMARK                            x       y       z     vdW  Elec       q    Type
REMARK                         _______ _______ _______ _____ _____    ______ ____
ROOT
ATOM      1  C   UNL     1       4.476   5.547  16.996  0.00  0.00    +0.000 A 
ATOM      2  C   UNL     1       3.943   4.412  17.633  0.00  0.00    +0.000 A 
ATOM      3  C   UNL     1       2.859   4.513  18.505  0.00  0.00    +0.000 A 
ATOM      4  C   UNL     1       2.281   5.751  18.758  0.00  0.00    +0.000 A 
ATOM      5  C   UNL     1       2.772   6.905  18.137  0.00  0.00    +0.000 A 
ATOM      6  C   UNL     1       3.874   6.792  17.268  0.00  0.00    +0.000 A 
ENDROOT
BRANCH   5   7
ATOM      7  C   UNL     1       2.121   8.199  18.373  0.00  0.00    +0.000 A 
ATOM      8  N   UNL     1       1.976   9.112  17.390  0.00  0.00    +0.000 NA
ATOM      9  N   UNL     1       1.348  10.141  17.987  0.00  0.00    +0.000 N 
ATOM     10  C   UNL     1       1.059   9.943  19.306  0.00  0.00    +0.000 A 
ATOM     11  C   UNL     1       0.419  10.725  20.268  0.00  0.00    +0.000 A 
ATOM     12  C   UNL     1       0.309  10.151  21.532  0.00  0.00    +0.000 A 
ATOM     13  C   UNL     1       0.828   8.882  21.751  0.00  0.00    +0.000 A 
ATOM     14  N   UNL     1       1.453   8.121  20.830  0.00  0.00    +0.000 NA
ATOM     15  C   UNL     1       1.555   8.681  19.596  0.00  0.00    +0.000 A 
ATOM     16  H   UNL     1       1.139  10.959  17.427  0.00  0.00    +0.000 HD
ENDBRANCH   5   7
BRANCH   1  18
ATOM     17  C   UNL     1       5.461   4.344  14.956  0.00  0.00    +0.000 C 
ATOM     18  C   UNL     1       5.648   5.457  16.006  0.00  0.00    +0.000 C 
BRANCH  18  19
ATOM     19  C   UNL     1       6.994   5.301  16.760  0.00  0.00    +0.000 C 
BRANCH  19  20
ATOM     20  C   UNL     1       7.477   6.560  17.410  0.00  0.00    +0.000 A 
ATOM     21  N   UNL     1       7.491   7.772  16.890  0.00  0.00    +0.000 NA
ATOM     22  N   UNL     1       8.097   8.622  17.784  0.00  0.00    +0.000 NA
ATOM     23  C   UNL     1       8.405   7.922  18.848  0.00  0.00    +0.000 A 
ATOM     24  N   UNL     1       8.004   6.634  18.676  0.00  0.00    +0.000 N 
ATOM     25  C   UNL     1       8.097   5.580  19.650  0.00  0.00    +0.000 C 
ENDBRANCH  19  20
ENDBRANCH  18  19
ENDBRANCH   1  18
TORSDOF 4
ENDMDL
MODEL 6
REMARK VINA RESULT:      -8.3      4.252      8.731
REMARK  Name = 
REMARK  6 active torsions:
REMARK  status: ('A' for Active; 'I' for Inactive)
REMARK    1  A    between atoms: C_1  and  C_2
REMARK    2  A    between atoms: C_2  and  C_3
REMARK    3  A    between atoms: C_2  and  C_10
REMARK    4  A    between atoms: C_3  and  C_4
REMARK    5  A    between atoms: N_8  and  C_9
REMARK    6  A    between atoms: C_14  and  C_15
REMARK                            x       y       z     vdW  Elec       q    Type
REMARK                         _______ _______ _______ _____ _____    ______ ____
ROOT
ATOM      1  C   UNL     1       4.063   5.680  18.118  0.00  0.00    +0.000 A 
ATOM      2  C   UNL     1       4.835   5.402  19.260  0.00  0.00    +0.000 A 
ATOM      3  C   UNL     1       6.177   5.039  19.157  0.00  0.00    +0.000 A 
ATOM      4  C   UNL     1       6.781   4.951  17.908  0.00  0.00    +0.000 A 
ATOM      5  C   UNL     1       6.054   5.231  16.745  0.00  0.00    +0.000 A 
ATOM      6  C   UNL     1       4.696   5.583  16.862  0.00  0.00    +0.000 A 
ENDROOT
BRANCH   5   7
ATOM      7  C   UNL     1       6.716   5.183  15.437  0.00  0.00    +0.000 A 
ATOM      8  N   UNL     1       7.886   5.816  15.207  0.00  0.00    +0.000 NA
ATOM      9  N   UNL     1       8.160   5.542  13.919  0.00  0.00    +0.000 N 
ATOM     10  C   UNL     1       7.240   4.749  13.298  0.00  0.00    +0.000 A 
ATOM     11  C   UNL     1       7.152   4.228  12.006  0.00  0.00    +0.000 A 
ATOM     12  C   UNL     1       6.034   3.435  11.755  0.00  0.00    +0.000 A 
ATOM     13  C   UNL     1       5.108   3.224  12.768  0.00  0.00    +0.000 A 
ATOM     14  N   UNL     1       5.182   3.728  14.015  0.00  0.00    +0.000 NA
ATOM     15  C   UNL     1       6.275   4.497  14.260  0.00  0.00    +0.000 A 
ATOM     16  H   UNL     1       9.008   5.931  13.522  0.00  0.00    +0.000 HD
ENDBRANCH   5   7
BRANCH   1  18
ATOM     17  C   UNL     1       2.260   6.842  19.526  0.00  0.00    +0.000 C 
ATOM     18  C   UNL     1       2.591   6.114  18.209  0.00  0.00    +0.000 C 
BRANCH  18  19
ATOM     19  C   UNL     1       1.647   4.905  17.979  0.00  0.00    +0.000 C 
BRANCH  19  20
ATOM     20  C   UNL     1       1.579   3.957  19.137  0.00  0.00    +0.000 A 
ATOM     21  N   UNL     1       0.885   4.105  20.248  0.00  0.00    +0.000 NA
ATOM     22  N   UNL     1       1.174   3.052  21.085  0.00  0.00    +0.000 NA
ATOM     23  C   UNL     1       2.007   2.262  20.451  0.00  0.00    +0.000 A 
ATOM     24  N   UNL     1       2.261   2.768  19.215  0.00  0.00    +0.000 N 
ATOM     25  C   UNL     1       3.066   2.150  18.196  0.00  0.00    +0.000 C 
ENDBRANCH  19  20
ENDBRANCH  18  19
ENDBRANCH   1  18
TORSDOF 4
ENDMDL
MODEL 7
REMARK VINA RESULT:      -8.0      2.537      4.363
REMARK  Name = 
REMARK  6 active torsions:
REMARK  status: ('A' for Active; 'I' for Inactive)
REMARK    1  A    between atoms: C_1  and  C_2
REMARK    2  A    between atoms: C_2  and  C_3
REMARK    3  A    between atoms: C_2  and  C_10
REMARK    4  A    between atoms: C_3  and  C_4
REMARK    5  A    between atoms: N_8  and  C_9
REMARK    6  A    between atoms: C_14  and  C_15
REMARK                            x       y       z     vdW  Elec       q    Type
REMARK                         _______ _______ _______ _____ _____    ______ ____
ROOT
ATOM      1  C   UNL     1       2.541   4.734  18.446  0.00  0.00    +0.000 A 
ATOM      2  C   UNL     1       2.327   4.354  19.782  0.00  0.00    +0.000 A 
ATOM      3  C   UNL     1       1.980   5.291  20.756  0.00  0.00    +0.000 A 
ATOM      4  C   UNL     1       1.837   6.630  20.414  0.00  0.00    +0.000 A 
ATOM      5  C   UNL     1       2.029   7.052  19.093  0.00  0.00    +0.000 A 
ATOM      6  C   UNL     1       2.391   6.098  18.122  0.00  0.00    +0.000 A 
ENDROOT
BRANCH   5   7
ATOM      7  C   UNL     1       1.824   8.459  18.735  0.00  0.00    +0.000 A 
ATOM      8  N   UNL     1       2.333   8.987  17.602  0.00  0.00    +0.000 NA
ATOM      9  N   UNL     1       1.939  10.273  17.632  0.00  0.00    +0.000 N 
ATOM     10  C   UNL     1       1.185  10.611  18.717  0.00  0.00    +0.000 A 
ATOM     11  C   UNL     1       0.576  11.801  19.119  0.00  0.00    +0.000 A 
ATOM     12  C   UNL     1      -0.133  11.737  20.316  0.00  0.00    +0.000 A 
ATOM     13  C   UNL     1      -0.185  10.538  21.014  0.00  0.00    +0.000 A 
ATOM     14  N   UNL     1       0.404   9.386  20.637  0.00  0.00    +0.000 NA
ATOM     15  C   UNL     1       1.091   9.449  19.467  0.00  0.00    +0.000 A 
ATOM     16  H   UNL     1       2.221  10.874  16.866  0.00  0.00    +0.000 HD
ENDBRANCH   5   7
BRANCH   1  18
ATOM     17  C   UNL     1       2.726   2.255  17.813  0.00  0.00    +0.000 C 
ATOM     18  C   UNL     1       2.891   3.716  17.349  0.00  0.00    +0.000 C 
BRANCH  18  19
ATOM     19  C   UNL     1       4.316   3.974  16.794  0.00  0.00    +0.000 C 
BRANCH  19  20
ATOM     20  C   UNL     1       5.279   4.506  17.810  0.00  0.00    +0.000 A 
ATOM     21  N   UNL     1       5.696   3.902  18.906  0.00  0.00    +0.000 NA
ATOM     22  N   UNL     1       6.501   4.772  19.603  0.00  0.00    +0.000 NA
ATOM     23  C   UNL     1       6.591   5.874  18.900  0.00  0.00    +0.000 A 
ATOM     24  N   UNL     1       5.874   5.742  17.753  0.00  0.00    +0.000 N 
ATOM     25  C   UNL     1       5.790   6.706  16.690  0.00  0.00    +0.000 C 
ENDBRANCH  19  20
ENDBRANCH  18  19
ENDBRANCH   1  18
TORSDOF 4
ENDMDL
MODEL 8
REMARK VINA RESULT:      -7.9      3.128      5.107
REMARK  Name = 
REMARK  6 active torsions:
REMARK  status: ('A' for Active; 'I' for Inactive)
REMARK    1  A    between atoms: C_1  and  C_2
REMARK    2  A    between atoms: C_2  and  C_3
REMARK    3  A    between atoms: C_2  and  C_10
REMARK    4  A    between atoms: C_3  and  C_4
REMARK    5  A    between atoms: N_8  and  C_9
REMARK    6  A    between atoms: C_14  and  C_15
REMARK                            x       y       z     vdW  Elec       q    Type
REMARK                         _______ _______ _______ _____ _____    ______ ____
ROOT
ATOM      1  C   UNL     1       4.230   5.439  17.285  0.00  0.00    +0.000 A 
ATOM      2  C   UNL     1       3.969   4.515  18.311  0.00  0.00    +0.000 A 
ATOM      3  C   UNL     1       3.148   4.843  19.390  0.00  0.00    +0.000 A 
ATOM      4  C   UNL     1       2.567   6.103  19.466  0.00  0.00    +0.000 A 
ATOM      5  C   UNL     1       2.791   7.050  18.460  0.00  0.00    +0.000 A 
ATOM      6  C   UNL     1       3.631   6.711  17.383  0.00  0.00    +0.000 A 
ENDROOT
BRANCH   5   7
ATOM      7  C   UNL     1       2.131   8.359  18.525  0.00  0.00    +0.000 A 
ATOM      8  N   UNL     1       2.100   9.194  17.466  0.00  0.00    +0.000 NA
ATOM      9  N   UNL     1       1.423  10.267  17.913  0.00  0.00    +0.000 N 
ATOM     10  C   UNL     1       0.993  10.172  19.204  0.00  0.00    +0.000 A 
ATOM     11  C   UNL     1       0.263  11.027  20.030  0.00  0.00    +0.000 A 
ATOM     12  C   UNL     1       0.014  10.552  21.315  0.00  0.00    +0.000 A 
ATOM     13  C   UNL     1       0.495   9.303  21.685  0.00  0.00    +0.000 A 
ATOM     14  N   UNL     1       1.206   8.473  20.897  0.00  0.00    +0.000 NA
ATOM     15  C   UNL     1       1.444   8.936  19.642  0.00  0.00    +0.000 A 
ATOM     16  H   UNL     1       1.282  11.040  17.272  0.00  0.00    +0.000 HD
ENDBRANCH   5   7
BRANCH   1  18
ATOM     17  C   UNL     1       5.353   3.575  15.925  0.00  0.00    +0.000 C 
ATOM     18  C   UNL     1       5.103   5.089  16.069  0.00  0.00    +0.000 C 
BRANCH  18  19
ATOM     19  C   UNL     1       6.437   5.880  16.105  0.00  0.00    +0.000 C 
BRANCH  19  20
ATOM     20  C   UNL     1       7.177   5.767  17.402  0.00  0.00    +0.000 A 
ATOM     21  N   UNL     1       7.459   4.662  18.065  0.00  0.00    +0.000 NA
ATOM     22  N   UNL     1       8.069   5.009  19.248  0.00  0.00    +0.000 NA
ATOM     23  C   UNL     1       8.183   6.315  19.265  0.00  0.00    +0.000 A 
ATOM     24  N   UNL     1       7.672   6.830  18.115  0.00  0.00    +0.000 N 
ATOM     25  C   UNL     1       7.683   8.215  17.730  0.00  0.00    +0.000 C 
ENDBRANCH  19  20
ENDBRANCH  18  19
ENDBRANCH   1  18
TORSDOF 4
ENDMDL
MODEL 9
REMARK VINA RESULT:      -7.9      3.065      4.779
REMARK  Name = 
REMARK  6 active torsions:
REMARK  status: ('A' for Active; 'I' for Inactive)
REMARK    1  A    between atoms: C_1  and  C_2
REMARK    2  A    between atoms: C_2  and  C_3
REMARK    3  A    between atoms: C_2  and  C_10
REMARK    4  A    between atoms: C_3  and  C_4
REMARK    5  A    between atoms: N_8  and  C_9
REMARK    6  A    between atoms: C_14  and  C_15
REMARK                            x       y       z     vdW  Elec       q    Type
REMARK                         _______ _______ _______ _____ _____    ______ ____
ROOT
ATOM      1  C   UNL     1       2.861   4.799  18.456  0.00  0.00    +0.000 A 
ATOM      2  C   UNL     1       2.588   4.387  19.773  0.00  0.00    +0.000 A 
ATOM      3  C   UNL     1       2.118   5.286  20.730  0.00  0.00    +0.000 A 
ATOM      4  C   UNL     1       1.907   6.617  20.393  0.00  0.00    +0.000 A 
ATOM      5  C   UNL     1       2.154   7.068  19.091  0.00  0.00    +0.000 A 
ATOM      6  C   UNL     1       2.640   6.154  18.136  0.00  0.00    +0.000 A 
ENDROOT
BRANCH   5   7
ATOM      7  C   UNL     1       1.878   8.464  18.733  0.00  0.00    +0.000 A 
ATOM      8  N   UNL     1       2.342   9.011  17.590  0.00  0.00    +0.000 NA
ATOM      9  N   UNL     1       1.890  10.277  17.625  0.00  0.00    +0.000 N 
ATOM     10  C   UNL     1       1.140  10.584  18.722  0.00  0.00    +0.000 A 
ATOM     11  C   UNL     1       0.485  11.746  19.132  0.00  0.00    +0.000 A 
ATOM     12  C   UNL     1      -0.200  11.653  20.342  0.00  0.00    +0.000 A 
ATOM     13  C   UNL     1      -0.184  10.455  21.043  0.00  0.00    +0.000 A 
ATOM     14  N   UNL     1       0.451   9.330  20.658  0.00  0.00    +0.000 NA
ATOM     15  C   UNL     1       1.114   9.421  19.475  0.00  0.00    +0.000 A 
ATOM     16  H   UNL     1       2.130  10.888  16.852  0.00  0.00    +0.000 HD
ENDBRANCH   5   7
BRANCH   1  18
ATOM     17  C   UNL     1       2.489   2.543  17.292  0.00  0.00    +0.000 C 
ATOM     18  C   UNL     1       3.347   3.821  17.375  0.00  0.00    +0.000 C 
BRANCH  18  19
ATOM     19  C   UNL     1       4.847   3.481  17.576  0.00  0.00    +0.000 C 
BRANCH  19  20
ATOM     20  C   UNL     1       5.783   4.540  17.082  0.00  0.00    +0.000 A 
ATOM     21  N   UNL     1       6.092   4.809  15.828  0.00  0.00    +0.000 NA
ATOM     22  N   UNL     1       7.055   5.791  15.818  0.00  0.00    +0.000 NA
ATOM     23  C   UNL     1       7.286   6.129  17.063  0.00  0.00    +0.000 A 
ATOM     24  N   UNL     1       6.487   5.399  17.887  0.00  0.00    +0.000 N 
ATOM     25  C   UNL     1       6.395   5.536  19.316  0.00  0.00    +0.000 C 
ENDBRANCH  19  20
ENDBRANCH  18  19
ENDBRANCH   1  18
TORSDOF 4
ENDMDL
