MODEL 1
REMARK VINA RESULT:      -9.1      0.000      0.000
REMARK  Name = 
REMARK  10 active torsions:
REMARK  status: ('A' for Active; 'I' for Inactive)
REMARK    1  A    between atoms: C_1  and  C_2
REMARK    2  A    between atoms: C_2  and  C_3
REMARK    3  A    between atoms: C_2  and  C_10
REMARK    4  A    between atoms: C_3  and  C_4
REMARK    5  A    between atoms: N_8  and  C_9
REMARK    6  A    between atoms: C_14  and  N_15
REMARK    7  A    between atoms: C_16  and  C_18
REMARK    8  A    between atoms: C_20  and  N_21
REMARK    9  A    between atoms: N_21  and  C_22
REMARK   10  A    between atoms: C_25  and  O_26
REMARK                            x       y       z     vdW  Elec       q    Type
REMARK                         _______ _______ _______ _____ _____    ______ ____
ROOT
ATOM      1  N   UNL     1       2.395   7.565  19.778  0.00  0.00    +0.000 N 
ATOM      2  C   UNL     1       2.710   7.526  18.431  0.00  0.00    +0.000 C 
ATOM      3  O   UNL     1       2.282   8.293  17.568  0.00  0.00    +0.000 OA
ATOM      4  H   UNL     1       2.925   6.929  20.373  0.00  0.00    +0.000 HD
ENDROOT
BRANCH   1   9
ATOM      5  C   UNL     1      -0.081  10.340  20.168  0.00  0.00    +0.000 A 
ATOM      6  C   UNL     1      -0.401  10.210  21.529  0.00  0.00    +0.000 A 
ATOM      7  C   UNL     1       0.173   9.202  22.299  0.00  0.00    +0.000 A 
ATOM      8  C   UNL     1       1.095   8.326  21.735  0.00  0.00    +0.000 A 
ATOM      9  C   UNL     1       1.456   8.435  20.388  0.00  0.00    +0.000 A 
ATOM     10  C   UNL     1       0.870   9.449  19.618  0.00  0.00    +0.000 A 
BRANCH   5  12
ATOM     11  C   UNL     1       0.180  12.576  18.941  0.00  0.00    +0.000 C 
ATOM     12  C   UNL     1      -0.741  11.383  19.257  0.00  0.00    +0.000 C 
BRANCH  12  13
ATOM     13  C   UNL     1      -1.308  10.740  17.968  0.00  0.00    +0.000 C 
BRANCH  13  14
ATOM     14  C   UNL     1      -2.726  11.141  17.697  0.00  0.00    +0.000 A 
ATOM     15  N   UNL     1      -3.554  11.661  18.585  0.00  0.00    +0.000 NA
ATOM     16  N   UNL     1      -4.770  11.872  17.978  0.00  0.00    +0.000 NA
ATOM     17  C   UNL     1      -4.665  11.478  16.735  0.00  0.00    +0.000 A 
ATOM     18  N   UNL     1      -3.400  11.020  16.504  0.00  0.00    +0.000 N 
ATOM     19  C   UNL     1      -2.919  10.526  15.246  0.00  0.00    +0.000 C 
ENDBRANCH  13  14
ENDBRANCH  12  13
ENDBRANCH   5  12
ENDBRANCH   1   9
BRANCH   2  20
ATOM     20  C   UNL     1       3.694   6.482  18.009  0.00  0.00    +0.000 A 
ATOM     21  C   UNL     1       3.882   5.379  18.843  0.00  0.00    +0.000 A 
ATOM     22  C   UNL     1       4.792   4.383  18.496  0.00  0.00    +0.000 A 
ATOM     23  C   UNL     1       5.486   4.554  17.301  0.00  0.00    +0.000 A 
ATOM     24  C   UNL     1       5.233   5.682  16.519  0.00  0.00    +0.000 A 
ATOM     25  N   UNL     1       4.354   6.661  16.837  0.00  0.00    +0.000 NA
BRANCH  22  26
ATOM     26  N   UNL     1       4.975   3.335  19.391  0.00  0.00    +0.000 N 
ATOM     27  H   UNL     1       5.487   3.618  20.225  0.00  0.00    +0.000 HD
BRANCH  26  28
ATOM     28  C   UNL     1       4.023   2.242  19.572  0.00  0.00    +0.000 C 
ATOM     29  C   UNL     1       3.322   1.903  18.243  0.00  0.00    +0.000 C 
ATOM     30  C   UNL     1       1.868   2.335  18.386  0.00  0.00    +0.000 C 
ATOM     31  C   UNL     1       1.598   2.277  19.877  0.00  0.00    +0.000 C 
ATOM     32  C   UNL     1       2.909   2.683  20.532  0.00  0.00    +0.000 C 
BRANCH  31  33
ATOM     33  O   UNL     1       0.540   3.145  20.240  0.00  0.00    +0.000 OA
ATOM     34  H   UNL     1       0.763   3.559  21.093  0.00  0.00    +0.000 HD
ENDBRANCH  31  33
ENDBRANCH  26  28
ENDBRANCH  22  26
ENDBRANCH   2  20
TORSDOF 8
ENDMDL
MODEL 2
REMARK VINA RESULT:      -8.8      1.020      1.215
REMARK  Name = 
REMARK  10 active torsions:
REMARK  status: ('A' for Active; 'I' for Inactive)
REMARK    1  A    between atoms: C_1  and  C_2
REMARK    2  A    between atoms: C_2  and  C_3
REMARK    3  A    between atoms: C_2  and  C_10
REMARK    4  A    between atoms: C_3  and  C_4
REMARK    5  A    between atoms: N_8  and  C_9
REMARK    6  A    between atoms: C_14  and  N_15
REMARK    7  A    between atoms: C_16  and  C_18
REMARK    8  A    between atoms: C_20  and  N_21
REMARK    9  A    between atoms: N_21  and  C_22
REMARK   10  A    between atoms: C_25  and  O_26
REMARK                            x       y       z     vdW  Elec       q    Type
REMARK                         _______ _______ _______ _____ _____    ______ ____
ROOT
ATOM      1  N   UNL     1       2.042   7.780  19.838  0.00  0.00    +0.000 N 
ATOM      2  C   UNL     1       2.288   7.711  18.478  0.00  0.00    +0.000 C 
ATOM      3  O   UNL     1       1.902   8.520  17.634  0.00  0.00    +0.000 OA
ATOM      4  H   UNL     1       2.530   7.091  20.409  0.00  0.00    +0.000 HD
ENDROOT
BRANCH   1   9
ATOM      5  C   UNL     1      -0.231  10.711  20.312  0.00  0.00    +0.000 A 
ATOM      6  C   UNL     1      -0.387  10.693  21.707  0.00  0.00    +0.000 A 
ATOM      7  C   UNL     1       0.228   9.709  22.477  0.00  0.00    +0.000 A 
ATOM      8  C   UNL     1       1.030   8.745  21.873  0.00  0.00    +0.000 A 
ATOM      9  C   UNL     1       1.228   8.741  20.489  0.00  0.00    +0.000 A 
ATOM     10  C   UNL     1       0.602   9.732  19.721  0.00  0.00    +0.000 A 
BRANCH   5  12
ATOM     11  C   UNL     1      -0.096  12.974  19.115  0.00  0.00    +0.000 C 
ATOM     12  C   UNL     1      -0.946  11.725  19.411  0.00  0.00    +0.000 C 
BRANCH  12  13
ATOM     13  C   UNL     1      -1.469  11.067  18.111  0.00  0.00    +0.000 C 
BRANCH  13  14
ATOM     14  C   UNL     1      -2.910  11.379  17.844  0.00  0.00    +0.000 A 
ATOM     15  N   UNL     1      -3.772  11.826  18.739  0.00  0.00    +0.000 NA
ATOM     16  N   UNL     1      -4.998  11.969  18.132  0.00  0.00    +0.000 NA
ATOM     17  C   UNL     1      -4.865  11.607  16.882  0.00  0.00    +0.000 A 
ATOM     18  N   UNL     1      -3.573  11.237  16.647  0.00  0.00    +0.000 N 
ATOM     19  C   UNL     1      -3.058  10.800  15.381  0.00  0.00    +0.000 C 
ENDBRANCH  13  14
ENDBRANCH  12  13
ENDBRANCH   5  12
ENDBRANCH   1   9
BRANCH   2  20
ATOM     20  C   UNL     1       3.137   6.571  18.013  0.00  0.00    +0.000 A 
ATOM     21  C   UNL     1       2.535   5.321  17.861  0.00  0.00    +0.000 A 
ATOM     22  C   UNL     1       3.286   4.227  17.436  0.00  0.00    +0.000 A 
ATOM     23  C   UNL     1       4.637   4.452  17.185  0.00  0.00    +0.000 A 
ATOM     24  C   UNL     1       5.160   5.735  17.352  0.00  0.00    +0.000 A 
ATOM     25  N   UNL     1       4.449   6.811  17.764  0.00  0.00    +0.000 NA
BRANCH  22  26
ATOM     26  N   UNL     1       2.645   2.997  17.353  0.00  0.00    +0.000 N 
ATOM     27  H   UNL     1       2.864   2.500  16.491  0.00  0.00    +0.000 HD
BRANCH  26  28
ATOM     28  C   UNL     1       2.338   2.157  18.509  0.00  0.00    +0.000 C 
ATOM     29  C   UNL     1       0.848   2.268  18.883  0.00  0.00    +0.000 C 
ATOM     30  C   UNL     1       0.778   3.007  20.212  0.00  0.00    +0.000 C 
ATOM     31  C   UNL     1       2.114   2.726  20.875  0.00  0.00    +0.000 C 
ATOM     32  C   UNL     1       3.115   2.661  19.732  0.00  0.00    +0.000 C 
BRANCH  31  33
ATOM     33  O   UNL     1       2.446   3.739  21.807  0.00  0.00    +0.000 OA
ATOM     34  H   UNL     1       2.479   4.590  21.334  0.00  0.00    +0.000 HD
ENDBRANCH  31  33
ENDBRANCH  26  28
ENDBRANCH  22  26
ENDBRANCH   2  20
TORSDOF 8
ENDMDL
MODEL 3
REMARK VINA RESULT:      -8.7      1.586      3.225
REMARK  Name = 
REMARK  10 active torsions:
REMARK  status: ('A' for Active; 'I' for Inactive)
REMARK    1  A    between atoms: C_1  and  C_2
REMARK    2  A    between atoms: C_2  and  C_3
REMARK    3  A    between atoms: C_2  and  C_10
REMARK    4  A    between atoms: C_3  and  C_4
REMARK    5  A    between atoms: N_8  and  C_9
REMARK    6  A    between atoms: C_14  and  N_15
REMARK    7  A    between atoms: C_16  and  C_18
REMARK    8  A    between atoms: C_20  and  N_21
REMARK    9  A    between atoms: N_21  and  C_22
REMARK   10  A    between atoms: C_25  and  O_26
REMARK                            x       y       z     vdW  Elec       q    Type
REMARK                         _______ _______ _______ _____ _____    ______ ____
ROOT
ATOM      1  N   UNL     1       2.084   7.166  19.652  0.00  0.00    +0.000 N 
ATOM      2  C   UNL     1       1.913   5.839  20.003  0.00  0.00    +0.000 C 
ATOM      3  O   UNL     1       1.150   5.416  20.873  0.00  0.00    +0.000 OA
ATOM      4  H   UNL     1       2.671   7.333  18.835  0.00  0.00    +0.000 HD
ENDROOT
BRANCH   1   9
ATOM      5  C   UNL     1       0.215  10.376  20.079  0.00  0.00    +0.000 A 
ATOM      6  C   UNL     1       0.279  10.528  21.473  0.00  0.00    +0.000 A 
ATOM      7  C   UNL     1       0.906   9.567  22.263  0.00  0.00    +0.000 A 
ATOM      8  C   UNL     1       1.504   8.458  21.675  0.00  0.00    +0.000 A 
ATOM      9  C   UNL     1       1.481   8.280  20.288  0.00  0.00    +0.000 A 
ATOM     10  C   UNL     1       0.844   9.249  19.501  0.00  0.00    +0.000 A 
BRANCH   5  12
ATOM     11  C   UNL     1       0.354  12.536  18.704  0.00  0.00    +0.000 C 
ATOM     12  C   UNL     1      -0.528  11.364  19.171  0.00  0.00    +0.000 C 
BRANCH  12  13
ATOM     13  C   UNL     1      -1.206  10.646  17.978  0.00  0.00    +0.000 C 
BRANCH  13  14
ATOM     14  C   UNL     1      -2.613  11.107  17.749  0.00  0.00    +0.000 A 
ATOM     15  N   UNL     1      -3.401  11.637  18.667  0.00  0.00    +0.000 NA
ATOM     16  N   UNL     1      -4.620  11.908  18.093  0.00  0.00    +0.000 NA
ATOM     17  C   UNL     1      -4.558  11.540  16.839  0.00  0.00    +0.000 A 
ATOM     18  N   UNL     1      -3.318  11.039  16.569  0.00  0.00    +0.000 N 
ATOM     19  C   UNL     1      -2.883  10.557  15.290  0.00  0.00    +0.000 C 
ENDBRANCH  13  14
ENDBRANCH  12  13
ENDBRANCH   5  12
ENDBRANCH   1   9
BRANCH   2  20
ATOM     20  C   UNL     1       2.699   4.837  19.219  0.00  0.00    +0.000 A 
ATOM     21  C   UNL     1       4.088   4.835  19.358  0.00  0.00    +0.000 A 
ATOM     22  C   UNL     1       4.864   3.925  18.643  0.00  0.00    +0.000 A 
ATOM     23  C   UNL     1       4.186   3.046  17.803  0.00  0.00    +0.000 A 
ATOM     24  C   UNL     1       2.794   3.106  17.728  0.00  0.00    +0.000 A 
ATOM     25  N   UNL     1       2.021   3.982  18.412  0.00  0.00    +0.000 NA
BRANCH  22  26
ATOM     26  N   UNL     1       6.245   4.004  18.782  0.00  0.00    +0.000 N 
ATOM     27  H   UNL     1       6.637   3.189  19.250  0.00  0.00    +0.000 HD
BRANCH  26  28
ATOM     28  C   UNL     1       7.123   4.671  17.824  0.00  0.00    +0.000 C 
ATOM     29  C   UNL     1       7.441   6.106  18.282  0.00  0.00    +0.000 C 
ATOM     30  C   UNL     1       6.737   7.047  17.313  0.00  0.00    +0.000 C 
ATOM     31  C   UNL     1       6.616   6.249  16.029  0.00  0.00    +0.000 C 
ATOM     32  C   UNL     1       6.403   4.812  16.476  0.00  0.00    +0.000 C 
BRANCH  31  33
ATOM     33  O   UNL     1       5.539   6.717  15.236  0.00  0.00    +0.000 OA
ATOM     34  H   UNL     1       4.993   7.310  15.783  0.00  0.00    +0.000 HD
ENDBRANCH  31  33
ENDBRANCH  26  28
ENDBRANCH  22  26
ENDBRANCH   2  20
TORSDOF 8
ENDMDL
MODEL 4
REMARK VINA RESULT:      -8.6      1.936      2.800
REMARK  Name = 
REMARK  10 active torsions:
REMARK  status: ('A' for Active; 'I' for Inactive)
REMARK    1  A    between atoms: C_1  and  C_2
REMARK    2  A    between atoms: C_2  and  C_3
REMARK    3  A    between atoms: C_2  and  C_10
REMARK    4  A    between atoms: C_3  and  C_4
REMARK    5  A    between atoms: N_8  and  C_9
REMARK    6  A    between atoms: C_14  and  N_15
REMARK    7  A    between atoms: C_16  and  C_18
REMARK    8  A    between atoms: C_20  and  N_21
REMARK    9  A    between atoms: N_21  and  C_22
REMARK   10  A    between atoms: C_25  and  O_26
REMARK                            x       y       z     vdW  Elec       q    Type
REMARK                         _______ _______ _______ _____ _____    ______ ____
ROOT
ATOM      1  N   UNL     1       1.635   8.754  17.787  0.00  0.00    +0.000 N 
ATOM      2  C   UNL     1       2.177   7.833  18.666  0.00  0.00    +0.000 C 
ATOM      3  O   UNL     1       2.010   7.816  19.886  0.00  0.00    +0.000 OA
ATOM      4  H   UNL     1       1.782   8.557  16.797  0.00  0.00    +0.000 HD
ENDROOT
BRANCH   1   9
ATOM      5  C   UNL     1      -1.316  11.020  18.154  0.00  0.00    +0.000 A 
ATOM      6  C   UNL     1      -0.720  12.118  18.794  0.00  0.00    +0.000 A 
ATOM      7  C   UNL     1       0.632  12.097  19.125  0.00  0.00    +0.000 A 
ATOM      8  C   UNL     1       1.418  10.996  18.798  0.00  0.00    +0.000 A 
ATOM      9  C   UNL     1       0.867   9.892  18.141  0.00  0.00    +0.000 A 
ATOM     10  C   UNL     1      -0.496   9.918  17.816  0.00  0.00    +0.000 A 
BRANCH   5  12
ATOM     11  C   UNL     1      -3.358   9.522  17.754  0.00  0.00    +0.000 C 
ATOM     12  C   UNL     1      -2.816  10.960  17.835  0.00  0.00    +0.000 C 
BRANCH  12  13
ATOM     13  C   UNL     1      -3.644  11.830  18.813  0.00  0.00    +0.000 C 
BRANCH  13  14
ATOM     14  C   UNL     1      -5.047  12.054  18.340  0.00  0.00    +0.000 A 
ATOM     15  N   UNL     1      -5.400  12.317  17.094  0.00  0.00    +0.000 NA
ATOM     16  N   UNL     1      -6.764  12.487  17.053  0.00  0.00    +0.000 NA
ATOM     17  C   UNL     1      -7.220  12.326  18.268  0.00  0.00    +0.000 A 
ATOM     18  N   UNL     1      -6.186  12.044  19.112  0.00  0.00    +0.000 N 
ATOM     19  C   UNL     1      -6.315  11.788  20.519  0.00  0.00    +0.000 C 
ENDBRANCH  13  14
ENDBRANCH  12  13
ENDBRANCH   5  12
ENDBRANCH   1   9
BRANCH   2  20
ATOM     20  C   UNL     1       3.001   6.741  18.061  0.00  0.00    +0.000 A 
ATOM     21  C   UNL     1       2.421   5.480  17.919  0.00  0.00    +0.000 A 
ATOM     22  C   UNL     1       3.150   4.430  17.366  0.00  0.00    +0.000 A 
ATOM     23  C   UNL     1       4.458   4.708  16.980  0.00  0.00    +0.000 A 
ATOM     24  C   UNL     1       4.961   5.999  17.147  0.00  0.00    +0.000 A 
ATOM     25  N   UNL     1       4.271   7.033  17.681  0.00  0.00    +0.000 NA
BRANCH  22  26
ATOM     26  N   UNL     1       2.538   3.184  17.298  0.00  0.00    +0.000 N 
ATOM     27  H   UNL     1       2.733   2.700  16.423  0.00  0.00    +0.000 HD
BRANCH  26  28
ATOM     28  C   UNL     1       2.301   2.327  18.457  0.00  0.00    +0.000 C 
ATOM     29  C   UNL     1       0.812   2.340  18.850  0.00  0.00    +0.000 C 
ATOM     30  C   UNL     1       0.710   3.074  20.181  0.00  0.00    +0.000 C 
ATOM     31  C   UNL     1       2.070   2.881  20.826  0.00  0.00    +0.000 C 
ATOM     32  C   UNL     1       3.059   2.881  19.671  0.00  0.00    +0.000 C 
BRANCH  31  33
ATOM     33  O   UNL     1       2.347   3.915  21.754  0.00  0.00    +0.000 OA
ATOM     34  H   UNL     1       2.234   3.556  22.653  0.00  0.00    +0.000 HD
ENDBRANCH  31  33
ENDBRANCH  26  28
ENDBRANCH  22  26
ENDBRANCH   2  20
TORSDOF 8
ENDMDL
MODEL 5
REMARK VINA RESULT:      -8.6      1.327      2.232
REMARK  Name = 
REMARK  10 active torsions:
REMARK  status: ('A' for Active; 'I' for Inactive)
REMARK    1  A    between atoms: C_1  and  C_2
REMARK    2  A    between atoms: C_2  and  C_3
REMARK    3  A    between atoms: C_2  and  C_10
REMARK    4  A    between atoms: C_3  and  C_4
REMARK    5  A    between atoms: N_8  and  C_9
REMARK    6  A    between atoms: C_14  and  N_15
REMARK    7  A    between atoms: C_16  and  C_18
REMARK    8  A    between atoms: C_20  and  N_21
REMARK    9  A    between atoms: N_21  and  C_22
REMARK   10  A    between atoms: C_25  and  O_26
REMARK                            x       y       z     vdW  Elec       q    Type
REMARK                         _______ _______ _______ _____ _____    ______ ____
ROOT
ATOM      1  N   UNL     1       1.831   8.577  18.336  0.00  0.00    +0.000 N 
ATOM      2  C   UNL     1       2.269   7.515  19.107  0.00  0.00    +0.000 C 
ATOM      3  O   UNL     1       1.854   7.219  20.229  0.00  0.00    +0.000 OA
ATOM      4  H   UNL     1       2.199   8.613  17.386  0.00  0.00    +0.000 HD
ENDROOT
BRANCH   1   9
ATOM      5  C   UNL     1      -1.208  10.754  18.286  0.00  0.00    +0.000 A 
ATOM      6  C   UNL     1      -0.997  11.518  19.444  0.00  0.00    +0.000 A 
ATOM      7  C   UNL     1       0.120  11.297  20.245  0.00  0.00    +0.000 A 
ATOM      8  C   UNL     1       1.058  10.333  19.891  0.00  0.00    +0.000 A 
ATOM      9  C   UNL     1       0.895   9.565  18.734  0.00  0.00    +0.000 A 
ATOM     10  C   UNL     1      -0.234   9.790  17.935  0.00  0.00    +0.000 A 
BRANCH   5  12
ATOM     11  C   UNL     1      -2.373  10.110  16.094  0.00  0.00    +0.000 C 
ATOM     12  C   UNL     1      -2.459  10.905  17.410  0.00  0.00    +0.000 C 
BRANCH  12  13
ATOM     13  C   UNL     1      -3.751  10.573  18.195  0.00  0.00    +0.000 C 
BRANCH  13  14
ATOM     14  C   UNL     1      -4.807  11.624  18.042  0.00  0.00    +0.000 A 
ATOM     15  N   UNL     1      -5.409  11.942  16.910  0.00  0.00    +0.000 NA
ATOM     16  N   UNL     1      -6.294  12.965  17.157  0.00  0.00    +0.000 NA
ATOM     17  C   UNL     1      -6.217  13.256  18.430  0.00  0.00    +0.000 A 
ATOM     18  N   UNL     1      -5.306  12.438  19.033  0.00  0.00    +0.000 N 
ATOM     19  C   UNL     1      -4.975  12.459  20.429  0.00  0.00    +0.000 C 
ENDBRANCH  13  14
ENDBRANCH  12  13
ENDBRANCH   5  12
ENDBRANCH   1   9
BRANCH   2  20
ATOM     20  C   UNL     1       3.307   6.630  18.493  0.00  0.00    +0.000 A 
ATOM     21  C   UNL     1       3.659   5.462  19.169  0.00  0.00    +0.000 A 
ATOM     22  C   UNL     1       4.625   4.608  18.640  0.00  0.00    +0.000 A 
ATOM     23  C   UNL     1       5.203   4.987  17.431  0.00  0.00    +0.000 A 
ATOM     24  C   UNL     1       4.788   6.167  16.813  0.00  0.00    +0.000 A 
ATOM     25  N   UNL     1       3.852   7.010  17.310  0.00  0.00    +0.000 NA
BRANCH  22  26
ATOM     26  N   UNL     1       4.973   3.486  19.384  0.00  0.00    +0.000 N 
ATOM     27  H   UNL     1       5.621   3.704  20.139  0.00  0.00    +0.000 HD
BRANCH  26  28
ATOM     28  C   UNL     1       4.079   2.356  19.621  0.00  0.00    +0.000 C 
ATOM     29  C   UNL     1       3.416   1.900  18.308  0.00  0.00    +0.000 C 
ATOM     30  C   UNL     1       1.939   2.260  18.408  0.00  0.00    +0.000 C 
ATOM     31  C   UNL     1       1.652   2.277  19.897  0.00  0.00    +0.000 C 
ATOM     32  C   UNL     1       2.929   2.793  20.540  0.00  0.00    +0.000 C 
BRANCH  31  33
ATOM     33  O   UNL     1       0.543   3.107  20.194  0.00  0.00    +0.000 OA
ATOM     34  H   UNL     1      -0.164   2.549  20.566  0.00  0.00    +0.000 HD
ENDBRANCH  31  33
ENDBRANCH  26  28
ENDBRANCH  22  26
ENDBRANCH   2  20
TORSDOF 8
ENDMDL
MODEL 6
REMARK VINA RESULT:      -8.5      6.807      8.937
REMARK  Name = 
REMARK  10 active torsions:
REMARK  status: ('A' for Active; 'I' for Inactive)
REMARK    1  A    between atoms: C_1  and  C_2
REMARK    2  A    between atoms: C_2  and  C_3
REMARK    3  A    between atoms: C_2  and  C_10
REMARK    4  A    between atoms: C_3  and  C_4
REMARK    5  A    between atoms: N_8  and  C_9
REMARK    6  A    between atoms: C_14  and  N_15
REMARK    7  A    between atoms: C_16  and  C_18
REMARK    8  A    between atoms: C_20  and  N_21
REMARK    9  A    between atoms: N_21  and  C_22
REMARK   10  A    between atoms: C_25  and  O_26
REMARK                            x       y       z     vdW  Elec       q    Type
REMARK                         _______ _______ _______ _____ _____    ______ ____
ROOT
ATOM      1  N   UNL     1       7.665   8.848  17.602  0.00  0.00    +0.000 N 
ATOM      2  C   UNL     1       7.746   7.509  17.942  0.00  0.00    +0.000 C 
ATOM      3  O   UNL     1       8.408   7.038  18.867  0.00  0.00    +0.000 OA
ATOM      4  H   UNL     1       6.983   9.079  16.881  0.00  0.00    +0.000 HD
ENDROOT
BRANCH   1   9
ATOM      5  C   UNL     1       8.890  12.310  18.308  0.00  0.00    +0.000 A 
ATOM      6  C   UNL     1       9.827  12.050  19.319  0.00  0.00    +0.000 A 
ATOM      7  C   UNL     1      10.031  10.752  19.782  0.00  0.00    +0.000 A 
ATOM      8  C   UNL     1       9.325   9.691  19.224  0.00  0.00    +0.000 A 
ATOM      9  C   UNL     1       8.398   9.904  18.200  0.00  0.00    +0.000 A 
ATOM     10  C   UNL     1       8.196  11.214  17.744  0.00  0.00    +0.000 A 
BRANCH   5  12
ATOM     11  C   UNL     1       7.079  13.940  17.510  0.00  0.00    +0.000 C 
ATOM     12  C   UNL     1       8.573  13.728  17.816  0.00  0.00    +0.000 C 
BRANCH  12  13
ATOM     13  C   UNL     1       9.118  14.805  18.785  0.00  0.00    +0.000 C 
BRANCH  13  14
ATOM     14  C   UNL     1      10.367  15.458  18.280  0.00  0.00    +0.000 A 
ATOM     15  N   UNL     1      10.889  15.282  17.079  0.00  0.00    +0.000 NA
ATOM     16  N   UNL     1      12.044  16.022  16.991  0.00  0.00    +0.000 NA
ATOM     17  C   UNL     1      12.210  16.635  18.135  0.00  0.00    +0.000 A 
ATOM     18  N   UNL     1      11.181  16.323  18.975  0.00  0.00    +0.000 N 
ATOM     19  C   UNL     1      11.023  16.829  20.309  0.00  0.00    +0.000 C 
ENDBRANCH  13  14
ENDBRANCH  12  13
ENDBRANCH   5  12
ENDBRANCH   1   9
BRANCH   2  20
ATOM     20  C   UNL     1       6.914   6.566  17.131  0.00  0.00    +0.000 A 
ATOM     21  C   UNL     1       5.608   6.312  17.553  0.00  0.00    +0.000 A 
ATOM     22  C   UNL     1       4.797   5.436  16.834  0.00  0.00    +0.000 A 
ATOM     23  C   UNL     1       5.356   4.845  15.705  0.00  0.00    +0.000 A 
ATOM     24  C   UNL     1       6.667   5.161  15.345  0.00  0.00    +0.000 A 
ATOM     25  N   UNL     1       7.472   6.007  16.028  0.00  0.00    +0.000 NA
BRANCH  22  26
ATOM     26  N   UNL     1       3.524   5.181  17.331  0.00  0.00    +0.000 N 
ATOM     27  H   UNL     1       2.822   5.119  16.594  0.00  0.00    +0.000 HD
BRANCH  26  28
ATOM     28  C   UNL     1       3.259   4.386  18.527  0.00  0.00    +0.000 C 
ATOM     29  C   UNL     1       4.047   3.063  18.488  0.00  0.00    +0.000 C 
ATOM     30  C   UNL     1       3.029   1.945  18.303  0.00  0.00    +0.000 C 
ATOM     31  C   UNL     1       1.743   2.503  18.884  0.00  0.00    +0.000 C 
ATOM     32  C   UNL     1       1.777   3.989  18.565  0.00  0.00    +0.000 C 
BRANCH  31  33
ATOM     33  O   UNL     1       0.609   1.870  18.317  0.00  0.00    +0.000 OA
ATOM     34  H   UNL     1       0.582   2.087  17.367  0.00  0.00    +0.000 HD
ENDBRANCH  31  33
ENDBRANCH  26  28
ENDBRANCH  22  26
ENDBRANCH   2  20
TORSDOF 8
ENDMDL
MODEL 7
REMARK VINA RESULT:      -8.5      1.987      2.917
REMARK  Name = 
REMARK  10 active torsions:
REMARK  status: ('A' for Active; 'I' for Inactive)
REMARK    1  A    between atoms: C_1  and  C_2
REMARK    2  A    between atoms: C_2  and  C_3
REMARK    3  A    between atoms: C_2  and  C_10
REMARK    4  A    between atoms: C_3  and  C_4
REMARK    5  A    between atoms: N_8  and  C_9
REMARK    6  A    between atoms: C_14  and  N_15
REMARK    7  A    between atoms: C_16  and  C_18
REMARK    8  A    between atoms: C_20  and  N_21
REMARK    9  A    between atoms: N_21  and  C_22
REMARK   10  A    between atoms: C_25  and  O_26
REMARK                            x       y       z     vdW  Elec       q    Type
REMARK                         _______ _______ _______ _____ _____    ______ ____
ROOT
ATOM      1  N   UNL     1       2.418   7.470  19.365  0.00  0.00    +0.000 N 
ATOM      2  C   UNL     1       3.033   7.546  18.127  0.00  0.00    +0.000 C 
ATOM      3  O   UNL     1       2.924   8.473  17.323  0.00  0.00    +0.000 OA
ATOM      4  H   UNL     1       2.704   6.688  19.951  0.00  0.00    +0.000 HD
ENDROOT
BRANCH   1   9
ATOM      5  C   UNL     1      -0.047  10.280  19.486  0.00  0.00    +0.000 A 
ATOM      6  C   UNL     1      -0.361  10.288  20.853  0.00  0.00    +0.000 A 
ATOM      7  C   UNL     1       0.213   9.359  21.719  0.00  0.00    +0.000 A 
ATOM      8  C   UNL     1       1.129   8.428  21.240  0.00  0.00    +0.000 A 
ATOM      9  C   UNL     1       1.484   8.400  19.889  0.00  0.00    +0.000 A 
ATOM     10  C   UNL     1       0.899   9.335  19.024  0.00  0.00    +0.000 A 
BRANCH   5  12
ATOM     11  C   UNL     1      -2.026  10.681  17.906  0.00  0.00    +0.000 C 
ATOM     12  C   UNL     1      -0.706  11.230  18.478  0.00  0.00    +0.000 C 
BRANCH  12  13
ATOM     13  C   UNL     1      -0.884  12.652  19.064  0.00  0.00    +0.000 C 
BRANCH  13  14
ATOM     14  C   UNL     1       0.309  13.527  18.830  0.00  0.00    +0.000 A 
ATOM     15  N   UNL     1       1.483  13.114  18.386  0.00  0.00    +0.000 NA
ATOM     16  N   UNL     1       2.332  14.194  18.325  0.00  0.00    +0.000 NA
ATOM     17  C   UNL     1       1.667  15.244  18.733  0.00  0.00    +0.000 A 
ATOM     18  N   UNL     1       0.390  14.882  19.052  0.00  0.00    +0.000 N 
ATOM     19  C   UNL     1      -0.629  15.779  19.518  0.00  0.00    +0.000 C 
ENDBRANCH  13  14
ENDBRANCH  12  13
ENDBRANCH   5  12
ENDBRANCH   1   9
BRANCH   2  20
ATOM     20  C   UNL     1       3.942   6.415  17.767  0.00  0.00    +0.000 A 
ATOM     21  C   UNL     1       4.078   5.364  18.676  0.00  0.00    +0.000 A 
ATOM     22  C   UNL     1       4.918   4.291  18.387  0.00  0.00    +0.000 A 
ATOM     23  C   UNL     1       5.598   4.333  17.173  0.00  0.00    +0.000 A 
ATOM     24  C   UNL     1       5.399   5.416  16.315  0.00  0.00    +0.000 A 
ATOM     25  N   UNL     1       4.589   6.468  16.575  0.00  0.00    +0.000 NA
BRANCH  22  26
ATOM     26  N   UNL     1       5.054   3.299  19.352  0.00  0.00    +0.000 N 
ATOM     27  H   UNL     1       5.545   3.628  20.183  0.00  0.00    +0.000 HD
BRANCH  26  28
ATOM     28  C   UNL     1       4.077   2.236  19.572  0.00  0.00    +0.000 C 
ATOM     29  C   UNL     1       3.382   1.852  18.252  0.00  0.00    +0.000 C 
ATOM     30  C   UNL     1       1.937   2.321  18.359  0.00  0.00    +0.000 C 
ATOM     31  C   UNL     1       1.651   2.334  19.848  0.00  0.00    +0.000 C 
ATOM     32  C   UNL     1       2.963   2.742  20.499  0.00  0.00    +0.000 C 
BRANCH  31  33
ATOM     33  O   UNL     1       0.607   3.240  20.160  0.00  0.00    +0.000 OA
ATOM     34  H   UNL     1       0.002   3.283  19.398  0.00  0.00    +0.000 HD
ENDBRANCH  31  33
ENDBRANCH  26  28
ENDBRANCH  22  26
ENDBRANCH   2  20
TORSDOF 8
ENDMDL
MODEL 8
REMARK VINA RESULT:      -8.5      2.356      3.328
REMARK  Name = 
REMARK  10 active torsions:
REMARK  status: ('A' for Active; 'I' for Inactive)
REMARK    1  A    between atoms: C_1  and  C_2
REMARK    2  A    between atoms: C_2  and  C_3
REMARK    3  A    between atoms: C_2  and  C_10
REMARK    4  A    between atoms: C_3  and  C_4
REMARK    5  A    between atoms: N_8  and  C_9
REMARK    6  A    between atoms: C_14  and  N_15
REMARK    7  A    between atoms: C_16  and  C_18
REMARK    8  A    between atoms: C_20  and  N_21
REMARK    9  A    between atoms: N_21  and  C_22
REMARK   10  A    between atoms: C_25  and  O_26
REMARK                            x       y       z     vdW  Elec       q    Type
REMARK                         _______ _______ _______ _____ _____    ______ ____
ROOT
ATOM      1  N   UNL     1       2.375   7.513  19.518  0.00  0.00    +0.000 N 
ATOM      2  C   UNL     1       2.831   7.558  18.213  0.00  0.00    +0.000 C 
ATOM      3  O   UNL     1       2.554   8.422  17.381  0.00  0.00    +0.000 OA
ATOM      4  H   UNL     1       2.791   6.792  20.106  0.00  0.00    +0.000 HD
ENDROOT
BRANCH   1   9
ATOM      5  C   UNL     1       0.199  10.520  19.970  0.00  0.00    +0.000 A 
ATOM      6  C   UNL     1      -0.396  10.224  21.206  0.00  0.00    +0.000 A 
ATOM      7  C   UNL     1      -0.104   9.034  21.867  0.00  0.00    +0.000 A 
ATOM      8  C   UNL     1       0.807   8.134  21.322  0.00  0.00    +0.000 A 
ATOM      9  C   UNL     1       1.438   8.402  20.103  0.00  0.00    +0.000 A 
ATOM     10  C   UNL     1       1.134   9.600  19.442  0.00  0.00    +0.000 A 
BRANCH   5  12
ATOM     11  C   UNL     1      -1.364  11.593  18.244  0.00  0.00    +0.000 C 
ATOM     12  C   UNL     1      -0.144  11.780  19.165  0.00  0.00    +0.000 C 
BRANCH  12  13
ATOM     13  C   UNL     1      -0.303  13.019  20.080  0.00  0.00    +0.000 C 
BRANCH  13  14
ATOM     14  C   UNL     1       1.012  13.620  20.473  0.00  0.00    +0.000 A 
ATOM     15  N   UNL     1       1.722  13.277  21.532  0.00  0.00    +0.000 NA
ATOM     16  N   UNL     1       2.850  14.062  21.576  0.00  0.00    +0.000 NA
ATOM     17  C   UNL     1       2.810  14.870  20.548  0.00  0.00    +0.000 A 
ATOM     18  N   UNL     1       1.683  14.627  19.818  0.00  0.00    +0.000 N 
ATOM     19  C   UNL     1       1.319  15.312  18.611  0.00  0.00    +0.000 C 
ENDBRANCH  13  14
ENDBRANCH  12  13
ENDBRANCH   5  12
ENDBRANCH   1   9
BRANCH   2  20
ATOM     20  C   UNL     1       3.781   6.477  17.803  0.00  0.00    +0.000 A 
ATOM     21  C   UNL     1       3.949   5.389  18.661  0.00  0.00    +0.000 A 
ATOM     22  C   UNL     1       4.826   4.360  18.326  0.00  0.00    +0.000 A 
ATOM     23  C   UNL     1       5.509   4.484  17.120  0.00  0.00    +0.000 A 
ATOM     24  C   UNL     1       5.278   5.600  16.314  0.00  0.00    +0.000 A 
ATOM     25  N   UNL     1       4.431   6.610  16.620  0.00  0.00    +0.000 NA
BRANCH  22  26
ATOM     26  N   UNL     1       4.991   3.328  19.243  0.00  0.00    +0.000 N 
ATOM     27  H   UNL     1       5.498   3.623  20.076  0.00  0.00    +0.000 HD
BRANCH  26  28
ATOM     28  C   UNL     1       4.028   2.247  19.437  0.00  0.00    +0.000 C 
ATOM     29  C   UNL     1       3.285   1.937  18.124  0.00  0.00    +0.000 C 
ATOM     30  C   UNL     1       1.843   2.389  18.312  0.00  0.00    +0.000 C 
ATOM     31  C   UNL     1       1.614   2.314  19.810  0.00  0.00    +0.000 C 
ATOM     32  C   UNL     1       2.948   2.692  20.433  0.00  0.00    +0.000 C 
BRANCH  31  33
ATOM     33  O   UNL     1       0.579   3.194  20.214  0.00  0.00    +0.000 OA
ATOM     34  H   UNL     1       0.728   4.057  19.786  0.00  0.00    +0.000 HD
ENDBRANCH  31  33
ENDBRANCH  26  28
ENDBRANCH  22  26
ENDBRANCH   2  20
TORSDOF 8
ENDMDL
MODEL 9
REMARK VINA RESULT:      -8.5      1.842      2.982
REMARK  Name = 
REMARK  10 active torsions:
REMARK  status: ('A' for Active; 'I' for Inactive)
REMARK    1  A    between atoms: C_1  and  C_2
REMARK    2  A    between atoms: C_2  and  C_3
REMARK    3  A    between atoms: C_2  and  C_10
REMARK    4  A    between atoms: C_3  and  C_4
REMARK    5  A    between atoms: N_8  and  C_9
REMARK    6  A    between atoms: C_14  and  N_15
REMARK    7  A    between atoms: C_16  and  C_18
REMARK    8  A    between atoms: C_20  and  N_21
REMARK    9  A    between atoms: N_21  and  C_22
REMARK   10  A    between atoms: C_25  and  O_26
REMARK                            x       y       z     vdW  Elec       q    Type
REMARK                         _______ _______ _______ _____ _____    ______ ____
ROOT
ATOM      1  N   UNL     1       0.821   9.358  19.258  0.00  0.00    +0.000 N 
ATOM      2  C   UNL     1       1.797   9.024  18.335  0.00  0.00    +0.000 C 
ATOM      3  O   UNL     1       2.142   9.710  17.372  0.00  0.00    +0.000 OA
ATOM      4  H   UNL     1       0.738   8.730  20.057  0.00  0.00    +0.000 HD
ENDROOT
BRANCH   1   9
ATOM      5  C   UNL     1      -2.000  11.603  18.266  0.00  0.00    +0.000 A 
ATOM      6  C   UNL     1      -1.711  12.737  19.041  0.00  0.00    +0.000 A 
ATOM      7  C   UNL     1      -0.615  12.748  19.900  0.00  0.00    +0.000 A 
ATOM      8  C   UNL     1       0.226  11.643  19.980  0.00  0.00    +0.000 A 
ATOM      9  C   UNL     1      -0.015  10.501  19.209  0.00  0.00    +0.000 A 
ATOM     10  C   UNL     1      -1.123  10.496  18.350  0.00  0.00    +0.000 A 
BRANCH   5  12
ATOM     11  C   UNL     1      -2.976  10.721  16.065  0.00  0.00    +0.000 C 
ATOM     12  C   UNL     1      -3.235  11.510  17.362  0.00  0.00    +0.000 C 
BRANCH  12  13
ATOM     13  C   UNL     1      -4.465  10.963  18.128  0.00  0.00    +0.000 C 
BRANCH  13  14
ATOM     14  C   UNL     1      -5.214  12.034  18.859  0.00  0.00    +0.000 A 
ATOM     15  N   UNL     1      -5.094  12.307  20.146  0.00  0.00    +0.000 NA
ATOM     16  N   UNL     1      -5.956  13.331  20.459  0.00  0.00    +0.000 NA
ATOM     17  C   UNL     1      -6.587  13.666  19.363  0.00  0.00    +0.000 A 
ATOM     18  N   UNL     1      -6.152  12.890  18.328  0.00  0.00    +0.000 N 
ATOM     19  C   UNL     1      -6.610  12.990  16.972  0.00  0.00    +0.000 C 
ENDBRANCH  13  14
ENDBRANCH  12  13
ENDBRANCH   5  12
ENDBRANCH   1   9
BRANCH   2  20
ATOM     20  C   UNL     1       2.517   7.734  18.566  0.00  0.00    +0.000 A 
ATOM     21  C   UNL     1       2.200   6.999  19.709  0.00  0.00    +0.000 A 
ATOM     22  C   UNL     1       2.849   5.794  19.971  0.00  0.00    +0.000 A 
ATOM     23  C   UNL     1       3.808   5.384  19.049  0.00  0.00    +0.000 A 
ATOM     24  C   UNL     1       4.060   6.173  17.926  0.00  0.00    +0.000 A 
ATOM     25  N   UNL     1       3.442   7.345  17.653  0.00  0.00    +0.000 NA
BRANCH  22  26
ATOM     26  N   UNL     1       2.529   5.131  21.150  0.00  0.00    +0.000 N 
ATOM     27  H   UNL     1       2.340   5.773  21.920  0.00  0.00    +0.000 HD
BRANCH  26  28
ATOM     28  C   UNL     1       1.824   3.853  21.203  0.00  0.00    +0.000 C 
ATOM     29  C   UNL     1       2.820   2.679  21.178  0.00  0.00    +0.000 C 
ATOM     30  C   UNL     1       2.652   1.984  19.833  0.00  0.00    +0.000 C 
ATOM     31  C   UNL     1       1.225   2.291  19.421  0.00  0.00    +0.000 C 
ATOM     32  C   UNL     1       0.956   3.692  19.947  0.00  0.00    +0.000 C 
BRANCH  31  33
ATOM     33  O   UNL     1       1.072   2.221  18.015  0.00  0.00    +0.000 OA
ATOM     34  H   UNL     1       1.767   2.767  17.604  0.00  0.00    +0.000 HD
ENDBRANCH  31  33
ENDBRANCH  26  28
ENDBRANCH  22  26
ENDBRANCH   2  20
TORSDOF 8
ENDMDL
