MODEL 1
REMARK VINA RESULT:      -9.9      0.000      0.000
REMARK  Name = 
REMARK  8 active torsions:
REMARK  status: ('A' for Active; 'I' for Inactive)
REMARK    1  A    between atoms: C_1  and  N_2
REMARK    2  A    between atoms: C_6  and  C_7
REMARK    3  A    between atoms: C_7  and  C_8
REMARK    4  A    between atoms: C_8  and  C_9
REMARK    5  A    between atoms: C_13  and  N_14
REMARK    6  A    between atoms: C_19  and  C_20
REMARK    7  A    between atoms: C_20  and  N_21
REMARK    8  A    between atoms: C_30  and  C_31
REMARK                            x       y       z     vdW  Elec       q    Type
REMARK                         _______ _______ _______ _____ _____    ______ ____
ROOT
ATOM      1  N   UNL     1       2.264   7.533  19.476  0.00  0.00    +0.000 N 
ATOM      2  C   UNL     1       1.495   7.833  20.673  0.00  0.00    +0.000 C 
ATOM      3  C   UNL     1       0.842   9.144  20.379  0.00  0.00    +0.000 A 
ATOM      4  C   UNL     1       1.136   9.538  19.082  0.00  0.00    +0.000 A 
ATOM      5  C   UNL     1       0.600  10.713  18.537  0.00  0.00    +0.000 A 
ATOM      6  C   UNL     1      -0.285  11.522  19.301  0.00  0.00    +0.000 A 
ATOM      7  C   UNL     1      -0.554  11.094  20.630  0.00  0.00    +0.000 A 
ATOM      8  C   UNL     1       0.022   9.919  21.192  0.00  0.00    +0.000 A 
ATOM      9  C   UNL     1       2.056   8.526  18.498  0.00  0.00    +0.000 C 
ATOM     10  O   UNL     1       2.499   8.630  17.367  0.00  0.00    +0.000 OA
ENDROOT
BRANCH   1  15
ATOM     11  C   UNL     1       5.324   5.388  18.802  0.00  0.00    +0.000 A 
ATOM     12  C   UNL     1       4.810   4.142  19.194  0.00  0.00    +0.000 A 
ATOM     13  C   UNL     1       3.513   4.006  19.700  0.00  0.00    +0.000 A 
ATOM     14  C   UNL     1       2.668   5.120  19.816  0.00  0.00    +0.000 A 
ATOM     15  C   UNL     1       3.101   6.380  19.419  0.00  0.00    +0.000 A 
ATOM     16  C   UNL     1       4.426   6.488  18.932  0.00  0.00    +0.000 A 
BRANCH  11  17
ATOM     17  C   UNL     1       6.845   5.582  18.262  0.00  0.00    +0.000 C 
ATOM     18  C   UNL     1       7.919   5.890  19.346  0.00  0.00    +0.000 C 
ATOM     19  O   UNL     1       8.278   7.141  18.728  0.00  0.00    +0.000 OA
ATOM     20  C   UNL     1       7.249   6.986  17.728  0.00  0.00    +0.000 C 
BRANCH  17  21
ATOM     21  C   UNL     1       7.291   4.410  17.354  0.00  0.00    +0.000 C 
BRANCH  21  27
ATOM     22  C   UNL     1       4.678   3.431  15.895  0.00  0.00    +0.000 C 
ATOM     23  N   UNL     1       5.784   4.141  15.309  0.00  0.00    +0.000 N 
ATOM     24  C   UNL     1       5.888   4.484  13.995  0.00  0.00    +0.000 A 
ATOM     25  N   UNL     1       7.033   5.084  13.787  0.00  0.00    +0.000 NA
ATOM     26  N   UNL     1       7.702   5.127  14.983  0.00  0.00    +0.000 NA
ATOM     27  C   UNL     1       6.939   4.580  15.911  0.00  0.00    +0.000 A 
ENDBRANCH  21  27
ENDBRANCH  17  21
ENDBRANCH  11  17
ENDBRANCH   1  15
BRANCH   8  28
ATOM     28  C   UNL     1      -0.230   9.524  22.631  0.00  0.00    +0.000 C 
ATOM     29  F   UNL     1       0.905   9.345  23.364  0.00  0.00    +0.000 F 
ATOM     30  F   UNL     1      -0.961  10.458  23.304  0.00  0.00    +0.000 F 
ATOM     31  F   UNL     1      -0.915   8.356  22.746  0.00  0.00    +0.000 F 
ENDBRANCH   8  28
BRANCH   6  32
ATOM     32  C   UNL     1      -0.893  12.785  18.621  0.00  0.00    +0.000 C 
BRANCH  32  33
ATOM     33  N   UNL     1      -0.110  14.024  18.610  0.00  0.00    +0.000 NA
ATOM     34  C   UNL     1      -0.642  15.195  19.307  0.00  0.00    +0.000 C 
ATOM     35  C   UNL     1      -0.623  15.007  20.845  0.00  0.00    +0.000 C 
ATOM     36  C   UNL     1       0.743  14.688  21.451  0.00  0.00    +0.000 C 
ATOM     37  C   UNL     1       1.529  13.716  20.566  0.00  0.00    +0.000 C 
ATOM     38  C   UNL     1       1.308  14.001  19.062  0.00  0.00    +0.000 C 
ATOM     39  C   UNL     1       1.714  15.475  18.818  0.00  0.00    +0.000 C 
ATOM     40  C   UNL     1       0.365  16.184  18.702  0.00  0.00    +0.000 C 
ENDBRANCH  32  33
ENDBRANCH   6  32
TORSDOF 7
ENDMDL
MODEL 2
REMARK VINA RESULT:      -9.6      1.531      2.449
REMARK  Name = 
REMARK  8 active torsions:
REMARK  status: ('A' for Active; 'I' for Inactive)
REMARK    1  A    between atoms: C_1  and  N_2
REMARK    2  A    between atoms: C_6  and  C_7
REMARK    3  A    between atoms: C_7  and  C_8
REMARK    4  A    between atoms: C_8  and  C_9
REMARK    5  A    between atoms: C_13  and  N_14
REMARK    6  A    between atoms: C_19  and  C_20
REMARK    7  A    between atoms: C_20  and  N_21
REMARK    8  A    between atoms: C_30  and  C_31
REMARK                            x       y       z     vdW  Elec       q    Type
REMARK                         _______ _______ _______ _____ _____    ______ ____
ROOT
ATOM      1  N   UNL     1       2.206   7.452  19.236  0.00  0.00    +0.000 N 
ATOM      2  C   UNL     1       1.495   7.772  20.463  0.00  0.00    +0.000 C 
ATOM      3  C   UNL     1       0.975   9.155  20.244  0.00  0.00    +0.000 A 
ATOM      4  C   UNL     1       1.283   9.578  18.960  0.00  0.00    +0.000 A 
ATOM      5  C   UNL     1       0.862  10.826  18.482  0.00  0.00    +0.000 A 
ATOM      6  C   UNL     1       0.080  11.684  19.303  0.00  0.00    +0.000 A 
ATOM      7  C   UNL     1      -0.207  11.224  20.617  0.00  0.00    +0.000 A 
ATOM      8  C   UNL     1       0.255   9.971  21.111  0.00  0.00    +0.000 A 
ATOM      9  C   UNL     1       2.082   8.506  18.309  0.00  0.00    +0.000 C 
ATOM     10  O   UNL     1       2.513   8.618  17.174  0.00  0.00    +0.000 OA
ENDROOT
BRANCH   1  15
ATOM     11  C   UNL     1       4.559   4.837  17.808  0.00  0.00    +0.000 A 
ATOM     12  C   UNL     1       4.317   3.800  18.721  0.00  0.00    +0.000 A 
ATOM     13  C   UNL     1       3.438   3.957  19.798  0.00  0.00    +0.000 A 
ATOM     14  C   UNL     1       2.748   5.163  19.991  0.00  0.00    +0.000 A 
ATOM     15  C   UNL     1       2.918   6.223  19.107  0.00  0.00    +0.000 A 
ATOM     16  C   UNL     1       3.831   6.040  18.042  0.00  0.00    +0.000 A 
BRANCH  11  17
ATOM     17  C   UNL     1       5.616   4.700  16.581  0.00  0.00    +0.000 C 
ATOM     18  C   UNL     1       5.371   5.634  15.360  0.00  0.00    +0.000 C 
ATOM     19  O   UNL     1       5.235   4.523  14.453  0.00  0.00    +0.000 OA
ATOM     20  C   UNL     1       5.368   3.576  15.534  0.00  0.00    +0.000 C 
BRANCH  17  21
ATOM     21  C   UNL     1       7.084   4.794  17.066  0.00  0.00    +0.000 C 
BRANCH  21  27
ATOM     22  C   UNL     1       8.153   5.704  19.885  0.00  0.00    +0.000 C 
ATOM     23  N   UNL     1       7.977   6.526  18.718  0.00  0.00    +0.000 N 
ATOM     24  C   UNL     1       8.225   7.865  18.657  0.00  0.00    +0.000 A 
ATOM     25  N   UNL     1       7.922   8.313  17.464  0.00  0.00    +0.000 NA
ATOM     26  N   UNL     1       7.455   7.254  16.729  0.00  0.00    +0.000 NA
ATOM     27  C   UNL     1       7.511   6.167  17.476  0.00  0.00    +0.000 A 
ENDBRANCH  21  27
ENDBRANCH  17  21
ENDBRANCH  11  17
ENDBRANCH   1  15
BRANCH   8  28
ATOM     28  C   UNL     1      -0.009   9.537  22.536  0.00  0.00    +0.000 C 
ATOM     29  F   UNL     1      -0.824   8.448  22.642  0.00  0.00    +0.000 F 
ATOM     30  F   UNL     1       1.135   9.208  23.199  0.00  0.00    +0.000 F 
ATOM     31  F   UNL     1      -0.610  10.503  23.280  0.00  0.00    +0.000 F 
ENDBRANCH   8  28
BRANCH   6  32
ATOM     32  C   UNL     1      -0.407  13.034  18.694  0.00  0.00    +0.000 C 
BRANCH  32  33
ATOM     33  N   UNL     1       0.523  14.167  18.660  0.00  0.00    +0.000 NA
ATOM     34  C   UNL     1       0.212  15.353  19.458  0.00  0.00    +0.000 C 
ATOM     35  C   UNL     1       0.352  15.078  20.976  0.00  0.00    +0.000 C 
ATOM     36  C   UNL     1       1.717  14.560  21.428  0.00  0.00    +0.000 C 
ATOM     37  C   UNL     1       2.285  13.550  20.427  0.00  0.00    +0.000 C 
ATOM     38  C   UNL     1       1.963  13.944  18.966  0.00  0.00    +0.000 C 
ATOM     39  C   UNL     1       2.528  15.369  18.748  0.00  0.00    +0.000 C 
ATOM     40  C   UNL     1       1.276  16.243  18.799  0.00  0.00    +0.000 C 
ENDBRANCH  32  33
ENDBRANCH   6  32
TORSDOF 7
ENDMDL
MODEL 3
REMARK VINA RESULT:      -9.4      1.572      2.694
REMARK  Name = 
REMARK  8 active torsions:
REMARK  status: ('A' for Active; 'I' for Inactive)
REMARK    1  A    between atoms: C_1  and  N_2
REMARK    2  A    between atoms: C_6  and  C_7
REMARK    3  A    between atoms: C_7  and  C_8
REMARK    4  A    between atoms: C_8  and  C_9
REMARK    5  A    between atoms: C_13  and  N_14
REMARK    6  A    between atoms: C_19  and  C_20
REMARK    7  A    between atoms: C_20  and  N_21
REMARK    8  A    between atoms: C_30  and  C_31
REMARK                            x       y       z     vdW  Elec       q    Type
REMARK                         _______ _______ _______ _____ _____    ______ ____
ROOT
ATOM      1  N   UNL     1       2.157   7.500  19.240  0.00  0.00    +0.000 N 
ATOM      2  C   UNL     1       1.457   7.806  20.477  0.00  0.00    +0.000 C 
ATOM      3  C   UNL     1       1.026   9.227  20.321  0.00  0.00    +0.000 A 
ATOM      4  C   UNL     1       1.369   9.689  19.059  0.00  0.00    +0.000 A 
ATOM      5  C   UNL     1       1.030  10.983  18.638  0.00  0.00    +0.000 A 
ATOM      6  C   UNL     1       0.295  11.848  19.494  0.00  0.00    +0.000 A 
ATOM      7  C   UNL     1      -0.030  11.346  20.784  0.00  0.00    +0.000 A 
ATOM      8  C   UNL     1       0.351  10.045  21.221  0.00  0.00    +0.000 A 
ATOM      9  C   UNL     1       2.106   8.602  18.363  0.00  0.00    +0.000 C 
ATOM     10  O   UNL     1       2.551   8.740  17.236  0.00  0.00    +0.000 OA
ENDROOT
BRANCH   1  15
ATOM     11  C   UNL     1       4.402   4.832  17.738  0.00  0.00    +0.000 A 
ATOM     12  C   UNL     1       4.048   3.755  18.565  0.00  0.00    +0.000 A 
ATOM     13  C   UNL     1       3.129   3.899  19.610  0.00  0.00    +0.000 A 
ATOM     14  C   UNL     1       2.511   5.134  19.856  0.00  0.00    +0.000 A 
ATOM     15  C   UNL     1       2.793   6.237  19.057  0.00  0.00    +0.000 A 
ATOM     16  C   UNL     1       3.743   6.064  18.023  0.00  0.00    +0.000 A 
BRANCH  11  17
ATOM     17  C   UNL     1       5.508   4.705  16.553  0.00  0.00    +0.000 C 
ATOM     18  C   UNL     1       5.338   5.683  15.354  0.00  0.00    +0.000 C 
ATOM     19  O   UNL     1       5.214   4.604  14.407  0.00  0.00    +0.000 OA
ATOM     20  C   UNL     1       5.277   3.621  15.462  0.00  0.00    +0.000 C 
BRANCH  17  21
ATOM     21  C   UNL     1       6.955   4.746  17.103  0.00  0.00    +0.000 C 
BRANCH  21  27
ATOM     22  C   UNL     1       8.079   5.677  19.894  0.00  0.00    +0.000 C 
ATOM     23  N   UNL     1       7.921   6.480  18.711  0.00  0.00    +0.000 N 
ATOM     24  C   UNL     1       8.214   7.808  18.620  0.00  0.00    +0.000 A 
ATOM     25  N   UNL     1       7.917   8.242  17.421  0.00  0.00    +0.000 NA
ATOM     26  N   UNL     1       7.408   7.184  16.711  0.00  0.00    +0.000 NA
ATOM     27  C   UNL     1       7.432   6.112  17.481  0.00  0.00    +0.000 A 
ENDBRANCH  21  27
ENDBRANCH  17  21
ENDBRANCH  11  17
ENDBRANCH   1  15
BRANCH   8  28
ATOM     28  C   UNL     1       0.049   9.562  22.623  0.00  0.00    +0.000 C 
ATOM     29  F   UNL     1       1.155   9.206  23.337  0.00  0.00    +0.000 F 
ATOM     30  F   UNL     1      -0.585  10.508  23.372  0.00  0.00    +0.000 F 
ATOM     31  F   UNL     1      -0.755   8.466  22.642  0.00  0.00    +0.000 F 
ENDBRANCH   8  28
BRANCH   6  32
ATOM     32  C   UNL     1      -0.103  13.252  18.948  0.00  0.00    +0.000 C 
BRANCH  32  33
ATOM     33  N   UNL     1      -0.082  14.396  19.864  0.00  0.00    +0.000 NA
ATOM     34  C   UNL     1       1.212  14.925  20.295  0.00  0.00    +0.000 C 
ATOM     35  C   UNL     1       1.958  15.635  19.138  0.00  0.00    +0.000 C 
ATOM     36  C   UNL     1       1.193  16.773  18.462  0.00  0.00    +0.000 C 
ATOM     37  C   UNL     1      -0.289  16.424  18.298  0.00  0.00    +0.000 C 
ATOM     38  C   UNL     1      -0.831  15.633  19.512  0.00  0.00    +0.000 C 
ATOM     39  C   UNL     1      -0.569  16.498  20.768  0.00  0.00    +0.000 C 
ATOM     40  C   UNL     1       0.633  15.808  21.411  0.00  0.00    +0.000 C 
ENDBRANCH  32  33
ENDBRANCH   6  32
TORSDOF 7
ENDMDL
MODEL 4
REMARK VINA RESULT:      -9.4      1.019      1.409
REMARK  Name = 
REMARK  8 active torsions:
REMARK  status: ('A' for Active; 'I' for Inactive)
REMARK    1  A    between atoms: C_1  and  N_2
REMARK    2  A    between atoms: C_6  and  C_7
REMARK    3  A    between atoms: C_7  and  C_8
REMARK    4  A    between atoms: C_8  and  C_9
REMARK    5  A    between atoms: C_13  and  N_14
REMARK    6  A    between atoms: C_19  and  C_20
REMARK    7  A    between atoms: C_20  and  N_21
REMARK    8  A    between atoms: C_30  and  C_31
REMARK                            x       y       z     vdW  Elec       q    Type
REMARK                         _______ _______ _______ _____ _____    ______ ____
ROOT
ATOM      1  N   UNL     1       2.043   7.579  19.043  0.00  0.00    +0.000 N 
ATOM      2  C   UNL     1       1.380   7.840  20.310  0.00  0.00    +0.000 C 
ATOM      3  C   UNL     1       0.975   9.275  20.231  0.00  0.00    +0.000 A 
ATOM      4  C   UNL     1       1.298   9.790  18.985  0.00  0.00    +0.000 A 
ATOM      5  C   UNL     1       0.976  11.108  18.633  0.00  0.00    +0.000 A 
ATOM      6  C   UNL     1       0.280  11.947  19.547  0.00  0.00    +0.000 A 
ATOM      7  C   UNL     1      -0.025  11.390  20.819  0.00  0.00    +0.000 A 
ATOM      8  C   UNL     1       0.338  10.063  21.185  0.00  0.00    +0.000 A 
ATOM      9  C   UNL     1       1.995   8.723  18.220  0.00  0.00    +0.000 C 
ATOM     10  O   UNL     1       2.416   8.905  17.090  0.00  0.00    +0.000 OA
ENDROOT
BRANCH   1  15
ATOM     11  C   UNL     1       4.564   5.030  17.793  0.00  0.00    +0.000 A 
ATOM     12  C   UNL     1       3.890   3.855  18.160  0.00  0.00    +0.000 A 
ATOM     13  C   UNL     1       2.663   3.889  18.831  0.00  0.00    +0.000 A 
ATOM     14  C   UNL     1       2.051   5.111  19.145  0.00  0.00    +0.000 A 
ATOM     15  C   UNL     1       2.648   6.314  18.785  0.00  0.00    +0.000 A 
ATOM     16  C   UNL     1       3.900   6.246  18.128  0.00  0.00    +0.000 A 
BRANCH  11  17
ATOM     17  C   UNL     1       6.016   5.019  17.063  0.00  0.00    +0.000 C 
ATOM     18  C   UNL     1       7.244   4.787  17.990  0.00  0.00    +0.000 C 
ATOM     19  O   UNL     1       7.843   6.045  17.623  0.00  0.00    +0.000 OA
ATOM     20  C   UNL     1       6.706   6.389  16.803  0.00  0.00    +0.000 C 
BRANCH  17  21
ATOM     21  C   UNL     1       6.047   4.059  15.848  0.00  0.00    +0.000 C 
BRANCH  21  27
ATOM     22  C   UNL     1       5.515   3.363  12.823  0.00  0.00    +0.000 C 
ATOM     23  N   UNL     1       6.498   4.276  13.343  0.00  0.00    +0.000 N 
ATOM     24  C   UNL     1       7.392   4.977  12.590  0.00  0.00    +0.000 A 
ATOM     25  N   UNL     1       8.168   5.683  13.375  0.00  0.00    +0.000 NA
ATOM     26  N   UNL     1       7.787   5.433  14.669  0.00  0.00    +0.000 NA
ATOM     27  C   UNL     1       6.761   4.602  14.652  0.00  0.00    +0.000 A 
ENDBRANCH  21  27
ENDBRANCH  17  21
ENDBRANCH  11  17
ENDBRANCH   1  15
BRANCH   8  28
ATOM     28  C   UNL     1       0.060   9.520  22.570  0.00  0.00    +0.000 C 
ATOM     29  F   UNL     1      -0.753   8.424  22.583  0.00  0.00    +0.000 F 
ATOM     30  F   UNL     1       1.198   9.143  23.218  0.00  0.00    +0.000 F 
ATOM     31  F   UNL     1      -0.553  10.425  23.378  0.00  0.00    +0.000 F 
ENDBRANCH   8  28
BRANCH   6  32
ATOM     32  C   UNL     1      -0.101  13.382  19.077  0.00  0.00    +0.000 C 
BRANCH  32  33
ATOM     33  N   UNL     1       0.948  14.404  19.012  0.00  0.00    +0.000 NA
ATOM     34  C   UNL     1       0.554  15.809  18.916  0.00  0.00    +0.000 C 
ATOM     35  C   UNL     1      -0.083  16.319  20.233  0.00  0.00    +0.000 C 
ATOM     36  C   UNL     1       0.780  16.164  21.484  0.00  0.00    +0.000 C 
ATOM     37  C   UNL     1       1.527  14.828  21.480  0.00  0.00    +0.000 C 
ATOM     38  C   UNL     1       2.004  14.439  20.061  0.00  0.00    +0.000 C 
ATOM     39  C   UNL     1       2.884  15.604  19.546  0.00  0.00    +0.000 C 
ATOM     40  C   UNL     1       1.958  16.321  18.564  0.00  0.00    +0.000 C 
ENDBRANCH  32  33
ENDBRANCH   6  32
TORSDOF 7
ENDMDL
MODEL 5
REMARK VINA RESULT:      -9.3      1.177      1.952
REMARK  Name = 
REMARK  8 active torsions:
REMARK  status: ('A' for Active; 'I' for Inactive)
REMARK    1  A    between atoms: C_1  and  N_2
REMARK    2  A    between atoms: C_6  and  C_7
REMARK    3  A    between atoms: C_7  and  C_8
REMARK    4  A    between atoms: C_8  and  C_9
REMARK    5  A    between atoms: C_13  and  N_14
REMARK    6  A    between atoms: C_19  and  C_20
REMARK    7  A    between atoms: C_20  and  N_21
REMARK    8  A    between atoms: C_30  and  C_31
REMARK                            x       y       z     vdW  Elec       q    Type
REMARK                         _______ _______ _______ _____ _____    ______ ____
ROOT
ATOM      1  N   UNL     1       2.029   7.663  18.961  0.00  0.00    +0.000 N 
ATOM      2  C   UNL     1       1.361   7.893  20.231  0.00  0.00    +0.000 C 
ATOM      3  C   UNL     1       1.021   9.347  20.217  0.00  0.00    +0.000 A 
ATOM      4  C   UNL     1       1.382   9.905  19.000  0.00  0.00    +0.000 A 
ATOM      5  C   UNL     1       1.123  11.252  18.708  0.00  0.00    +0.000 A 
ATOM      6  C   UNL     1       0.453  12.076  19.654  0.00  0.00    +0.000 A 
ATOM      7  C   UNL     1       0.108  11.474  20.895  0.00  0.00    +0.000 A 
ATOM      8  C   UNL     1       0.408  10.116  21.201  0.00  0.00    +0.000 A 
ATOM      9  C   UNL     1       2.041   8.845  18.193  0.00  0.00    +0.000 C 
ATOM     10  O   UNL     1       2.484   9.061  17.077  0.00  0.00    +0.000 OA
ENDROOT
BRANCH   1  15
ATOM     11  C   UNL     1       4.471   5.065  17.655  0.00  0.00    +0.000 A 
ATOM     12  C   UNL     1       3.724   3.907  17.922  0.00  0.00    +0.000 A 
ATOM     13  C   UNL     1       2.472   3.964  18.545  0.00  0.00    +0.000 A 
ATOM     14  C   UNL     1       1.909   5.196  18.910  0.00  0.00    +0.000 A 
ATOM     15  C   UNL     1       2.580   6.385  18.649  0.00  0.00    +0.000 A 
ATOM     16  C   UNL     1       3.854   6.292  18.038  0.00  0.00    +0.000 A 
BRANCH  11  17
ATOM     17  C   UNL     1       5.950   5.022  16.984  0.00  0.00    +0.000 C 
ATOM     18  C   UNL     1       7.133   4.745  17.956  0.00  0.00    +0.000 C 
ATOM     19  O   UNL     1       7.780   5.991  17.629  0.00  0.00    +0.000 OA
ATOM     20  C   UNL     1       6.687   6.376  16.769  0.00  0.00    +0.000 C 
BRANCH  17  21
ATOM     21  C   UNL     1       6.003   4.076  15.759  0.00  0.00    +0.000 C 
BRANCH  21  27
ATOM     22  C   UNL     1       5.631   3.349  12.718  0.00  0.00    +0.000 C 
ATOM     23  N   UNL     1       6.577   4.277  13.278  0.00  0.00    +0.000 N 
ATOM     24  C   UNL     1       7.500   4.982  12.565  0.00  0.00    +0.000 A 
ATOM     25  N   UNL     1       8.228   5.701  13.382  0.00  0.00    +0.000 NA
ATOM     26  N   UNL     1       7.786   5.458  14.657  0.00  0.00    +0.000 NA
ATOM     27  C   UNL     1       6.771   4.616  14.595  0.00  0.00    +0.000 A 
ENDBRANCH  21  27
ENDBRANCH  17  21
ENDBRANCH  11  17
ENDBRANCH   1  15
BRANCH   8  28
ATOM     28  C   UNL     1       0.088   9.522  22.555  0.00  0.00    +0.000 C 
ATOM     29  F   UNL     1      -0.727   8.430  22.503  0.00  0.00    +0.000 F 
ATOM     30  F   UNL     1       1.207   9.116  23.221  0.00  0.00    +0.000 F 
ATOM     31  F   UNL     1      -0.544  10.398  23.380  0.00  0.00    +0.000 F 
ENDBRANCH   8  28
BRANCH   6  32
ATOM     32  C   UNL     1       0.142  13.548  19.249  0.00  0.00    +0.000 C 
BRANCH  32  33
ATOM     33  N   UNL     1       0.743  14.635  20.027  0.00  0.00    +0.000 NA
ATOM     34  C   UNL     1       2.180  14.878  19.898  0.00  0.00    +0.000 C 
ATOM     35  C   UNL     1       2.543  15.458  18.508  0.00  0.00    +0.000 C 
ATOM     36  C   UNL     1       1.817  16.748  18.125  0.00  0.00    +0.000 C 
ATOM     37  C   UNL     1       0.351  16.711  18.564  0.00  0.00    +0.000 C 
ATOM     38  C   UNL     1       0.177  16.008  19.930  0.00  0.00    +0.000 C 
ATOM     39  C   UNL     1       1.073  16.763  20.943  0.00  0.00    +0.000 C 
ATOM     40  C   UNL     1       2.267  15.823  21.105  0.00  0.00    +0.000 C 
ENDBRANCH  32  33
ENDBRANCH   6  32
TORSDOF 7
ENDMDL
MODEL 6
REMARK VINA RESULT:      -9.3      0.616      1.361
REMARK  Name = 
REMARK  8 active torsions:
REMARK  status: ('A' for Active; 'I' for Inactive)
REMARK    1  A    between atoms: C_1  and  N_2
REMARK    2  A    between atoms: C_6  and  C_7
REMARK    3  A    between atoms: C_7  and  C_8
REMARK    4  A    between atoms: C_8  and  C_9
REMARK    5  A    between atoms: C_13  and  N_14
REMARK    6  A    between atoms: C_19  and  C_20
REMARK    7  A    between atoms: C_20  and  N_21
REMARK    8  A    between atoms: C_30  and  C_31
REMARK                            x       y       z     vdW  Elec       q    Type
REMARK                         _______ _______ _______ _____ _____    ______ ____
ROOT
ATOM      1  N   UNL     1       2.164   7.759  19.318  0.00  0.00    +0.000 N 
ATOM      2  C   UNL     1       1.407   7.970  20.542  0.00  0.00    +0.000 C 
ATOM      3  C   UNL     1       0.856   9.352  20.407  0.00  0.00    +0.000 A 
ATOM      4  C   UNL     1       1.191   9.875  19.167  0.00  0.00    +0.000 A 
ATOM      5  C   UNL     1       0.750  11.144  18.767  0.00  0.00    +0.000 A 
ATOM      6  C   UNL     1      -0.081  11.919  19.622  0.00  0.00    +0.000 A 
ATOM      7  C   UNL     1      -0.394  11.357  20.890  0.00  0.00    +0.000 A 
ATOM      8  C   UNL     1       0.088  10.083  21.306  0.00  0.00    +0.000 A 
ATOM      9  C   UNL     1       2.039   8.875  18.467  0.00  0.00    +0.000 C 
ATOM     10  O   UNL     1       2.500   9.081  17.356  0.00  0.00    +0.000 OA
ENDROOT
BRANCH   1  15
ATOM     11  C   UNL     1       5.097   5.493  18.495  0.00  0.00    +0.000 A 
ATOM     12  C   UNL     1       4.462   4.249  18.639  0.00  0.00    +0.000 A 
ATOM     13  C   UNL     1       3.122   4.147  19.030  0.00  0.00    +0.000 A 
ATOM     14  C   UNL     1       2.357   5.297  19.276  0.00  0.00    +0.000 A 
ATOM     15  C   UNL     1       2.914   6.562  19.124  0.00  0.00    +0.000 A 
ATOM     16  C   UNL     1       4.277   6.631  18.749  0.00  0.00    +0.000 A 
BRANCH  11  17
ATOM     17  C   UNL     1       6.666   5.638  18.097  0.00  0.00    +0.000 C 
ATOM     18  C   UNL     1       7.646   5.915  19.273  0.00  0.00    +0.000 C 
ATOM     19  O   UNL     1       8.099   7.152  18.692  0.00  0.00    +0.000 OA
ATOM     20  C   UNL     1       7.161   7.027  17.602  0.00  0.00    +0.000 C 
BRANCH  17  21
ATOM     21  C   UNL     1       7.156   4.451  17.232  0.00  0.00    +0.000 C 
BRANCH  21  27
ATOM     22  C   UNL     1       4.825   3.257  15.483  0.00  0.00    +0.000 C 
ATOM     23  N   UNL     1       5.907   4.093  15.033  0.00  0.00    +0.000 N 
ATOM     24  C   UNL     1       6.111   4.485  13.744  0.00  0.00    +0.000 A 
ATOM     25  N   UNL     1       7.203   5.203  13.671  0.00  0.00    +0.000 NA
ATOM     26  N   UNL     1       7.736   5.277  14.933  0.00  0.00    +0.000 NA
ATOM     27  C   UNL     1       6.941   4.628  15.763  0.00  0.00    +0.000 A 
ENDBRANCH  21  27
ENDBRANCH  17  21
ENDBRANCH  11  17
ENDBRANCH   1  15
BRANCH   8  28
ATOM     28  C   UNL     1      -0.207   9.539  22.687  0.00  0.00    +0.000 C 
ATOM     29  F   UNL     1       0.905   9.311  23.443  0.00  0.00    +0.000 F 
ATOM     30  F   UNL     1      -0.987  10.382  23.421  0.00  0.00    +0.000 F 
ATOM     31  F   UNL     1      -0.865   8.350  22.656  0.00  0.00    +0.000 F 
ENDBRANCH   8  28
BRANCH   6  32
ATOM     32  C   UNL     1      -0.586  13.297  19.098  0.00  0.00    +0.000 C 
BRANCH  32  33
ATOM     33  N   UNL     1      -0.433  14.476  19.955  0.00  0.00    +0.000 NA
ATOM     34  C   UNL     1       0.905  14.830  20.427  0.00  0.00    +0.000 C 
ATOM     35  C   UNL     1       1.801  15.353  19.276  0.00  0.00    +0.000 C 
ATOM     36  C   UNL     1       1.248  16.551  18.505  0.00  0.00    +0.000 C 
ATOM     37  C   UNL     1      -0.260  16.418  18.281  0.00  0.00    +0.000 C 
ATOM     38  C   UNL     1      -0.970  15.788  19.502  0.00  0.00    +0.000 C 
ATOM     39  C   UNL     1      -0.636  16.676  20.726  0.00  0.00    +0.000 C 
ATOM     40  C   UNL     1       0.418  15.852  21.465  0.00  0.00    +0.000 C 
ENDBRANCH  32  33
ENDBRANCH   6  32
TORSDOF 7
ENDMDL
MODEL 7
REMARK VINA RESULT:      -9.1      1.740      2.703
REMARK  Name = 
REMARK  8 active torsions:
REMARK  status: ('A' for Active; 'I' for Inactive)
REMARK    1  A    between atoms: C_1  and  N_2
REMARK    2  A    between atoms: C_6  and  C_7
REMARK    3  A    between atoms: C_7  and  C_8
REMARK    4  A    between atoms: C_8  and  C_9
REMARK    5  A    between atoms: C_13  and  N_14
REMARK    6  A    between atoms: C_19  and  C_20
REMARK    7  A    between atoms: C_20  and  N_21
REMARK    8  A    between atoms: C_30  and  C_31
REMARK                            x       y       z     vdW  Elec       q    Type
REMARK                         _______ _______ _______ _____ _____    ______ ____
ROOT
ATOM      1  N   UNL     1       2.152   7.600  18.946  0.00  0.00    +0.000 N 
ATOM      2  C   UNL     1       1.478   7.826  20.213  0.00  0.00    +0.000 C 
ATOM      3  C   UNL     1       1.037   9.253  20.153  0.00  0.00    +0.000 A 
ATOM      4  C   UNL     1       1.352   9.792  18.915  0.00  0.00    +0.000 A 
ATOM      5  C   UNL     1       0.998  11.106  18.580  0.00  0.00    +0.000 A 
ATOM      6  C   UNL     1       0.279  11.915  19.502  0.00  0.00    +0.000 A 
ATOM      7  C   UNL     1      -0.017  11.334  20.766  0.00  0.00    +0.000 A 
ATOM      8  C   UNL     1       0.378  10.010  21.115  0.00  0.00    +0.000 A 
ATOM      9  C   UNL     1       2.078   8.753  18.138  0.00  0.00    +0.000 C 
ATOM     10  O   UNL     1       2.499   8.960  17.012  0.00  0.00    +0.000 OA
ENDROOT
BRANCH   1  15
ATOM     11  C   UNL     1       4.423   5.056  17.277  0.00  0.00    +0.000 A 
ATOM     12  C   UNL     1       4.050   3.915  18.006  0.00  0.00    +0.000 A 
ATOM     13  C   UNL     1       3.109   3.977  19.040  0.00  0.00    +0.000 A 
ATOM     14  C   UNL     1       2.489   5.190  19.373  0.00  0.00    +0.000 A 
ATOM     15  C   UNL     1       2.789   6.353  18.673  0.00  0.00    +0.000 A 
ATOM     16  C   UNL     1       3.761   6.262  17.648  0.00  0.00    +0.000 A 
BRANCH  11  17
ATOM     17  C   UNL     1       5.553   5.022  16.109  0.00  0.00    +0.000 C 
ATOM     18  C   UNL     1       5.026   5.124  14.648  0.00  0.00    +0.000 C 
ATOM     19  O   UNL     1       5.603   3.855  14.281  0.00  0.00    +0.000 OA
ATOM     20  C   UNL     1       6.059   3.630  15.632  0.00  0.00    +0.000 C 
BRANCH  17  21
ATOM     21  C   UNL     1       6.684   6.048  16.366  0.00  0.00    +0.000 C 
BRANCH  21  27
ATOM     22  C   UNL     1       8.069   8.341  18.021  0.00  0.00    +0.000 C 
ATOM     23  N   UNL     1       7.916   6.963  18.407  0.00  0.00    +0.000 N 
ATOM     24  C   UNL     1       8.383   6.417  19.565  0.00  0.00    +0.000 A 
ATOM     25  N   UNL     1       8.111   5.136  19.587  0.00  0.00    +0.000 NA
ATOM     26  N   UNL     1       7.465   4.829  18.417  0.00  0.00    +0.000 NA
ATOM     27  C   UNL     1       7.323   5.937  17.712  0.00  0.00    +0.000 A 
ENDBRANCH  21  27
ENDBRANCH  17  21
ENDBRANCH  11  17
ENDBRANCH   1  15
BRANCH   8  28
ATOM     28  C   UNL     1       0.108   9.442  22.491  0.00  0.00    +0.000 C 
ATOM     29  F   UNL     1      -0.469  10.327  23.353  0.00  0.00    +0.000 F 
ATOM     30  F   UNL     1      -0.726   8.365  22.453  0.00  0.00    +0.000 F 
ATOM     31  F   UNL     1       1.238   9.021  23.119  0.00  0.00    +0.000 F 
ENDBRANCH   8  28
BRANCH   6  32
ATOM     32  C   UNL     1      -0.136  13.347  19.050  0.00  0.00    +0.000 C 
BRANCH  32  33
ATOM     33  N   UNL     1       0.896  14.384  18.960  0.00  0.00    +0.000 NA
ATOM     34  C   UNL     1       0.479  15.784  18.885  0.00  0.00    +0.000 C 
ATOM     35  C   UNL     1      -0.127  16.277  20.223  0.00  0.00    +0.000 C 
ATOM     36  C   UNL     1       0.776  16.127  21.447  0.00  0.00    +0.000 C 
ATOM     37  C   UNL     1       1.542  14.802  21.413  0.00  0.00    +0.000 C 
ATOM     38  C   UNL     1       1.982  14.429  19.978  0.00  0.00    +0.000 C 
ATOM     39  C   UNL     1       2.829  15.609  19.445  0.00  0.00    +0.000 C 
ATOM     40  C   UNL     1       1.865  16.318  18.495  0.00  0.00    +0.000 C 
ENDBRANCH  32  33
ENDBRANCH   6  32
TORSDOF 7
ENDMDL
MODEL 8
REMARK VINA RESULT:      -9.1      0.760      1.144
REMARK  Name = 
REMARK  8 active torsions:
REMARK  status: ('A' for Active; 'I' for Inactive)
REMARK    1  A    between atoms: C_1  and  N_2
REMARK    2  A    between atoms: C_6  and  C_7
REMARK    3  A    between atoms: C_7  and  C_8
REMARK    4  A    between atoms: C_8  and  C_9
REMARK    5  A    between atoms: C_13  and  N_14
REMARK    6  A    between atoms: C_19  and  C_20
REMARK    7  A    between atoms: C_20  and  N_21
REMARK    8  A    between atoms: C_30  and  C_31
REMARK                            x       y       z     vdW  Elec       q    Type
REMARK                         _______ _______ _______ _____ _____    ______ ____
ROOT
ATOM      1  N   UNL     1       1.986   7.781  19.561  0.00  0.00    +0.000 N 
ATOM      2  C   UNL     1       1.225   8.055  20.769  0.00  0.00    +0.000 C 
ATOM      3  C   UNL     1       0.659   9.420  20.553  0.00  0.00    +0.000 A 
ATOM      4  C   UNL     1       0.990   9.874  19.285  0.00  0.00    +0.000 A 
ATOM      5  C   UNL     1       0.535  11.112  18.811  0.00  0.00    +0.000 A 
ATOM      6  C   UNL     1      -0.305  11.927  19.618  0.00  0.00    +0.000 A 
ATOM      7  C   UNL     1      -0.615  11.436  20.917  0.00  0.00    +0.000 A 
ATOM      8  C   UNL     1      -0.119  10.194  21.407  0.00  0.00    +0.000 A 
ATOM      9  C   UNL     1       1.850   8.844  18.645  0.00  0.00    +0.000 C 
ATOM     10  O   UNL     1       2.311   8.990  17.525  0.00  0.00    +0.000 OA
ENDROOT
BRANCH   1  15
ATOM     11  C   UNL     1       4.861   5.473  18.658  0.00  0.00    +0.000 A 
ATOM     12  C   UNL     1       4.306   4.254  19.077  0.00  0.00    +0.000 A 
ATOM     13  C   UNL     1       3.042   4.187  19.673  0.00  0.00    +0.000 A 
ATOM     14  C   UNL     1       2.273   5.345  19.856  0.00  0.00    +0.000 A 
ATOM     15  C   UNL     1       2.749   6.583  19.437  0.00  0.00    +0.000 A 
ATOM     16  C   UNL     1       4.040   6.620  18.859  0.00  0.00    +0.000 A 
BRANCH  11  17
ATOM     17  C   UNL     1       6.349   5.585  18.013  0.00  0.00    +0.000 C 
ATOM     18  C   UNL     1       7.135   4.249  17.873  0.00  0.00    +0.000 C 
ATOM     19  O   UNL     1       8.213   4.719  18.704  0.00  0.00    +0.000 OA
ATOM     20  C   UNL     1       7.523   5.960  18.964  0.00  0.00    +0.000 C 
BRANCH  17  21
ATOM     21  C   UNL     1       6.345   6.371  16.679  0.00  0.00    +0.000 C 
BRANCH  21  27
ATOM     22  C   UNL     1       4.380   4.186  15.547  0.00  0.00    +0.000 C 
ATOM     23  N   UNL     1       5.650   4.579  14.997  0.00  0.00    +0.000 N 
ATOM     24  C   UNL     1       6.227   4.033  13.890  0.00  0.00    +0.000 A 
ATOM     25  N   UNL     1       7.395   4.587  13.685  0.00  0.00    +0.000 NA
ATOM     26  N   UNL     1       7.599   5.507  14.683  0.00  0.00    +0.000 NA
ATOM     27  C   UNL     1       6.534   5.522  15.463  0.00  0.00    +0.000 A 
ENDBRANCH  21  27
ENDBRANCH  17  21
ENDBRANCH  11  17
ENDBRANCH   1  15
BRANCH   8  28
ATOM     28  C   UNL     1      -0.411   9.728  22.817  0.00  0.00    +0.000 C 
ATOM     29  F   UNL     1      -1.194  10.585  23.534  0.00  0.00    +0.000 F 
ATOM     30  F   UNL     1      -1.056   8.528  22.844  0.00  0.00    +0.000 F 
ATOM     31  F   UNL     1       0.714   9.568  23.564  0.00  0.00    +0.000 F 
ENDBRANCH   8  28
BRANCH   6  32
ATOM     32  C   UNL     1      -0.825  13.266  19.014  0.00  0.00    +0.000 C 
BRANCH  32  33
ATOM     33  N   UNL     1       0.084  14.415  18.963  0.00  0.00    +0.000 NA
ATOM     34  C   UNL     1      -0.489  15.758  18.884  0.00  0.00    +0.000 C 
ATOM     35  C   UNL     1      -1.186  16.165  20.207  0.00  0.00    +0.000 C 
ATOM     36  C   UNL     1      -0.309  16.107  21.457  0.00  0.00    +0.000 C 
ATOM     37  C   UNL     1       0.605  14.879  21.437  0.00  0.00    +0.000 C 
ATOM     38  C   UNL     1       1.127  14.573  20.013  0.00  0.00    +0.000 C 
ATOM     39  C   UNL     1       1.849  15.849  19.514  0.00  0.00    +0.000 C 
ATOM     40  C   UNL     1       0.837  16.452  18.540  0.00  0.00    +0.000 C 
ENDBRANCH  32  33
ENDBRANCH   6  32
TORSDOF 7
ENDMDL
MODEL 9
REMARK VINA RESULT:      -9.1      2.459      9.155
REMARK  Name = 
REMARK  8 active torsions:
REMARK  status: ('A' for Active; 'I' for Inactive)
REMARK    1  A    between atoms: C_1  and  N_2
REMARK    2  A    between atoms: C_6  and  C_7
REMARK    3  A    between atoms: C_7  and  C_8
REMARK    4  A    between atoms: C_8  and  C_9
REMARK    5  A    between atoms: C_13  and  N_14
REMARK    6  A    between atoms: C_19  and  C_20
REMARK    7  A    between atoms: C_20  and  N_21
REMARK    8  A    between atoms: C_30  and  C_31
REMARK                            x       y       z     vdW  Elec       q    Type
REMARK                         _______ _______ _______ _____ _____    ______ ____
ROOT
ATOM      1  N   UNL     1       1.319   7.911  20.392  0.00  0.00    +0.000 N 
ATOM      2  C   UNL     1       1.522   6.651  21.088  0.00  0.00    +0.000 C 
ATOM      3  C   UNL     1       2.084   5.737  20.048  0.00  0.00    +0.000 A 
ATOM      4  C   UNL     1       2.276   6.431  18.863  0.00  0.00    +0.000 A 
ATOM      5  C   UNL     1       2.844   5.813  17.740  0.00  0.00    +0.000 A 
ATOM      6  C   UNL     1       3.263   4.456  17.800  0.00  0.00    +0.000 A 
ATOM      7  C   UNL     1       3.041   3.773  19.027  0.00  0.00    +0.000 A 
ATOM      8  C   UNL     1       2.429   4.394  20.153  0.00  0.00    +0.000 A 
ATOM      9  C   UNL     1       1.778   7.817  19.063  0.00  0.00    +0.000 C 
ATOM     10  O   UNL     1       1.801   8.649  18.171  0.00  0.00    +0.000 OA
ENDROOT
BRANCH   1  15
ATOM     11  C   UNL     1       0.389  11.503  21.198  0.00  0.00    +0.000 A 
ATOM     12  C   UNL     1      -0.396  11.277  22.340  0.00  0.00    +0.000 A 
ATOM     13  C   UNL     1      -0.647   9.986  22.817  0.00  0.00    +0.000 A 
ATOM     14  C   UNL     1      -0.103   8.865  22.173  0.00  0.00    +0.000 A 
ATOM     15  C   UNL     1       0.707   9.017  21.053  0.00  0.00    +0.000 A 
ATOM     16  C   UNL     1       0.924  10.334  20.583  0.00  0.00    +0.000 A 
BRANCH  11  17
ATOM     17  C   UNL     1       0.651  12.988  20.591  0.00  0.00    +0.000 C 
ATOM     18  C   UNL     1       1.761  13.095  19.506  0.00  0.00    +0.000 C 
ATOM     19  O   UNL     1       2.525  14.035  20.286  0.00  0.00    +0.000 OA
ATOM     20  C   UNL     1       1.594  13.938  21.385  0.00  0.00    +0.000 C 
BRANCH  17  21
ATOM     21  C   UNL     1      -0.661  13.659  20.114  0.00  0.00    +0.000 C 
BRANCH  21  27
ATOM     22  C   UNL     1      -3.561  12.619  20.764  0.00  0.00    +0.000 C 
ATOM     23  N   UNL     1      -2.791  12.355  19.578  0.00  0.00    +0.000 N 
ATOM     24  C   UNL     1      -3.195  11.572  18.539  0.00  0.00    +0.000 A 
ATOM     25  N   UNL     1      -2.243  11.508  17.641  0.00  0.00    +0.000 NA
ATOM     26  N   UNL     1      -1.188  12.253  18.102  0.00  0.00    +0.000 NA
ATOM     27  C   UNL     1      -1.525  12.786  19.261  0.00  0.00    +0.000 A 
ENDBRANCH  21  27
ENDBRANCH  17  21
ENDBRANCH  11  17
ENDBRANCH   1  15
BRANCH   8  28
ATOM     28  C   UNL     1       2.144   3.622  21.424  0.00  0.00    +0.000 C 
ATOM     29  F   UNL     1       0.834   3.277  21.581  0.00  0.00    +0.000 F 
ATOM     30  F   UNL     1       2.845   2.455  21.490  0.00  0.00    +0.000 F 
ATOM     31  F   UNL     1       2.465   4.318  22.547  0.00  0.00    +0.000 F 
ENDBRANCH   8  28
BRANCH   6  32
ATOM     32  C   UNL     1       3.940   3.843  16.537  0.00  0.00    +0.000 C 
BRANCH  32  33
ATOM     33  N   UNL     1       5.368   4.091  16.314  0.00  0.00    +0.000 NA
ATOM     34  C   UNL     1       5.759   5.085  15.315  0.00  0.00    +0.000 C 
ATOM     35  C   UNL     1       5.417   6.525  15.771  0.00  0.00    +0.000 C 
ATOM     36  C   UNL     1       6.019   6.952  17.109  0.00  0.00    +0.000 C 
ATOM     37  C   UNL     1       5.970   5.810  18.128  0.00  0.00    +0.000 C 
ATOM     38  C   UNL     1       6.242   4.438  17.468  0.00  0.00    +0.000 C 
ATOM     39  C   UNL     1       7.619   4.539  16.768  0.00  0.00    +0.000 C 
ATOM     40  C   UNL     1       7.241   4.682  15.294  0.00  0.00    +0.000 C 
ENDBRANCH  32  33
ENDBRANCH   6  32
TORSDOF 7
ENDMDL
