MODEL 1
REMARK VINA RESULT:     -10.1      0.000      0.000
REMARK  Name = 
REMARK  9 active torsions:
REMARK  status: ('A' for Active; 'I' for Inactive)
REMARK    1  A    between atoms: C_1  and  C_2
REMARK    2  A    between atoms: C_2  and  C_3
REMARK    3  A    between atoms: C_2  and  N_33
REMARK    4  A    between atoms: C_7  and  C_8
REMARK    5  A    between atoms: N_13  and  C_14
REMARK    6  A    between atoms: C_18  and  C_19
REMARK    7  A    between atoms: C_19  and  C_20
REMARK    8  A    between atoms: C_20  and  C_21
REMARK    9  A    between atoms: N_25  and  C_26
REMARK                            x       y       z     vdW  Elec       q    Type
REMARK                         _______ _______ _______ _____ _____    ______ ____
ROOT
ATOM      1  C   UNL     1      -0.235  11.311  19.458  0.00  0.00    +0.000 A 
ATOM      2  C   UNL     1       0.652  10.783  18.537  0.00  0.00    +0.000 A 
ATOM      3  C   UNL     1       1.267   9.619  18.914  0.00  0.00    +0.000 A 
ATOM      4  C   UNL     1       1.032   8.988  20.118  0.00  0.00    +0.000 A 
ATOM      5  C   UNL     1       0.124   9.525  21.004  0.00  0.00    +0.000 A 
ATOM      6  N   UNL     1      -0.502  10.690  20.656  0.00  0.00    +0.000 NA
ATOM      7  C   UNL     1       1.834   7.740  20.208  0.00  0.00    +0.000 C 
ATOM      8  N   UNL     1       2.432   7.655  18.876  0.00  0.00    +0.000 N 
ATOM      9  C   UNL     1       2.150   8.794  18.115  0.00  0.00    +0.000 C 
ATOM     10  O   UNL     1       2.496   9.091  16.980  0.00  0.00    +0.000 OA
ENDROOT
BRANCH   8  11
ATOM     11  C   UNL     1       2.792   6.403  18.337  0.00  0.00    +0.000 A 
ATOM     12  C   UNL     1       1.979   5.281  18.552  0.00  0.00    +0.000 A 
ATOM     13  C   UNL     1       2.425   4.017  18.195  0.00  0.00    +0.000 A 
ATOM     14  C   UNL     1       3.681   3.867  17.617  0.00  0.00    +0.000 A 
ATOM     15  C   UNL     1       4.528   4.964  17.371  0.00  0.00    +0.000 A 
ATOM     16  C   UNL     1       4.029   6.235  17.711  0.00  0.00    +0.000 A 
BRANCH  15  17
ATOM     17  C   UNL     1       6.015   4.763  16.821  0.00  0.00    +0.000 C 
ATOM     18  C   UNL     1       6.976   5.985  16.738  0.00  0.00    +0.000 C 
ATOM     19  O   UNL     1       8.029   5.229  17.402  0.00  0.00    +0.000 OA
ATOM     20  C   UNL     1       7.034   4.310  17.908  0.00  0.00    +0.000 C 
BRANCH  17  21
ATOM     21  C   UNL     1       6.050   3.875  15.564  0.00  0.00    +0.000 C 
BRANCH  21  22
ATOM     22  C   UNL     1       6.794   4.500  14.430  0.00  0.00    +0.000 A 
ATOM     23  N   UNL     1       7.740   5.413  14.532  0.00  0.00    +0.000 NA
ATOM     24  N   UNL     1       8.188   5.716  13.268  0.00  0.00    +0.000 NA
ATOM     25  C   UNL     1       7.508   4.981  12.419  0.00  0.00    +0.000 A 
ATOM     26  N   UNL     1       6.619   4.208  13.101  0.00  0.00    +0.000 N 
ATOM     27  C   UNL     1       5.699   3.276  12.508  0.00  0.00    +0.000 C 
ENDBRANCH  21  22
ENDBRANCH  17  21
ENDBRANCH  15  17
ENDBRANCH   8  11
BRANCH   5  28
ATOM     28  C   UNL     1      -0.196   8.872  22.318  0.00  0.00    +0.000 C 
ATOM     29  C   UNL     1       0.572   9.221  23.569  0.00  0.00    +0.000 C 
ATOM     30  C   UNL     1      -0.839   9.699  23.409  0.00  0.00    +0.000 C 
ENDBRANCH   5  28
BRANCH   1  32
ATOM     31  C   UNL     1      -0.981  13.435  20.492  0.00  0.00    +0.000 C 
ATOM     32  C   UNL     1      -0.875  12.664  19.164  0.00  0.00    +0.000 C 
BRANCH  32  33
ATOM     33  N   UNL     1      -2.186  12.627  18.475  0.00  0.00    +0.000 NA
ATOM     34  C   UNL     1      -3.326  12.079  19.242  0.00  0.00    +0.000 C 
ATOM     35  C   UNL     1      -4.312  11.674  18.127  0.00  0.00    +0.000 C 
ATOM     36  C   UNL     1      -3.329  10.948  17.263  0.00  0.00    +0.000 C 
ATOM     37  C   UNL     1      -3.414   9.860  16.204  0.00  0.00    +0.000 C 
ATOM     38  C   UNL     1      -3.305   9.469  17.634  0.00  0.00    +0.000 C 
ATOM     39  C   UNL     1      -2.110  11.839  17.226  0.00  0.00    +0.000 C 
ENDBRANCH  32  33
ENDBRANCH   1  32
TORSDOF 7
ENDMDL
MODEL 2
REMARK VINA RESULT:      -9.8      2.482      9.654
REMARK  Name = 
REMARK  9 active torsions:
REMARK  status: ('A' for Active; 'I' for Inactive)
REMARK    1  A    between atoms: C_1  and  C_2
REMARK    2  A    between atoms: C_2  and  C_3
REMARK    3  A    between atoms: C_2  and  N_33
REMARK    4  A    between atoms: C_7  and  C_8
REMARK    5  A    between atoms: N_13  and  C_14
REMARK    6  A    between atoms: C_18  and  C_19
REMARK    7  A    between atoms: C_19  and  C_20
REMARK    8  A    between atoms: C_20  and  C_21
REMARK    9  A    between atoms: N_25  and  C_26
REMARK                            x       y       z     vdW  Elec       q    Type
REMARK                         _______ _______ _______ _____ _____    ______ ____
ROOT
ATOM      1  C   UNL     1       3.823   5.483  18.372  0.00  0.00    +0.000 A 
ATOM      2  C   UNL     1       3.301   6.752  18.209  0.00  0.00    +0.000 A 
ATOM      3  C   UNL     1       2.345   7.117  19.122  0.00  0.00    +0.000 A 
ATOM      4  C   UNL     1       1.920   6.299  20.147  0.00  0.00    +0.000 A 
ATOM      5  C   UNL     1       2.478   5.048  20.299  0.00  0.00    +0.000 A 
ATOM      6  N   UNL     1       3.430   4.656  19.399  0.00  0.00    +0.000 NA
ATOM      7  C   UNL     1       0.900   6.998  20.971  0.00  0.00    +0.000 C 
ATOM      8  N   UNL     1       0.899   8.343  20.395  0.00  0.00    +0.000 N 
ATOM      9  C   UNL     1       1.712   8.412  19.258  0.00  0.00    +0.000 C 
ATOM     10  O   UNL     1       1.937   9.349  18.506  0.00  0.00    +0.000 OA
ENDROOT
BRANCH   8  11
ATOM     11  C   UNL     1       0.527   9.453  21.181  0.00  0.00    +0.000 A 
ATOM     12  C   UNL     1      -0.277   9.278  22.315  0.00  0.00    +0.000 A 
ATOM     13  C   UNL     1      -0.804  10.379  22.973  0.00  0.00    +0.000 A 
ATOM     14  C   UNL     1      -0.528  11.659  22.505  0.00  0.00    +0.000 A 
ATOM     15  C   UNL     1       0.283  11.886  21.377  0.00  0.00    +0.000 A 
ATOM     16  C   UNL     1       0.832  10.748  20.756  0.00  0.00    +0.000 A 
BRANCH  15  17
ATOM     17  C   UNL     1       0.490  13.354  20.780  0.00  0.00    +0.000 C 
ATOM     18  C   UNL     1       1.338  14.393  21.571  0.00  0.00    +0.000 C 
ATOM     19  O   UNL     1       2.097  14.719  20.372  0.00  0.00    +0.000 OA
ATOM     20  C   UNL     1       1.681  13.466  19.782  0.00  0.00    +0.000 C 
BRANCH  17  21
ATOM     21  C   UNL     1      -0.817  13.937  20.217  0.00  0.00    +0.000 C 
BRANCH  21  22
ATOM     22  C   UNL     1      -1.545  12.986  19.326  0.00  0.00    +0.000 A 
ATOM     23  N   UNL     1      -1.109  12.513  18.175  0.00  0.00    +0.000 NA
ATOM     24  N   UNL     1      -2.058  11.655  17.672  0.00  0.00    +0.000 NA
ATOM     25  C   UNL     1      -3.054  11.618  18.527  0.00  0.00    +0.000 A 
ATOM     26  N   UNL     1      -2.780  12.442  19.575  0.00  0.00    +0.000 N 
ATOM     27  C   UNL     1      -3.640  12.665  20.706  0.00  0.00    +0.000 C 
ENDBRANCH  21  22
ENDBRANCH  17  21
ENDBRANCH  15  17
ENDBRANCH   8  11
BRANCH   5  28
ATOM     28  C   UNL     1       2.077   4.122  21.410  0.00  0.00    +0.000 C 
ATOM     29  C   UNL     1       1.252   2.888  21.138  0.00  0.00    +0.000 C 
ATOM     30  C   UNL     1       2.704   2.747  21.480  0.00  0.00    +0.000 C 
ENDBRANCH   5  28
BRANCH   1  32
ATOM     31  C   UNL     1       4.475   3.477  17.071  0.00  0.00    +0.000 C 
ATOM     32  C   UNL     1       4.807   4.958  17.332  0.00  0.00    +0.000 C 
BRANCH  32  33
ATOM     33  N   UNL     1       6.244   5.121  17.655  0.00  0.00    +0.000 NA
ATOM     34  C   UNL     1       6.574   5.504  19.045  0.00  0.00    +0.000 C 
ATOM     35  C   UNL     1       7.983   6.114  18.895  0.00  0.00    +0.000 C 
ATOM     36  C   UNL     1       7.681   6.999  17.727  0.00  0.00    +0.000 C 
ATOM     37  C   UNL     1       8.279   8.272  17.149  0.00  0.00    +0.000 C 
ATOM     38  C   UNL     1       7.251   8.377  18.217  0.00  0.00    +0.000 C 
ATOM     39  C   UNL     1       6.873   6.138  16.785  0.00  0.00    +0.000 C 
ENDBRANCH  32  33
ENDBRANCH   1  32
TORSDOF 7
ENDMDL
MODEL 3
REMARK VINA RESULT:      -9.7      2.276      3.687
REMARK  Name = 
REMARK  9 active torsions:
REMARK  status: ('A' for Active; 'I' for Inactive)
REMARK    1  A    between atoms: C_1  and  C_2
REMARK    2  A    between atoms: C_2  and  C_3
REMARK    3  A    between atoms: C_2  and  N_33
REMARK    4  A    between atoms: C_7  and  C_8
REMARK    5  A    between atoms: N_13  and  C_14
REMARK    6  A    between atoms: C_18  and  C_19
REMARK    7  A    between atoms: C_19  and  C_20
REMARK    8  A    between atoms: C_20  and  C_21
REMARK    9  A    between atoms: N_25  and  C_26
REMARK                            x       y       z     vdW  Elec       q    Type
REMARK                         _______ _______ _______ _____ _____    ______ ____
ROOT
ATOM      1  C   UNL     1      -0.272  11.468  19.431  0.00  0.00    +0.000 A 
ATOM      2  C   UNL     1       0.616  10.903  18.535  0.00  0.00    +0.000 A 
ATOM      3  C   UNL     1       1.183   9.721  18.935  0.00  0.00    +0.000 A 
ATOM      4  C   UNL     1       0.900   9.109  20.139  0.00  0.00    +0.000 A 
ATOM      5  C   UNL     1      -0.009   9.685  20.999  0.00  0.00    +0.000 A 
ATOM      6  N   UNL     1      -0.587  10.868  20.628  0.00  0.00    +0.000 NA
ATOM      7  C   UNL     1       1.657   7.836  20.257  0.00  0.00    +0.000 C 
ATOM      8  N   UNL     1       2.281   7.718  18.940  0.00  0.00    +0.000 N 
ATOM      9  C   UNL     1       2.055   8.860  18.163  0.00  0.00    +0.000 C 
ATOM     10  O   UNL     1       2.436   9.134  17.034  0.00  0.00    +0.000 OA
ENDROOT
BRANCH   8  11
ATOM     11  C   UNL     1       2.610   6.450  18.419  0.00  0.00    +0.000 A 
ATOM     12  C   UNL     1       2.034   5.293  18.961  0.00  0.00    +0.000 A 
ATOM     13  C   UNL     1       2.499   4.041  18.588  0.00  0.00    +0.000 A 
ATOM     14  C   UNL     1       3.538   3.938  17.669  0.00  0.00    +0.000 A 
ATOM     15  C   UNL     1       4.140   5.070  17.088  0.00  0.00    +0.000 A 
ATOM     16  C   UNL     1       3.619   6.323  17.461  0.00  0.00    +0.000 A 
BRANCH  15  17
ATOM     17  C   UNL     1       5.412   4.939  16.130  0.00  0.00    +0.000 C 
ATOM     18  C   UNL     1       6.063   3.542  15.903  0.00  0.00    +0.000 C 
ATOM     19  O   UNL     1       6.062   3.752  14.462  0.00  0.00    +0.000 OA
ATOM     20  C   UNL     1       5.051   4.774  14.623  0.00  0.00    +0.000 C 
BRANCH  17  21
ATOM     21  C   UNL     1       6.440   6.056  16.379  0.00  0.00    +0.000 C 
BRANCH  21  22
ATOM     22  C   UNL     1       7.117   5.940  17.704  0.00  0.00    +0.000 A 
ATOM     23  N   UNL     1       7.135   4.870  18.476  0.00  0.00    +0.000 NA
ATOM     24  N   UNL     1       7.876   5.157  19.597  0.00  0.00    +0.000 NA
ATOM     25  C   UNL     1       8.299   6.396  19.489  0.00  0.00    +0.000 A 
ATOM     26  N   UNL     1       7.842   6.928  18.322  0.00  0.00    +0.000 N 
ATOM     27  C   UNL     1       8.098   8.265  17.860  0.00  0.00    +0.000 C 
ENDBRANCH  21  22
ENDBRANCH  17  21
ENDBRANCH  15  17
ENDBRANCH   8  11
BRANCH   5  28
ATOM     28  C   UNL     1      -0.379   9.056  22.311  0.00  0.00    +0.000 C 
ATOM     29  C   UNL     1       0.495   9.219  23.530  0.00  0.00    +0.000 C 
ATOM     30  C   UNL     1      -0.813   9.946  23.454  0.00  0.00    +0.000 C 
ENDBRANCH   5  28
BRANCH   1  32
ATOM     31  C   UNL     1      -0.059  13.435  17.939  0.00  0.00    +0.000 C 
ATOM     32  C   UNL     1      -0.859  12.839  19.111  0.00  0.00    +0.000 C 
BRANCH  32  33
ATOM     33  N   UNL     1      -0.925  13.797  20.239  0.00  0.00    +0.000 NA
ATOM     34  C   UNL     1      -2.242  14.408  20.518  0.00  0.00    +0.000 C 
ATOM     35  C   UNL     1      -1.858  15.683  21.298  0.00  0.00    +0.000 C 
ATOM     36  C   UNL     1      -0.785  16.155  20.368  0.00  0.00    +0.000 C 
ATOM     37  C   UNL     1      -0.141  17.495  20.048  0.00  0.00    +0.000 C 
ATOM     38  C   UNL     1      -1.379  17.097  19.326  0.00  0.00    +0.000 C 
ATOM     39  C   UNL     1       0.019  14.919  20.040  0.00  0.00    +0.000 C 
ENDBRANCH  32  33
ENDBRANCH   1  32
TORSDOF 7
ENDMDL
MODEL 4
REMARK VINA RESULT:      -9.7      2.237      3.783
REMARK  Name = 
REMARK  9 active torsions:
REMARK  status: ('A' for Active; 'I' for Inactive)
REMARK    1  A    between atoms: C_1  and  C_2
REMARK    2  A    between atoms: C_2  and  C_3
REMARK    3  A    between atoms: C_2  and  N_33
REMARK    4  A    between atoms: C_7  and  C_8
REMARK    5  A    between atoms: N_13  and  C_14
REMARK    6  A    between atoms: C_18  and  C_19
REMARK    7  A    between atoms: C_19  and  C_20
REMARK    8  A    between atoms: C_20  and  C_21
REMARK    9  A    between atoms: N_25  and  C_26
REMARK                            x       y       z     vdW  Elec       q    Type
REMARK                         _______ _______ _______ _____ _____    ______ ____
ROOT
ATOM      1  C   UNL     1       0.388  11.472  19.421  0.00  0.00    +0.000 A 
ATOM      2  C   UNL     1       1.251  10.852  18.537  0.00  0.00    +0.000 A 
ATOM      3  C   UNL     1       1.648   9.589  18.890  0.00  0.00    +0.000 A 
ATOM      4  C   UNL     1       1.226   8.951  20.038  0.00  0.00    +0.000 A 
ATOM      5  C   UNL     1       0.345   9.586  20.886  0.00  0.00    +0.000 A 
ATOM      6  N   UNL     1      -0.064  10.850  20.561  0.00  0.00    +0.000 NA
ATOM      7  C   UNL     1       1.815   7.589  20.114  0.00  0.00    +0.000 C 
ATOM      8  N   UNL     1       2.495   7.469  18.824  0.00  0.00    +0.000 N 
ATOM      9  C   UNL     1       2.452   8.672  18.110  0.00  0.00    +0.000 C 
ATOM     10  O   UNL     1       2.927   8.959  17.020  0.00  0.00    +0.000 OA
ENDROOT
BRANCH   8  11
ATOM     11  C   UNL     1       2.697   6.201  18.242  0.00  0.00    +0.000 A 
ATOM     12  C   UNL     1       1.870   5.124  18.590  0.00  0.00    +0.000 A 
ATOM     13  C   UNL     1       2.185   3.839  18.175  0.00  0.00    +0.000 A 
ATOM     14  C   UNL     1       3.324   3.623  17.406  0.00  0.00    +0.000 A 
ATOM     15  C   UNL     1       4.179   4.674  17.022  0.00  0.00    +0.000 A 
ATOM     16  C   UNL     1       3.809   5.969  17.429  0.00  0.00    +0.000 A 
BRANCH  15  17
ATOM     17  C   UNL     1       5.547   4.394  16.245  0.00  0.00    +0.000 C 
ATOM     18  C   UNL     1       5.613   3.247  15.194  0.00  0.00    +0.000 C 
ATOM     19  O   UNL     1       6.235   4.140  14.227  0.00  0.00    +0.000 OA
ATOM     20  C   UNL     1       5.742   5.275  14.976  0.00  0.00    +0.000 C 
BRANCH  17  21
ATOM     21  C   UNL     1       6.763   4.426  17.187  0.00  0.00    +0.000 C 
BRANCH  21  22
ATOM     22  C   UNL     1       7.296   5.803  17.404  0.00  0.00    +0.000 A 
ATOM     23  N   UNL     1       7.389   6.752  16.492  0.00  0.00    +0.000 NA
ATOM     24  N   UNL     1       7.912   7.875  17.087  0.00  0.00    +0.000 NA
ATOM     25  C   UNL     1       8.127   7.592  18.352  0.00  0.00    +0.000 A 
ATOM     26  N   UNL     1       7.763   6.303  18.594  0.00  0.00    +0.000 N 
ATOM     27  C   UNL     1       7.856   5.636  19.864  0.00  0.00    +0.000 C 
ENDBRANCH  21  22
ENDBRANCH  17  21
ENDBRANCH  15  17
ENDBRANCH   8  11
BRANCH   5  28
ATOM     28  C   UNL     1      -0.172   8.935  22.136  0.00  0.00    +0.000 C 
ATOM     29  C   UNL     1       0.494   9.167  23.471  0.00  0.00    +0.000 C 
ATOM     30  C   UNL     1      -0.837   9.794  23.189  0.00  0.00    +0.000 C 
ENDBRANCH   5  28
BRANCH   1  32
ATOM     31  C   UNL     1       1.155  13.606  18.421  0.00  0.00    +0.000 C 
ATOM     32  C   UNL     1      -0.010  12.921  19.159  0.00  0.00    +0.000 C 
BRANCH  32  33
ATOM     33  N   UNL     1      -0.412  13.710  20.347  0.00  0.00    +0.000 NA
ATOM     34  C   UNL     1      -1.246  14.906  20.100  0.00  0.00    +0.000 C 
ATOM     35  C   UNL     1      -1.005  15.746  21.372  0.00  0.00    +0.000 C 
ATOM     36  C   UNL     1       0.487  15.633  21.391  0.00  0.00    +0.000 C 
ATOM     37  C   UNL     1       1.628  16.450  21.975  0.00  0.00    +0.000 C 
ATOM     38  C   UNL     1       1.106  16.800  20.628  0.00  0.00    +0.000 C 
ATOM     39  C   UNL     1       0.771  14.178  21.100  0.00  0.00    +0.000 C 
ENDBRANCH  32  33
ENDBRANCH   1  32
TORSDOF 7
ENDMDL
MODEL 5
REMARK VINA RESULT:      -9.7      2.825      5.063
REMARK  Name = 
REMARK  9 active torsions:
REMARK  status: ('A' for Active; 'I' for Inactive)
REMARK    1  A    between atoms: C_1  and  C_2
REMARK    2  A    between atoms: C_2  and  C_3
REMARK    3  A    between atoms: C_2  and  N_33
REMARK    4  A    between atoms: C_7  and  C_8
REMARK    5  A    between atoms: N_13  and  C_14
REMARK    6  A    between atoms: C_18  and  C_19
REMARK    7  A    between atoms: C_19  and  C_20
REMARK    8  A    between atoms: C_20  and  C_21
REMARK    9  A    between atoms: N_25  and  C_26
REMARK                            x       y       z     vdW  Elec       q    Type
REMARK                         _______ _______ _______ _____ _____    ______ ____
ROOT
ATOM      1  C   UNL     1      -1.754  12.409  20.226  0.00  0.00    +0.000 A 
ATOM      2  C   UNL     1      -0.820  11.533  20.746  0.00  0.00    +0.000 A 
ATOM      3  C   UNL     1      -0.423  10.528  19.903  0.00  0.00    +0.000 A 
ATOM      4  C   UNL     1      -0.898  10.380  18.617  0.00  0.00    +0.000 A 
ATOM      5  C   UNL     1      -1.810  11.284  18.119  0.00  0.00    +0.000 A 
ATOM      6  N   UNL     1      -2.228  12.295  18.940  0.00  0.00    +0.000 NA
ATOM      7  C   UNL     1      -0.252   9.212  17.963  0.00  0.00    +0.000 C 
ATOM      8  N   UNL     1       0.740   8.805  18.956  0.00  0.00    +0.000 N 
ATOM      9  C   UNL     1       0.612   9.542  20.139  0.00  0.00    +0.000 C 
ATOM     10  O   UNL     1       1.238   9.468  21.186  0.00  0.00    +0.000 OA
ENDROOT
BRANCH   8  11
ATOM     11  C   UNL     1       1.914   8.136  18.556  0.00  0.00    +0.000 A 
ATOM     12  C   UNL     1       2.795   8.738  17.647  0.00  0.00    +0.000 A 
ATOM     13  C   UNL     1       3.842   8.009  17.101  0.00  0.00    +0.000 A 
ATOM     14  C   UNL     1       4.016   6.677  17.464  0.00  0.00    +0.000 A 
ATOM     15  C   UNL     1       3.165   6.033  18.381  0.00  0.00    +0.000 A 
ATOM     16  C   UNL     1       2.137   6.812  18.943  0.00  0.00    +0.000 A 
BRANCH  15  17
ATOM     17  C   UNL     1       3.304   4.472  18.693  0.00  0.00    +0.000 C 
ATOM     18  C   UNL     1       3.017   3.946  20.130  0.00  0.00    +0.000 C 
ATOM     19  O   UNL     1       2.159   2.897  19.598  0.00  0.00    +0.000 OA
ATOM     20  C   UNL     1       2.023   3.647  18.370  0.00  0.00    +0.000 C 
BRANCH  17  21
ATOM     21  C   UNL     1       4.575   3.869  18.068  0.00  0.00    +0.000 C 
BRANCH  21  22
ATOM     22  C   UNL     1       5.828   4.517  18.557  0.00  0.00    +0.000 A 
ATOM     23  N   UNL     1       6.076   4.890  19.797  0.00  0.00    +0.000 NA
ATOM     24  N   UNL     1       7.341   5.426  19.844  0.00  0.00    +0.000 NA
ATOM     25  C   UNL     1       7.842   5.369  18.631  0.00  0.00    +0.000 A 
ATOM     26  N   UNL     1       6.927   4.814  17.790  0.00  0.00    +0.000 N 
ATOM     27  C   UNL     1       7.117   4.591  16.382  0.00  0.00    +0.000 C 
ENDBRANCH  21  22
ENDBRANCH  17  21
ENDBRANCH  15  17
ENDBRANCH   8  11
BRANCH   5  28
ATOM     28  C   UNL     1      -2.346  11.194  16.719  0.00  0.00    +0.000 C 
ATOM     29  C   UNL     1      -3.019   9.938  16.220  0.00  0.00    +0.000 C 
ATOM     30  C   UNL     1      -3.843  11.156  16.508  0.00  0.00    +0.000 C 
ENDBRANCH   5  28
BRANCH   1  32
ATOM     31  C   UNL     1      -1.391  14.705  21.086  0.00  0.00    +0.000 C 
ATOM     32  C   UNL     1      -2.332  13.487  21.138  0.00  0.00    +0.000 C 
BRANCH  32  33
ATOM     33  N   UNL     1      -2.587  13.084  22.541  0.00  0.00    +0.000 NA
ATOM     34  C   UNL     1      -4.002  12.939  22.944  0.00  0.00    +0.000 C 
ATOM     35  C   UNL     1      -3.926  13.079  24.479  0.00  0.00    +0.000 C 
ATOM     36  C   UNL     1      -3.064  14.302  24.512  0.00  0.00    +0.000 C 
ATOM     37  C   UNL     1      -2.811  15.423  25.507  0.00  0.00    +0.000 C 
ATOM     38  C   UNL     1      -3.937  15.552  24.545  0.00  0.00    +0.000 C 
ATOM     39  C   UNL     1      -1.983  14.044  23.489  0.00  0.00    +0.000 C 
ENDBRANCH  32  33
ENDBRANCH   1  32
TORSDOF 7
ENDMDL
MODEL 6
REMARK VINA RESULT:      -9.6      1.991      3.636
REMARK  Name = 
REMARK  9 active torsions:
REMARK  status: ('A' for Active; 'I' for Inactive)
REMARK    1  A    between atoms: C_1  and  C_2
REMARK    2  A    between atoms: C_2  and  C_3
REMARK    3  A    between atoms: C_2  and  N_33
REMARK    4  A    between atoms: C_7  and  C_8
REMARK    5  A    between atoms: N_13  and  C_14
REMARK    6  A    between atoms: C_18  and  C_19
REMARK    7  A    between atoms: C_19  and  C_20
REMARK    8  A    between atoms: C_20  and  C_21
REMARK    9  A    between atoms: N_25  and  C_26
REMARK                            x       y       z     vdW  Elec       q    Type
REMARK                         _______ _______ _______ _____ _____    ______ ____
ROOT
ATOM      1  C   UNL     1      -0.664  10.808  19.046  0.00  0.00    +0.000 A 
ATOM      2  C   UNL     1       0.291  10.261  18.209  0.00  0.00    +0.000 A 
ATOM      3  C   UNL     1       1.067   9.278  18.765  0.00  0.00    +0.000 A 
ATOM      4  C   UNL     1       0.924   8.837  20.063  0.00  0.00    +0.000 A 
ATOM      5  C   UNL     1      -0.055   9.384  20.865  0.00  0.00    +0.000 A 
ATOM      6  N   UNL     1      -0.841  10.371  20.339  0.00  0.00    +0.000 NA
ATOM      7  C   UNL     1       1.897   7.750  20.346  0.00  0.00    +0.000 C 
ATOM      8  N   UNL     1       2.504   7.523  19.035  0.00  0.00    +0.000 N 
ATOM      9  C   UNL     1       2.061   8.463  18.098  0.00  0.00    +0.000 C 
ATOM     10  O   UNL     1       2.362   8.606  16.921  0.00  0.00    +0.000 OA
ENDROOT
BRANCH   8  11
ATOM     11  C   UNL     1       3.041   6.262  18.709  0.00  0.00    +0.000 A 
ATOM     12  C   UNL     1       2.920   5.190  19.604  0.00  0.00    +0.000 A 
ATOM     13  C   UNL     1       3.613   4.010  19.378  0.00  0.00    +0.000 A 
ATOM     14  C   UNL     1       4.425   3.892  18.255  0.00  0.00    +0.000 A 
ATOM     15  C   UNL     1       4.569   4.936  17.321  0.00  0.00    +0.000 A 
ATOM     16  C   UNL     1       3.823   6.105  17.562  0.00  0.00    +0.000 A 
BRANCH  15  17
ATOM     17  C   UNL     1       5.599   4.831  16.104  0.00  0.00    +0.000 C 
ATOM     18  C   UNL     1       6.047   3.429  15.596  0.00  0.00    +0.000 C 
ATOM     19  O   UNL     1       5.774   3.817  14.219  0.00  0.00    +0.000 OA
ATOM     20  C   UNL     1       4.925   4.884  14.701  0.00  0.00    +0.000 C 
BRANCH  17  21
ATOM     21  C   UNL     1       6.763   5.827  16.246  0.00  0.00    +0.000 C 
BRANCH  21  22
ATOM     22  C   UNL     1       7.381   5.811  17.605  0.00  0.00    +0.000 A 
ATOM     23  N   UNL     1       7.594   4.743  18.349  0.00  0.00    +0.000 NA
ATOM     24  N   UNL     1       8.196   5.143  19.518  0.00  0.00    +0.000 NA
ATOM     25  C   UNL     1       8.342   6.447  19.465  0.00  0.00    +0.000 A 
ATOM     26  N   UNL     1       7.839   6.910  18.288  0.00  0.00    +0.000 N 
ATOM     27  C   UNL     1       7.818   8.288  17.876  0.00  0.00    +0.000 C 
ENDBRANCH  21  22
ENDBRANCH  17  21
ENDBRANCH  15  17
ENDBRANCH   8  11
BRANCH   5  28
ATOM     28  C   UNL     1      -0.279   8.929  22.278  0.00  0.00    +0.000 C 
ATOM     29  C   UNL     1       0.631   9.376  23.397  0.00  0.00    +0.000 C 
ATOM     30  C   UNL     1      -0.758   9.932  23.304  0.00  0.00    +0.000 C 
ENDBRANCH   5  28
BRANCH   1  32
ATOM     31  C   UNL     1      -1.853  11.712  17.069  0.00  0.00    +0.000 C 
ATOM     32  C   UNL     1      -1.492  11.985  18.541  0.00  0.00    +0.000 C 
BRANCH  32  33
ATOM     33  N   UNL     1      -0.876  13.324  18.688  0.00  0.00    +0.000 NA
ATOM     34  C   UNL     1       0.565  13.432  18.374  0.00  0.00    +0.000 C 
ATOM     35  C   UNL     1       0.975  14.709  19.135  0.00  0.00    +0.000 C 
ATOM     36  C   UNL     1       0.323  14.369  20.439  0.00  0.00    +0.000 C 
ATOM     37  C   UNL     1       0.526  14.773  21.890  0.00  0.00    +0.000 C 
ATOM     38  C   UNL     1       1.314  13.639  21.339  0.00  0.00    +0.000 C 
ATOM     39  C   UNL     1      -1.040  13.837  20.065  0.00  0.00    +0.000 C 
ENDBRANCH  32  33
ENDBRANCH   1  32
TORSDOF 7
ENDMDL
MODEL 7
REMARK VINA RESULT:      -9.6      3.076      9.748
REMARK  Name = 
REMARK  9 active torsions:
REMARK  status: ('A' for Active; 'I' for Inactive)
REMARK    1  A    between atoms: C_1  and  C_2
REMARK    2  A    between atoms: C_2  and  C_3
REMARK    3  A    between atoms: C_2  and  N_33
REMARK    4  A    between atoms: C_7  and  C_8
REMARK    5  A    between atoms: N_13  and  C_14
REMARK    6  A    between atoms: C_18  and  C_19
REMARK    7  A    between atoms: C_19  and  C_20
REMARK    8  A    between atoms: C_20  and  C_21
REMARK    9  A    between atoms: N_25  and  C_26
REMARK                            x       y       z     vdW  Elec       q    Type
REMARK                         _______ _______ _______ _____ _____    ______ ____
ROOT
ATOM      1  C   UNL     1       3.869   5.473  18.385  0.00  0.00    +0.000 A 
ATOM      2  C   UNL     1       3.321   6.730  18.209  0.00  0.00    +0.000 A 
ATOM      3  C   UNL     1       2.368   7.090  19.125  0.00  0.00    +0.000 A 
ATOM      4  C   UNL     1       1.968   6.280  20.167  0.00  0.00    +0.000 A 
ATOM      5  C   UNL     1       2.550   5.042  20.331  0.00  0.00    +0.000 A 
ATOM      6  N   UNL     1       3.501   4.654  19.427  0.00  0.00    +0.000 NA
ATOM      7  C   UNL     1       0.942   6.972  20.990  0.00  0.00    +0.000 C 
ATOM      8  N   UNL     1       0.911   8.307  20.395  0.00  0.00    +0.000 N 
ATOM      9  C   UNL     1       1.711   8.375  19.249  0.00  0.00    +0.000 C 
ATOM     10  O   UNL     1       1.912   9.305  18.482  0.00  0.00    +0.000 OA
ENDROOT
BRANCH   8  11
ATOM     11  C   UNL     1       0.526   9.421  21.168  0.00  0.00    +0.000 A 
ATOM     12  C   UNL     1      -0.174   9.240  22.369  0.00  0.00    +0.000 A 
ATOM     13  C   UNL     1      -0.723  10.330  23.028  0.00  0.00    +0.000 A 
ATOM     14  C   UNL     1      -0.572  11.606  22.495  0.00  0.00    +0.000 A 
ATOM     15  C   UNL     1       0.131  11.839  21.298  0.00  0.00    +0.000 A 
ATOM     16  C   UNL     1       0.707  10.716  20.675  0.00  0.00    +0.000 A 
BRANCH  15  17
ATOM     17  C   UNL     1       0.190  13.292  20.635  0.00  0.00    +0.000 C 
ATOM     18  C   UNL     1       0.705  13.449  19.174  0.00  0.00    +0.000 C 
ATOM     19  O   UNL     1      -0.447  14.272  18.833  0.00  0.00    +0.000 OA
ATOM     20  C   UNL     1      -1.150  13.740  19.980  0.00  0.00    +0.000 C 
BRANCH  17  21
ATOM     21  C   UNL     1       0.765  14.343  21.599  0.00  0.00    +0.000 C 
BRANCH  21  22
ATOM     22  C   UNL     1       2.226  14.578  21.403  0.00  0.00    +0.000 A 
ATOM     23  N   UNL     1       3.197  13.752  21.741  0.00  0.00    +0.000 NA
ATOM     24  N   UNL     1       4.395  14.321  21.379  0.00  0.00    +0.000 NA
ATOM     25  C   UNL     1       4.133  15.482  20.824  0.00  0.00    +0.000 A 
ATOM     26  N   UNL     1       2.787  15.688  20.825  0.00  0.00    +0.000 N 
ATOM     27  C   UNL     1       2.124  16.852  20.302  0.00  0.00    +0.000 C 
ENDBRANCH  21  22
ENDBRANCH  17  21
ENDBRANCH  15  17
ENDBRANCH   8  11
BRANCH   5  28
ATOM     28  C   UNL     1       2.177   4.124  21.458  0.00  0.00    +0.000 C 
ATOM     29  C   UNL     1       1.171   3.016  21.264  0.00  0.00    +0.000 C 
ATOM     30  C   UNL     1       2.624   2.680  21.407  0.00  0.00    +0.000 C 
ENDBRANCH   5  28
BRANCH   1  32
ATOM     31  C   UNL     1       4.537   3.465  17.095  0.00  0.00    +0.000 C 
ATOM     32  C   UNL     1       4.853   4.952  17.343  0.00  0.00    +0.000 C 
BRANCH  32  33
ATOM     33  N   UNL     1       6.289   5.135  17.656  0.00  0.00    +0.000 NA
ATOM     34  C   UNL     1       6.625   5.511  19.046  0.00  0.00    +0.000 C 
ATOM     35  C   UNL     1       8.023   6.144  18.890  0.00  0.00    +0.000 C 
ATOM     36  C   UNL     1       7.698   7.034  17.731  0.00  0.00    +0.000 C 
ATOM     37  C   UNL     1       8.272   8.320  17.159  0.00  0.00    +0.000 C 
ATOM     38  C   UNL     1       7.251   8.401  18.237  0.00  0.00    +0.000 C 
ATOM     39  C   UNL     1       6.895   6.169  16.789  0.00  0.00    +0.000 C 
ENDBRANCH  32  33
ENDBRANCH   1  32
TORSDOF 7
ENDMDL
MODEL 8
REMARK VINA RESULT:      -9.6      3.558      6.107
REMARK  Name = 
REMARK  9 active torsions:
REMARK  status: ('A' for Active; 'I' for Inactive)
REMARK    1  A    between atoms: C_1  and  C_2
REMARK    2  A    between atoms: C_2  and  C_3
REMARK    3  A    between atoms: C_2  and  N_33
REMARK    4  A    between atoms: C_7  and  C_8
REMARK    5  A    between atoms: N_13  and  C_14
REMARK    6  A    between atoms: C_18  and  C_19
REMARK    7  A    between atoms: C_19  and  C_20
REMARK    8  A    between atoms: C_20  and  C_21
REMARK    9  A    between atoms: N_25  and  C_26
REMARK                            x       y       z     vdW  Elec       q    Type
REMARK                         _______ _______ _______ _____ _____    ______ ____
ROOT
ATOM      1  C   UNL     1      -0.031  15.486  19.024  0.00  0.00    +0.000 A 
ATOM      2  C   UNL     1      -0.690  14.277  19.147  0.00  0.00    +0.000 A 
ATOM      3  C   UNL     1       0.087  13.162  18.972  0.00  0.00    +0.000 A 
ATOM      4  C   UNL     1       1.438  13.210  18.699  0.00  0.00    +0.000 A 
ATOM      5  C   UNL     1       2.072  14.430  18.607  0.00  0.00    +0.000 A 
ATOM      6  N   UNL     1       1.320  15.560  18.772  0.00  0.00    +0.000 NA
ATOM      7  C   UNL     1       1.989  11.835  18.592  0.00  0.00    +0.000 C 
ATOM      8  N   UNL     1       0.845  11.008  18.976  0.00  0.00    +0.000 N 
ATOM      9  C   UNL     1      -0.308  11.780  19.149  0.00  0.00    +0.000 C 
ATOM     10  O   UNL     1      -1.447  11.443  19.441  0.00  0.00    +0.000 OA
ENDROOT
BRANCH   8  11
ATOM     11  C   UNL     1       1.048   9.735  19.548  0.00  0.00    +0.000 A 
ATOM     12  C   UNL     1       0.826   9.531  20.916  0.00  0.00    +0.000 A 
ATOM     13  C   UNL     1       1.211   8.342  21.517  0.00  0.00    +0.000 A 
ATOM     14  C   UNL     1       1.814   7.348  20.753  0.00  0.00    +0.000 A 
ATOM     15  C   UNL     1       2.048   7.502  19.374  0.00  0.00    +0.000 A 
ATOM     16  C   UNL     1       1.612   8.705  18.790  0.00  0.00    +0.000 A 
BRANCH  15  17
ATOM     17  C   UNL     1       2.853   6.403  18.537  0.00  0.00    +0.000 C 
ATOM     18  C   UNL     1       3.972   6.855  17.553  0.00  0.00    +0.000 C 
ATOM     19  O   UNL     1       4.889   5.870  18.110  0.00  0.00    +0.000 OA
ATOM     20  C   UNL     1       4.069   5.797  19.299  0.00  0.00    +0.000 C 
BRANCH  17  21
ATOM     21  C   UNL     1       1.921   5.330  17.948  0.00  0.00    +0.000 C 
BRANCH  21  22
ATOM     22  C   UNL     1       1.771   4.138  18.834  0.00  0.00    +0.000 A 
ATOM     23  N   UNL     1       0.960   4.038  19.869  0.00  0.00    +0.000 NA
ATOM     24  N   UNL     1       1.102   2.782  20.410  0.00  0.00    +0.000 NA
ATOM     25  C   UNL     1       1.996   2.139  19.695  0.00  0.00    +0.000 A 
ATOM     26  N   UNL     1       2.448   2.952  18.701  0.00  0.00    +0.000 N 
ATOM     27  C   UNL     1       3.436   2.596  17.719  0.00  0.00    +0.000 C 
ENDBRANCH  21  22
ENDBRANCH  17  21
ENDBRANCH  15  17
ENDBRANCH   8  11
BRANCH   5  28
ATOM     28  C   UNL     1       3.544  14.549  18.338  0.00  0.00    +0.000 C 
ATOM     29  C   UNL     1       4.183  15.890  18.072  0.00  0.00    +0.000 C 
ATOM     30  C   UNL     1       4.429  15.199  19.378  0.00  0.00    +0.000 C 
ENDBRANCH   5  28
BRANCH   1  32
ATOM     31  C   UNL     1      -0.145  17.823  18.210  0.00  0.00    +0.000 C 
ATOM     32  C   UNL     1      -0.845  16.773  19.092  0.00  0.00    +0.000 C 
BRANCH  32  33
ATOM     33  N   UNL     1      -1.096  17.314  20.448  0.00  0.00    +0.000 NA
ATOM     34  C   UNL     1       0.003  17.186  21.429  0.00  0.00    +0.000 C 
ATOM     35  C   UNL     1      -0.739  17.301  22.776  0.00  0.00    +0.000 C 
ATOM     36  C   UNL     1      -1.837  16.332  22.469  0.00  0.00    +0.000 C 
ATOM     37  C   UNL     1      -2.778  15.465  23.289  0.00  0.00    +0.000 C 
ATOM     38  C   UNL     1      -1.438  14.933  22.927  0.00  0.00    +0.000 C 
ATOM     39  C   UNL     1      -2.278  16.676  21.066  0.00  0.00    +0.000 C 
ENDBRANCH  32  33
ENDBRANCH   1  32
TORSDOF 7
ENDMDL
MODEL 9
REMARK VINA RESULT:      -9.6      3.261      5.062
REMARK  Name = 
REMARK  9 active torsions:
REMARK  status: ('A' for Active; 'I' for Inactive)
REMARK    1  A    between atoms: C_1  and  C_2
REMARK    2  A    between atoms: C_2  and  C_3
REMARK    3  A    between atoms: C_2  and  N_33
REMARK    4  A    between atoms: C_7  and  C_8
REMARK    5  A    between atoms: N_13  and  C_14
REMARK    6  A    between atoms: C_18  and  C_19
REMARK    7  A    between atoms: C_19  and  C_20
REMARK    8  A    between atoms: C_20  and  C_21
REMARK    9  A    between atoms: N_25  and  C_26
REMARK                            x       y       z     vdW  Elec       q    Type
REMARK                         _______ _______ _______ _____ _____    ______ ____
ROOT
ATOM      1  C   UNL     1      -0.177  14.005  19.495  0.00  0.00    +0.000 A 
ATOM      2  C   UNL     1      -0.651  12.706  19.521  0.00  0.00    +0.000 A 
ATOM      3  C   UNL     1       0.229  11.750  19.087  0.00  0.00    +0.000 A 
ATOM      4  C   UNL     1       1.509  12.032  18.657  0.00  0.00    +0.000 A 
ATOM      5  C   UNL     1       1.962  13.333  18.668  0.00  0.00    +0.000 A 
ATOM      6  N   UNL     1       1.102  14.310  19.091  0.00  0.00    +0.000 NA
ATOM      7  C   UNL     1       2.212  10.777  18.281  0.00  0.00    +0.000 C 
ATOM      8  N   UNL     1       1.251   9.749  18.678  0.00  0.00    +0.000 N 
ATOM      9  C   UNL     1       0.045  10.314  19.106  0.00  0.00    +0.000 C 
ATOM     10  O   UNL     1      -0.987   9.778  19.485  0.00  0.00    +0.000 OA
ENDROOT
BRANCH   8  11
ATOM     11  C   UNL     1       1.696   8.457  19.026  0.00  0.00    +0.000 A 
ATOM     12  C   UNL     1       1.388   7.918  20.282  0.00  0.00    +0.000 A 
ATOM     13  C   UNL     1       1.985   6.738  20.701  0.00  0.00    +0.000 A 
ATOM     14  C   UNL     1       2.888   6.089  19.866  0.00  0.00    +0.000 A 
ATOM     15  C   UNL     1       3.221   6.585  18.592  0.00  0.00    +0.000 A 
ATOM     16  C   UNL     1       2.569   7.763  18.183  0.00  0.00    +0.000 A 
BRANCH  15  17
ATOM     17  C   UNL     1       4.351   5.895  17.697  0.00  0.00    +0.000 C 
ATOM     18  C   UNL     1       5.346   6.785  16.895  0.00  0.00    +0.000 C 
ATOM     19  O   UNL     1       6.475   6.017  17.401  0.00  0.00    +0.000 OA
ATOM     20  C   UNL     1       5.646   5.535  18.484  0.00  0.00    +0.000 C 
BRANCH  17  21
ATOM     21  C   UNL     1       3.800   4.712  16.882  0.00  0.00    +0.000 C 
BRANCH  21  22
ATOM     22  C   UNL     1       2.728   3.960  17.599  0.00  0.00    +0.000 A 
ATOM     23  N   UNL     1       1.429   4.101  17.422  0.00  0.00    +0.000 NA
ATOM     24  N   UNL     1       0.780   3.219  18.252  0.00  0.00    +0.000 NA
ATOM     25  C   UNL     1       1.695   2.554  18.919  0.00  0.00    +0.000 A 
ATOM     26  N   UNL     1       2.930   2.990  18.548  0.00  0.00    +0.000 N 
ATOM     27  C   UNL     1       4.178   2.497  19.066  0.00  0.00    +0.000 C 
ENDBRANCH  21  22
ENDBRANCH  17  21
ENDBRANCH  15  17
ENDBRANCH   8  11
BRANCH   5  28
ATOM     28  C   UNL     1       3.352  13.702  18.237  0.00  0.00    +0.000 C 
ATOM     29  C   UNL     1       3.681  15.099  17.771  0.00  0.00    +0.000 C 
ATOM     30  C   UNL     1       4.167  14.631  19.109  0.00  0.00    +0.000 C 
ENDBRANCH   5  28
BRANCH   1  32
ATOM     31  C   UNL     1      -0.535  16.450  19.310  0.00  0.00    +0.000 C 
ATOM     32  C   UNL     1      -1.132  15.139  19.854  0.00  0.00    +0.000 C 
BRANCH  32  33
ATOM     33  N   UNL     1      -1.470  15.275  21.290  0.00  0.00    +0.000 NA
ATOM     34  C   UNL     1      -0.397  14.964  22.259  0.00  0.00    +0.000 C 
ATOM     35  C   UNL     1      -1.191  14.660  23.546  0.00  0.00    +0.000 C 
ATOM     36  C   UNL     1      -2.196  13.736  22.933  0.00  0.00    +0.000 C 
ATOM     37  C   UNL     1      -3.090  12.617  23.442  0.00  0.00    +0.000 C 
ATOM     38  C   UNL     1      -1.700  12.296  23.024  0.00  0.00    +0.000 C 
ATOM     39  C   UNL     1      -2.617  14.414  21.651  0.00  0.00    +0.000 C 
ENDBRANCH  32  33
ENDBRANCH   1  32
TORSDOF 7
ENDMDL
