MODEL 1
REMARK VINA RESULT:     -10.2      0.000      0.000
REMARK  Name = 
REMARK  8 active torsions:
REMARK  status: ('A' for Active; 'I' for Inactive)
REMARK    1  A    between atoms: C_1  and  N_2
REMARK    2  A    between atoms: C_6  and  C_7
REMARK    3  A    between atoms: C_7  and  C_9
REMARK    4  A    between atoms: C_9  and  C_10
REMARK    5  A    between atoms: C_14  and  N_15
REMARK    6  A    between atoms: C_20  and  C_21
REMARK    7  A    between atoms: C_21  and  N_22
REMARK    8  A    between atoms: C_31  and  C_32
REMARK                            x       y       z     vdW  Elec       q    Type
REMARK                         _______ _______ _______ _____ _____    ______ ____
ROOT
ATOM      1  N   UNL     1       2.128   7.598  19.551  0.00  0.00    +0.000 N 
ATOM      2  C   UNL     1       1.390   7.920  20.756  0.00  0.00    +0.000 C 
ATOM      3  C   UNL     1       0.740   9.239  20.465  0.00  0.00    +0.000 A 
ATOM      4  C   UNL     1       1.026   9.623  19.163  0.00  0.00    +0.000 A 
ATOM      5  C   UNL     1       0.507  10.798  18.610  0.00  0.00    +0.000 A 
ATOM      6  C   UNL     1      -0.358  11.623  19.376  0.00  0.00    +0.000 A 
ATOM      7  C   UNL     1      -0.625  11.211  20.709  0.00  0.00    +0.000 A 
ATOM      8  C   UNL     1      -0.061  10.034  21.280  0.00  0.00    +0.000 A 
ATOM      9  C   UNL     1       1.935   8.600  18.582  0.00  0.00    +0.000 C 
ATOM     10  O   UNL     1       2.382   8.707  17.454  0.00  0.00    +0.000 OA
ENDROOT
BRANCH   1  15
ATOM     11  C   UNL     1       5.174   5.394  18.910  0.00  0.00    +0.000 A 
ATOM     12  C   UNL     1       4.625   4.164  19.311  0.00  0.00    +0.000 A 
ATOM     13  C   UNL     1       3.307   4.054  19.771  0.00  0.00    +0.000 A 
ATOM     14  C   UNL     1       2.481   5.177  19.861  0.00  0.00    +0.000 A 
ATOM     15  C   UNL     1       2.951   6.430  19.483  0.00  0.00    +0.000 A 
ATOM     16  C   UNL     1       4.291   6.508  19.011  0.00  0.00    +0.000 A 
BRANCH  11  17
ATOM     17  C   UNL     1       6.702   5.537  18.320  0.00  0.00    +0.000 C 
ATOM     18  C   UNL     1       7.764   5.825  19.417  0.00  0.00    +0.000 C 
ATOM     19  O   UNL     1       8.177   7.053  18.785  0.00  0.00    +0.000 OA
ATOM     20  C   UNL     1       7.183   6.897  17.749  0.00  0.00    +0.000 C 
BRANCH  17  21
ATOM     21  C   UNL     1       7.144   4.351  17.434  0.00  0.00    +0.000 C 
ATOM     22  F   UNL     1       8.479   4.124  17.648  0.00  0.00    +0.000 F 
BRANCH  21  28
ATOM     23  C   UNL     1       4.491   3.593  15.857  0.00  0.00    +0.000 C 
ATOM     24  N   UNL     1       5.688   4.201  15.331  0.00  0.00    +0.000 N 
ATOM     25  C   UNL     1       5.845   4.625  14.044  0.00  0.00    +0.000 A 
ATOM     26  N   UNL     1       7.038   5.111  13.880  0.00  0.00    +0.000 NA
ATOM     27  N   UNL     1       7.686   5.043  15.091  0.00  0.00    +0.000 NA
ATOM     28  C   UNL     1       6.872   4.489  15.971  0.00  0.00    +0.000 A 
ENDBRANCH  21  28
ENDBRANCH  17  21
ENDBRANCH  11  17
ENDBRANCH   1  15
BRANCH   8  29
ATOM     29  C   UNL     1      -0.306   9.670  22.725  0.00  0.00    +0.000 C 
ATOM     30  F   UNL     1      -1.045  10.596  23.408  0.00  0.00    +0.000 F 
ATOM     31  F   UNL     1      -0.991   8.501  22.862  0.00  0.00    +0.000 F 
ATOM     32  F   UNL     1       0.840   9.526  23.441  0.00  0.00    +0.000 F 
ENDBRANCH   8  29
BRANCH   6  33
ATOM     33  C   UNL     1      -0.956  12.885  18.695  0.00  0.00    +0.000 C 
BRANCH  33  34
ATOM     34  N   UNL     1      -0.123  14.088  18.614  0.00  0.00    +0.000 NA
ATOM     35  C   UNL     1      -0.600  15.306  19.270  0.00  0.00    +0.000 C 
ATOM     36  C   UNL     1      -0.587  15.194  20.814  0.00  0.00    +0.000 C 
ATOM     37  C   UNL     1       0.762  14.822  21.426  0.00  0.00    +0.000 C 
ATOM     38  C   UNL     1       1.490  13.775  20.581  0.00  0.00    +0.000 C 
ATOM     39  C   UNL     1       1.292  14.015  19.067  0.00  0.00    +0.000 C 
ATOM     40  C   UNL     1       1.766  15.454  18.760  0.00  0.00    +0.000 C 
ATOM     41  C   UNL     1       0.455  16.236  18.650  0.00  0.00    +0.000 C 
ENDBRANCH  33  34
ENDBRANCH   6  33
TORSDOF 7
ENDMDL
MODEL 2
REMARK VINA RESULT:      -9.6      1.600      2.756
REMARK  Name = 
REMARK  8 active torsions:
REMARK  status: ('A' for Active; 'I' for Inactive)
REMARK    1  A    between atoms: C_1  and  N_2
REMARK    2  A    between atoms: C_6  and  C_7
REMARK    3  A    between atoms: C_7  and  C_9
REMARK    4  A    between atoms: C_9  and  C_10
REMARK    5  A    between atoms: C_14  and  N_15
REMARK    6  A    between atoms: C_20  and  C_21
REMARK    7  A    between atoms: C_21  and  N_22
REMARK    8  A    between atoms: C_31  and  C_32
REMARK                            x       y       z     vdW  Elec       q    Type
REMARK                         _______ _______ _______ _____ _____    ______ ____
ROOT
ATOM      1  N   UNL     1       2.129   7.558  19.186  0.00  0.00    +0.000 N 
ATOM      2  C   UNL     1       1.436   7.837  20.429  0.00  0.00    +0.000 C 
ATOM      3  C   UNL     1       0.980   9.258  20.302  0.00  0.00    +0.000 A 
ATOM      4  C   UNL     1       1.325   9.749  19.051  0.00  0.00    +0.000 A 
ATOM      5  C   UNL     1       0.980  11.043  18.646  0.00  0.00    +0.000 A 
ATOM      6  C   UNL     1       0.235  11.885  19.514  0.00  0.00    +0.000 A 
ATOM      7  C   UNL     1      -0.096  11.360  20.792  0.00  0.00    +0.000 A 
ATOM      8  C   UNL     1       0.293  10.056  21.213  0.00  0.00    +0.000 A 
ATOM      9  C   UNL     1       2.085   8.685  18.345  0.00  0.00    +0.000 C 
ATOM     10  O   UNL     1       2.549   8.861  17.232  0.00  0.00    +0.000 OA
ENDROOT
BRANCH   1  15
ATOM     11  C   UNL     1       4.468   4.945  17.689  0.00  0.00    +0.000 A 
ATOM     12  C   UNL     1       4.093   3.852  18.489  0.00  0.00    +0.000 A 
ATOM     13  C   UNL     1       3.110   3.961  19.480  0.00  0.00    +0.000 A 
ATOM     14  C   UNL     1       2.465   5.175  19.723  0.00  0.00    +0.000 A 
ATOM     15  C   UNL     1       2.780   6.303  18.972  0.00  0.00    +0.000 A 
ATOM     16  C   UNL     1       3.776   6.159  17.967  0.00  0.00    +0.000 A 
BRANCH  11  17
ATOM     17  C   UNL     1       5.584   4.827  16.487  0.00  0.00    +0.000 C 
ATOM     18  C   UNL     1       5.295   5.763  15.281  0.00  0.00    +0.000 C 
ATOM     19  O   UNL     1       5.239   4.659  14.356  0.00  0.00    +0.000 OA
ATOM     20  C   UNL     1       5.451   3.707  15.421  0.00  0.00    +0.000 C 
BRANCH  17  21
ATOM     21  C   UNL     1       7.042   4.995  16.969  0.00  0.00    +0.000 C 
ATOM     22  F   UNL     1       7.290   4.053  17.934  0.00  0.00    +0.000 F 
BRANCH  21  28
ATOM     23  C   UNL     1       8.151   5.788  19.839  0.00  0.00    +0.000 C 
ATOM     24  N   UNL     1       7.946   6.650  18.703  0.00  0.00    +0.000 N 
ATOM     25  C   UNL     1       8.274   7.974  18.661  0.00  0.00    +0.000 A 
ATOM     26  N   UNL     1       7.949   8.474  17.507  0.00  0.00    +0.000 NA
ATOM     27  N   UNL     1       7.422   7.459  16.746  0.00  0.00    +0.000 NA
ATOM     28  C   UNL     1       7.415   6.353  17.468  0.00  0.00    +0.000 A 
ENDBRANCH  21  28
ENDBRANCH  17  21
ENDBRANCH  11  17
ENDBRANCH   1  15
BRANCH   8  29
ATOM     29  C   UNL     1      -0.010   9.562  22.609  0.00  0.00    +0.000 C 
ATOM     30  F   UNL     1       1.103   9.213  23.322  0.00  0.00    +0.000 F 
ATOM     31  F   UNL     1      -0.640  10.499  23.370  0.00  0.00    +0.000 F 
ATOM     32  F   UNL     1      -0.805   8.460  22.623  0.00  0.00    +0.000 F 
ENDBRANCH   8  29
BRANCH   6  33
ATOM     33  C   UNL     1      -0.175  13.291  18.992  0.00  0.00    +0.000 C 
BRANCH  33  34
ATOM     34  N   UNL     1      -0.059  14.428  19.908  0.00  0.00    +0.000 NA
ATOM     35  C   UNL     1       1.279  14.921  20.234  0.00  0.00    +0.000 C 
ATOM     36  C   UNL     1       1.972  15.602  19.029  0.00  0.00    +0.000 C 
ATOM     37  C   UNL     1       1.187  16.747  18.391  0.00  0.00    +0.000 C 
ATOM     38  C   UNL     1      -0.309  16.433  18.332  0.00  0.00    +0.000 C 
ATOM     39  C   UNL     1      -0.793  15.684  19.594  0.00  0.00    +0.000 C 
ATOM     40  C   UNL     1      -0.420  16.549  20.819  0.00  0.00    +0.000 C 
ATOM     41  C   UNL     1       0.826  15.853  21.369  0.00  0.00    +0.000 C 
ENDBRANCH  33  34
ENDBRANCH   6  33
TORSDOF 7
ENDMDL
MODEL 3
REMARK VINA RESULT:      -9.5      1.053      1.712
REMARK  Name = 
REMARK  8 active torsions:
REMARK  status: ('A' for Active; 'I' for Inactive)
REMARK    1  A    between atoms: C_1  and  N_2
REMARK    2  A    between atoms: C_6  and  C_7
REMARK    3  A    between atoms: C_7  and  C_9
REMARK    4  A    between atoms: C_9  and  C_10
REMARK    5  A    between atoms: C_14  and  N_15
REMARK    6  A    between atoms: C_20  and  C_21
REMARK    7  A    between atoms: C_21  and  N_22
REMARK    8  A    between atoms: C_31  and  C_32
REMARK                            x       y       z     vdW  Elec       q    Type
REMARK                         _______ _______ _______ _____ _____    ______ ____
ROOT
ATOM      1  N   UNL     1       2.006   8.058  18.904  0.00  0.00    +0.000 N 
ATOM      2  C   UNL     1       1.335   8.141  20.187  0.00  0.00    +0.000 C 
ATOM      3  C   UNL     1       0.846   9.555  20.272  0.00  0.00    +0.000 A 
ATOM      4  C   UNL     1       1.152  10.226  19.098  0.00  0.00    +0.000 A 
ATOM      5  C   UNL     1       0.771  11.555  18.887  0.00  0.00    +0.000 A 
ATOM      6  C   UNL     1       0.028  12.247  19.879  0.00  0.00    +0.000 A 
ATOM      7  C   UNL     1      -0.263  11.539  21.076  0.00  0.00    +0.000 A 
ATOM      8  C   UNL     1       0.163  10.198  21.300  0.00  0.00    +0.000 A 
ATOM      9  C   UNL     1       1.918   9.291  18.233  0.00  0.00    +0.000 C 
ATOM     10  O   UNL     1       2.354   9.635  17.147  0.00  0.00    +0.000 OA
ENDROOT
BRANCH   1  15
ATOM     11  C   UNL     1       4.828   5.707  17.881  0.00  0.00    +0.000 A 
ATOM     12  C   UNL     1       4.066   4.540  17.695  0.00  0.00    +0.000 A 
ATOM     13  C   UNL     1       2.680   4.521  17.892  0.00  0.00    +0.000 A 
ATOM     14  C   UNL     1       1.994   5.668  18.297  0.00  0.00    +0.000 A 
ATOM     15  C   UNL     1       2.678   6.862  18.502  0.00  0.00    +0.000 A 
ATOM     16  C   UNL     1       4.084   6.853  18.285  0.00  0.00    +0.000 A 
BRANCH  11  17
ATOM     17  C   UNL     1       6.448   5.764  17.607  0.00  0.00    +0.000 C 
ATOM     18  C   UNL     1       7.286   5.988  18.897  0.00  0.00    +0.000 C 
ATOM     19  O   UNL     1       7.882   7.192  18.376  0.00  0.00    +0.000 OA
ATOM     20  C   UNL     1       7.107   7.097  17.162  0.00  0.00    +0.000 C 
BRANCH  17  21
ATOM     21  C   UNL     1       6.990   4.558  16.808  0.00  0.00    +0.000 C 
ATOM     22  F   UNL     1       8.150   4.131  17.403  0.00  0.00    +0.000 F 
BRANCH  21  28
ATOM     23  C   UNL     1       5.204   3.558  14.378  0.00  0.00    +0.000 C 
ATOM     24  N   UNL     1       6.385   4.383  14.325  0.00  0.00    +0.000 N 
ATOM     25  C   UNL     1       6.895   4.940  13.189  0.00  0.00    +0.000 A 
ATOM     26  N   UNL     1       7.971   5.611  13.470  0.00  0.00    +0.000 NA
ATOM     27  N   UNL     1       8.170   5.532  14.827  0.00  0.00    +0.000 NA
ATOM     28  C   UNL     1       7.213   4.786  15.349  0.00  0.00    +0.000 A 
ENDBRANCH  21  28
ENDBRANCH  17  21
ENDBRANCH  11  17
ENDBRANCH   1  15
BRANCH   8  29
ATOM     29  C   UNL     1      -0.098   9.505  22.617  0.00  0.00    +0.000 C 
ATOM     30  F   UNL     1       1.036   9.245  23.336  0.00  0.00    +0.000 F 
ATOM     31  F   UNL     1      -0.885  10.241  23.450  0.00  0.00    +0.000 F 
ATOM     32  F   UNL     1      -0.715   8.302  22.473  0.00  0.00    +0.000 F 
ENDBRANCH   8  29
BRANCH   6  33
ATOM     33  C   UNL     1      -0.424  13.702  19.571  0.00  0.00    +0.000 C 
BRANCH  33  34
ATOM     34  N   UNL     1       0.210  14.795  20.312  0.00  0.00    +0.000 NA
ATOM     35  C   UNL     1       1.672  14.852  20.346  0.00  0.00    +0.000 C 
ATOM     36  C   UNL     1       2.285  15.202  18.968  0.00  0.00    +0.000 C 
ATOM     37  C   UNL     1       1.775  16.498  18.341  0.00  0.00    +0.000 C 
ATOM     38  C   UNL     1       0.274  16.677  18.573  0.00  0.00    +0.000 C 
ATOM     39  C   UNL     1      -0.155  16.199  19.979  0.00  0.00    +0.000 C 
ATOM     40  C   UNL     1       0.698  16.969  21.012  0.00  0.00    +0.000 C 
ATOM     41  C   UNL     1       1.757  15.945  21.422  0.00  0.00    +0.000 C 
ENDBRANCH  33  34
ENDBRANCH   6  33
TORSDOF 7
ENDMDL
MODEL 4
REMARK VINA RESULT:      -9.5      1.143      1.922
REMARK  Name = 
REMARK  8 active torsions:
REMARK  status: ('A' for Active; 'I' for Inactive)
REMARK    1  A    between atoms: C_1  and  N_2
REMARK    2  A    between atoms: C_6  and  C_7
REMARK    3  A    between atoms: C_7  and  C_9
REMARK    4  A    between atoms: C_9  and  C_10
REMARK    5  A    between atoms: C_14  and  N_15
REMARK    6  A    between atoms: C_20  and  C_21
REMARK    7  A    between atoms: C_21  and  N_22
REMARK    8  A    between atoms: C_31  and  C_32
REMARK                            x       y       z     vdW  Elec       q    Type
REMARK                         _______ _______ _______ _____ _____    ______ ____
ROOT
ATOM      1  N   UNL     1       1.958   7.669  19.107  0.00  0.00    +0.000 N 
ATOM      2  C   UNL     1       1.310   7.926  20.378  0.00  0.00    +0.000 C 
ATOM      3  C   UNL     1       0.865   9.354  20.298  0.00  0.00    +0.000 A 
ATOM      4  C   UNL     1       1.173   9.870  19.048  0.00  0.00    +0.000 A 
ATOM      5  C   UNL     1       0.829  11.176  18.684  0.00  0.00    +0.000 A 
ATOM      6  C   UNL     1       0.122  12.005  19.594  0.00  0.00    +0.000 A 
ATOM      7  C   UNL     1      -0.171  11.455  20.871  0.00  0.00    +0.000 A 
ATOM      8  C   UNL     1       0.217  10.138  21.250  0.00  0.00    +0.000 A 
ATOM      9  C   UNL     1       1.898   8.815  18.293  0.00  0.00    +0.000 C 
ATOM     10  O   UNL     1       2.327   9.012  17.169  0.00  0.00    +0.000 OA
ENDROOT
BRANCH   1  15
ATOM     11  C   UNL     1       4.496   5.137  17.807  0.00  0.00    +0.000 A 
ATOM     12  C   UNL     1       3.877   3.966  18.278  0.00  0.00    +0.000 A 
ATOM     13  C   UNL     1       2.672   3.999  18.990  0.00  0.00    +0.000 A 
ATOM     14  C   UNL     1       2.038   5.210  19.275  0.00  0.00    +0.000 A 
ATOM     15  C   UNL     1       2.588   6.413  18.844  0.00  0.00    +0.000 A 
ATOM     16  C   UNL     1       3.807   6.346  18.114  0.00  0.00    +0.000 A 
BRANCH  11  17
ATOM     17  C   UNL     1       5.885   5.117  16.926  0.00  0.00    +0.000 C 
ATOM     18  C   UNL     1       7.127   4.662  17.740  0.00  0.00    +0.000 C 
ATOM     19  O   UNL     1       7.828   5.894  17.480  0.00  0.00    +0.000 OA
ATOM     20  C   UNL     1       6.702   6.424  16.749  0.00  0.00    +0.000 C 
BRANCH  17  21
ATOM     21  C   UNL     1       5.776   4.321  15.607  0.00  0.00    +0.000 C 
ATOM     22  F   UNL     1       5.876   2.985  15.899  0.00  0.00    +0.000 F 
BRANCH  21  28
ATOM     23  C   UNL     1       5.762   3.432  12.556  0.00  0.00    +0.000 C 
ATOM     24  N   UNL     1       6.682   4.328  13.211  0.00  0.00    +0.000 N 
ATOM     25  C   UNL     1       7.682   5.012  12.583  0.00  0.00    +0.000 A 
ATOM     26  N   UNL     1       8.345   5.719  13.447  0.00  0.00    +0.000 NA
ATOM     27  N   UNL     1       7.758   5.533  14.676  0.00  0.00    +0.000 NA
ATOM     28  C   UNL     1       6.753   4.689  14.538  0.00  0.00    +0.000 A 
ENDBRANCH  21  28
ENDBRANCH  17  21
ENDBRANCH  11  17
ENDBRANCH   1  15
BRANCH   8  29
ATOM     29  C   UNL     1      -0.044   9.616  22.643  0.00  0.00    +0.000 C 
ATOM     30  F   UNL     1      -0.795   8.473  22.670  0.00  0.00    +0.000 F 
ATOM     31  F   UNL     1       1.103   9.302  23.308  0.00  0.00    +0.000 F 
ATOM     32  F   UNL     1      -0.710  10.502  23.429  0.00  0.00    +0.000 F 
ENDBRANCH   8  29
BRANCH   6  33
ATOM     33  C   UNL     1      -0.291  13.427  19.118  0.00  0.00    +0.000 C 
BRANCH  33  34
ATOM     34  N   UNL     1       0.007  14.563  19.994  0.00  0.00    +0.000 NA
ATOM     35  C   UNL     1       1.409  14.925  20.206  0.00  0.00    +0.000 C 
ATOM     36  C   UNL     1       2.070  15.512  18.936  0.00  0.00    +0.000 C 
ATOM     37  C   UNL     1       1.354  16.719  18.331  0.00  0.00    +0.000 C 
ATOM     38  C   UNL     1      -0.166  16.555  18.392  0.00  0.00    +0.000 C 
ATOM     39  C   UNL     1      -0.622  15.880  19.705  0.00  0.00    +0.000 C 
ATOM     40  C   UNL     1      -0.071  16.723  20.878  0.00  0.00    +0.000 C 
ATOM     41  C   UNL     1       1.139  15.916  21.349  0.00  0.00    +0.000 C 
ENDBRANCH  33  34
ENDBRANCH   6  33
TORSDOF 7
ENDMDL
MODEL 5
REMARK VINA RESULT:      -9.4      0.756      1.446
REMARK  Name = 
REMARK  8 active torsions:
REMARK  status: ('A' for Active; 'I' for Inactive)
REMARK    1  A    between atoms: C_1  and  N_2
REMARK    2  A    between atoms: C_6  and  C_7
REMARK    3  A    between atoms: C_7  and  C_9
REMARK    4  A    between atoms: C_9  and  C_10
REMARK    5  A    between atoms: C_14  and  N_15
REMARK    6  A    between atoms: C_20  and  C_21
REMARK    7  A    between atoms: C_21  and  N_22
REMARK    8  A    between atoms: C_31  and  C_32
REMARK                            x       y       z     vdW  Elec       q    Type
REMARK                         _______ _______ _______ _____ _____    ______ ____
ROOT
ATOM      1  N   UNL     1       2.080   7.897  19.372  0.00  0.00    +0.000 N 
ATOM      2  C   UNL     1       1.319   8.107  20.588  0.00  0.00    +0.000 C 
ATOM      3  C   UNL     1       0.812   9.513  20.485  0.00  0.00    +0.000 A 
ATOM      4  C   UNL     1       1.194  10.058  19.268  0.00  0.00    +0.000 A 
ATOM      5  C   UNL     1       0.816  11.350  18.888  0.00  0.00    +0.000 A 
ATOM      6  C   UNL     1      -0.002  12.133  19.745  0.00  0.00    +0.000 A 
ATOM      7  C   UNL     1      -0.370  11.553  20.989  0.00  0.00    +0.000 A 
ATOM      8  C   UNL     1       0.051  10.252  21.387  0.00  0.00    +0.000 A 
ATOM      9  C   UNL     1       2.029   9.049  18.566  0.00  0.00    +0.000 C 
ATOM     10  O   UNL     1       2.537   9.280  17.483  0.00  0.00    +0.000 OA
ENDROOT
BRANCH   1  15
ATOM     11  C   UNL     1       4.951   5.518  18.574  0.00  0.00    +0.000 A 
ATOM     12  C   UNL     1       4.250   4.305  18.687  0.00  0.00    +0.000 A 
ATOM     13  C   UNL     1       2.888   4.263  19.008  0.00  0.00    +0.000 A 
ATOM     14  C   UNL     1       2.168   5.436  19.244  0.00  0.00    +0.000 A 
ATOM     15  C   UNL     1       2.791   6.676  19.151  0.00  0.00    +0.000 A 
ATOM     16  C   UNL     1       4.172   6.687  18.814  0.00  0.00    +0.000 A 
BRANCH  11  17
ATOM     17  C   UNL     1       6.538   5.592  18.149  0.00  0.00    +0.000 C 
ATOM     18  C   UNL     1       7.489   5.848  19.352  0.00  0.00    +0.000 C 
ATOM     19  O   UNL     1       8.017   7.051  18.761  0.00  0.00    +0.000 OA
ATOM     20  C   UNL     1       7.133   6.926  17.626  0.00  0.00    +0.000 C 
BRANCH  17  21
ATOM     21  C   UNL     1       7.021   4.381  17.322  0.00  0.00    +0.000 C 
ATOM     22  F   UNL     1       8.330   4.131  17.643  0.00  0.00    +0.000 F 
BRANCH  21  28
ATOM     23  C   UNL     1       4.590   3.398  15.526  0.00  0.00    +0.000 C 
ATOM     24  N   UNL     1       5.771   4.108  15.102  0.00  0.00    +0.000 N 
ATOM     25  C   UNL     1       6.003   4.545  13.830  0.00  0.00    +0.000 A 
ATOM     26  N   UNL     1       7.160   5.132  13.767  0.00  0.00    +0.000 NA
ATOM     27  N   UNL     1       7.703   5.119  15.029  0.00  0.00    +0.000 NA
ATOM     28  C   UNL     1       6.867   4.497  15.840  0.00  0.00    +0.000 A 
ENDBRANCH  21  28
ENDBRANCH  17  21
ENDBRANCH  11  17
ENDBRANCH   1  15
BRANCH   8  29
ATOM     29  C   UNL     1      -0.295   9.700  22.750  0.00  0.00    +0.000 C 
ATOM     30  F   UNL     1       0.794   9.466  23.542  0.00  0.00    +0.000 F 
ATOM     31  F   UNL     1      -1.083  10.545  23.471  0.00  0.00    +0.000 F 
ATOM     32  F   UNL     1      -0.959   8.516  22.693  0.00  0.00    +0.000 F 
ENDBRANCH   8  29
BRANCH   6  33
ATOM     33  C   UNL     1      -0.445  13.538  19.249  0.00  0.00    +0.000 C 
BRANCH  33  34
ATOM     34  N   UNL     1       0.215  14.713  19.823  0.00  0.00    +0.000 NA
ATOM     35  C   UNL     1       0.726  15.735  18.910  0.00  0.00    +0.000 C 
ATOM     36  C   UNL     1      -0.406  16.510  18.192  0.00  0.00    +0.000 C 
ATOM     37  C   UNL     1      -1.429  17.168  19.115  0.00  0.00    +0.000 C 
ATOM     38  C   UNL     1      -1.760  16.272  20.311  0.00  0.00    +0.000 C 
ATOM     39  C   UNL     1      -0.512  15.525  20.835  0.00  0.00    +0.000 C 
ATOM     40  C   UNL     1       0.558  16.588  21.173  0.00  0.00    +0.000 C 
ATOM     41  C   UNL     1       1.509  16.516  19.977  0.00  0.00    +0.000 C 
ENDBRANCH  33  34
ENDBRANCH   6  33
TORSDOF 7
ENDMDL
MODEL 6
REMARK VINA RESULT:      -9.4      1.738      2.670
REMARK  Name = 
REMARK  8 active torsions:
REMARK  status: ('A' for Active; 'I' for Inactive)
REMARK    1  A    between atoms: C_1  and  N_2
REMARK    2  A    between atoms: C_6  and  C_7
REMARK    3  A    between atoms: C_7  and  C_9
REMARK    4  A    between atoms: C_9  and  C_10
REMARK    5  A    between atoms: C_14  and  N_15
REMARK    6  A    between atoms: C_20  and  C_21
REMARK    7  A    between atoms: C_21  and  N_22
REMARK    8  A    between atoms: C_31  and  C_32
REMARK                            x       y       z     vdW  Elec       q    Type
REMARK                         _______ _______ _______ _____ _____    ______ ____
ROOT
ATOM      1  N   UNL     1       2.148   7.565  19.007  0.00  0.00    +0.000 N 
ATOM      2  C   UNL     1       1.481   7.809  20.271  0.00  0.00    +0.000 C 
ATOM      3  C   UNL     1       1.003   9.226  20.183  0.00  0.00    +0.000 A 
ATOM      4  C   UNL     1       1.310   9.746  18.935  0.00  0.00    +0.000 A 
ATOM      5  C   UNL     1       0.938  11.042  18.563  0.00  0.00    +0.000 A 
ATOM      6  C   UNL     1       0.202  11.856  19.465  0.00  0.00    +0.000 A 
ATOM      7  C   UNL     1      -0.090  11.302  20.740  0.00  0.00    +0.000 A 
ATOM      8  C   UNL     1       0.327   9.996  21.126  0.00  0.00    +0.000 A 
ATOM      9  C   UNL     1       2.067   8.707  18.189  0.00  0.00    +0.000 C 
ATOM     10  O   UNL     1       2.502   8.911  17.069  0.00  0.00    +0.000 OA
ENDROOT
BRANCH   1  15
ATOM     11  C   UNL     1       4.473   5.010  17.392  0.00  0.00    +0.000 A 
ATOM     12  C   UNL     1       4.146   3.901  18.191  0.00  0.00    +0.000 A 
ATOM     13  C   UNL     1       3.198   3.981  19.218  0.00  0.00    +0.000 A 
ATOM     14  C   UNL     1       2.542   5.182  19.500  0.00  0.00    +0.000 A 
ATOM     15  C   UNL     1       2.811   6.324  18.753  0.00  0.00    +0.000 A 
ATOM     16  C   UNL     1       3.771   6.209  17.711  0.00  0.00    +0.000 A 
BRANCH  11  17
ATOM     17  C   UNL     1       5.546   4.926  16.148  0.00  0.00    +0.000 C 
ATOM     18  C   UNL     1       4.892   5.125  14.753  0.00  0.00    +0.000 C 
ATOM     19  O   UNL     1       5.347   3.840  14.286  0.00  0.00    +0.000 OA
ATOM     20  C   UNL     1       5.942   3.543  15.567  0.00  0.00    +0.000 C 
BRANCH  17  21
ATOM     21  C   UNL     1       6.769   5.854  16.314  0.00  0.00    +0.000 C 
ATOM     22  F   UNL     1       7.671   5.562  15.323  0.00  0.00    +0.000 F 
BRANCH  21  28
ATOM     23  C   UNL     1       7.983   8.292  17.952  0.00  0.00    +0.000 C 
ATOM     24  N   UNL     1       7.905   6.909  18.353  0.00  0.00    +0.000 N 
ATOM     25  C   UNL     1       8.291   6.429  19.571  0.00  0.00    +0.000 A 
ATOM     26  N   UNL     1       8.112   5.143  19.616  0.00  0.00    +0.000 NA
ATOM     27  N   UNL     1       7.564   4.756  18.417  0.00  0.00    +0.000 NA
ATOM     28  C   UNL     1       7.440   5.822  17.648  0.00  0.00    +0.000 A 
ENDBRANCH  21  28
ENDBRANCH  17  21
ENDBRANCH  11  17
ENDBRANCH   1  15
BRANCH   8  29
ATOM     29  C   UNL     1       0.065   9.471  22.518  0.00  0.00    +0.000 C 
ATOM     30  F   UNL     1       1.195   9.070  23.176  0.00  0.00    +0.000 F 
ATOM     31  F   UNL     1      -0.505  10.404  23.331  0.00  0.00    +0.000 F 
ATOM     32  F   UNL     1      -0.762   8.394  22.535  0.00  0.00    +0.000 F 
ENDBRANCH   8  29
BRANCH   6  33
ATOM     33  C   UNL     1      -0.241  13.266  18.981  0.00  0.00    +0.000 C 
BRANCH  33  34
ATOM     34  N   UNL     1       0.772  14.323  18.912  0.00  0.00    +0.000 NA
ATOM     35  C   UNL     1       0.319  15.713  18.859  0.00  0.00    +0.000 C 
ATOM     36  C   UNL     1      -0.323  16.179  20.189  0.00  0.00    +0.000 C 
ATOM     37  C   UNL     1       0.555  16.013  21.427  0.00  0.00    +0.000 C 
ATOM     38  C   UNL     1       1.343  14.702  21.381  0.00  0.00    +0.000 C 
ATOM     39  C   UNL     1       1.834  14.372  19.953  0.00  0.00    +0.000 C 
ATOM     40  C   UNL     1       2.665  15.578  19.458  0.00  0.00    +0.000 C 
ATOM     41  C   UNL     1       1.696  16.309  18.527  0.00  0.00    +0.000 C 
ENDBRANCH  33  34
ENDBRANCH   6  33
TORSDOF 7
ENDMDL
MODEL 7
REMARK VINA RESULT:      -9.4      1.812      3.000
REMARK  Name = 
REMARK  8 active torsions:
REMARK  status: ('A' for Active; 'I' for Inactive)
REMARK    1  A    between atoms: C_1  and  N_2
REMARK    2  A    between atoms: C_6  and  C_7
REMARK    3  A    between atoms: C_7  and  C_9
REMARK    4  A    between atoms: C_9  and  C_10
REMARK    5  A    between atoms: C_14  and  N_15
REMARK    6  A    between atoms: C_20  and  C_21
REMARK    7  A    between atoms: C_21  and  N_22
REMARK    8  A    between atoms: C_31  and  C_32
REMARK                            x       y       z     vdW  Elec       q    Type
REMARK                         _______ _______ _______ _____ _____    ______ ____
ROOT
ATOM      1  N   UNL     1       2.088   7.342  19.551  0.00  0.00    +0.000 N 
ATOM      2  C   UNL     1       1.430   7.794  20.761  0.00  0.00    +0.000 C 
ATOM      3  C   UNL     1       0.638   8.994  20.341  0.00  0.00    +0.000 A 
ATOM      4  C   UNL     1       0.773   9.187  18.974  0.00  0.00    +0.000 A 
ATOM      5  C   UNL     1       0.102  10.215  18.305  0.00  0.00    +0.000 A 
ATOM      6  C   UNL     1      -0.765  11.082  19.020  0.00  0.00    +0.000 A 
ATOM      7  C   UNL     1      -0.877  10.868  20.420  0.00  0.00    +0.000 A 
ATOM      8  C   UNL     1      -0.159   9.844  21.103  0.00  0.00    +0.000 A 
ATOM      9  C   UNL     1       1.719   8.159  18.467  0.00  0.00    +0.000 C 
ATOM     10  O   UNL     1       2.055   8.120  17.296  0.00  0.00    +0.000 OA
ENDROOT
BRANCH   1  15
ATOM     11  C   UNL     1       5.289   5.337  19.029  0.00  0.00    +0.000 A 
ATOM     12  C   UNL     1       4.863   4.120  19.588  0.00  0.00    +0.000 A 
ATOM     13  C   UNL     1       3.576   3.956  20.114  0.00  0.00    +0.000 A 
ATOM     14  C   UNL     1       2.660   5.011  20.115  0.00  0.00    +0.000 A 
ATOM     15  C   UNL     1       3.006   6.246  19.579  0.00  0.00    +0.000 A 
ATOM     16  C   UNL     1       4.317   6.379  19.043  0.00  0.00    +0.000 A 
BRANCH  11  17
ATOM     17  C   UNL     1       6.779   5.536  18.361  0.00  0.00    +0.000 C 
ATOM     18  C   UNL     1       7.884   5.866  19.402  0.00  0.00    +0.000 C 
ATOM     19  O   UNL     1       8.217   7.107  18.750  0.00  0.00    +0.000 OA
ATOM     20  C   UNL     1       7.178   6.913  17.767  0.00  0.00    +0.000 C 
BRANCH  17  21
ATOM     21  C   UNL     1       7.218   4.367  17.453  0.00  0.00    +0.000 C 
ATOM     22  F   UNL     1       8.566   4.174  17.616  0.00  0.00    +0.000 F 
BRANCH  21  28
ATOM     23  C   UNL     1       4.468   3.715  15.999  0.00  0.00    +0.000 C 
ATOM     24  N   UNL     1       5.666   4.265  15.416  0.00  0.00    +0.000 N 
ATOM     25  C   UNL     1       5.786   4.671  14.119  0.00  0.00    +0.000 A 
ATOM     26  N   UNL     1       6.991   5.101  13.899  0.00  0.00    +0.000 NA
ATOM     27  N   UNL     1       7.687   5.014  15.081  0.00  0.00    +0.000 NA
ATOM     28  C   UNL     1       6.890   4.505  16.002  0.00  0.00    +0.000 A 
ENDBRANCH  21  28
ENDBRANCH  17  21
ENDBRANCH  11  17
ENDBRANCH   1  15
BRANCH   8  29
ATOM     29  C   UNL     1      -0.243   9.697  22.604  0.00  0.00    +0.000 C 
ATOM     30  F   UNL     1      -0.875  10.739  23.224  0.00  0.00    +0.000 F 
ATOM     31  F   UNL     1      -0.936   8.587  22.983  0.00  0.00    +0.000 F 
ATOM     32  F   UNL     1       0.975   9.609  23.200  0.00  0.00    +0.000 F 
ENDBRANCH   8  29
BRANCH   6  33
ATOM     33  C   UNL     1      -1.535  12.170  18.219  0.00  0.00    +0.000 C 
BRANCH  33  34
ATOM     34  N   UNL     1      -2.929  11.903  17.856  0.00  0.00    +0.000 NA
ATOM     35  C   UNL     1      -3.285  11.890  16.437  0.00  0.00    +0.000 C 
ATOM     36  C   UNL     1      -2.679  10.681  15.684  0.00  0.00    +0.000 C 
ATOM     37  C   UNL     1      -3.021   9.313  16.271  0.00  0.00    +0.000 C 
ATOM     38  C   UNL     1      -3.006   9.342  17.801  0.00  0.00    +0.000 C 
ATOM     39  C   UNL     1      -3.581  10.664  18.359  0.00  0.00    +0.000 C 
ATOM     40  C   UNL     1      -5.004  10.833  17.780  0.00  0.00    +0.000 C 
ATOM     41  C   UNL     1      -4.804  11.856  16.660  0.00  0.00    +0.000 C 
ENDBRANCH  33  34
ENDBRANCH   6  33
TORSDOF 7
ENDMDL
MODEL 8
REMARK VINA RESULT:      -9.4      1.643      2.630
REMARK  Name = 
REMARK  8 active torsions:
REMARK  status: ('A' for Active; 'I' for Inactive)
REMARK    1  A    between atoms: C_1  and  N_2
REMARK    2  A    between atoms: C_6  and  C_7
REMARK    3  A    between atoms: C_7  and  C_9
REMARK    4  A    between atoms: C_9  and  C_10
REMARK    5  A    between atoms: C_14  and  N_15
REMARK    6  A    between atoms: C_20  and  C_21
REMARK    7  A    between atoms: C_21  and  N_22
REMARK    8  A    between atoms: C_31  and  C_32
REMARK                            x       y       z     vdW  Elec       q    Type
REMARK                         _______ _______ _______ _____ _____    ______ ____
ROOT
ATOM      1  N   UNL     1       2.104   7.565  19.125  0.00  0.00    +0.000 N 
ATOM      2  C   UNL     1       1.433   7.854  20.377  0.00  0.00    +0.000 C 
ATOM      3  C   UNL     1       1.020   9.290  20.266  0.00  0.00    +0.000 A 
ATOM      4  C   UNL     1       1.366   9.780  19.015  0.00  0.00    +0.000 A 
ATOM      5  C   UNL     1       1.056  11.086  18.623  0.00  0.00    +0.000 A 
ATOM      6  C   UNL     1       0.347  11.944  19.505  0.00  0.00    +0.000 A 
ATOM      7  C   UNL     1       0.014  11.420  20.783  0.00  0.00    +0.000 A 
ATOM      8  C   UNL     1       0.368  10.102  21.191  0.00  0.00    +0.000 A 
ATOM      9  C   UNL     1       2.085   8.699  18.292  0.00  0.00    +0.000 C 
ATOM     10  O   UNL     1       2.542   8.869  17.176  0.00  0.00    +0.000 OA
ENDROOT
BRANCH   1  15
ATOM     11  C   UNL     1       4.399   4.910  17.635  0.00  0.00    +0.000 A 
ATOM     12  C   UNL     1       3.950   3.807  18.382  0.00  0.00    +0.000 A 
ATOM     13  C   UNL     1       2.932   3.923  19.336  0.00  0.00    +0.000 A 
ATOM     14  C   UNL     1       2.325   5.154  19.594  0.00  0.00    +0.000 A 
ATOM     15  C   UNL     1       2.714   6.292  18.895  0.00  0.00    +0.000 A 
ATOM     16  C   UNL     1       3.744   6.141  17.926  0.00  0.00    +0.000 A 
BRANCH  11  17
ATOM     17  C   UNL     1       5.559   4.785  16.474  0.00  0.00    +0.000 C 
ATOM     18  C   UNL     1       5.321   5.726  15.260  0.00  0.00    +0.000 C 
ATOM     19  O   UNL     1       5.291   4.624  14.332  0.00  0.00    +0.000 OA
ATOM     20  C   UNL     1       5.457   3.669  15.402  0.00  0.00    +0.000 C 
BRANCH  17  21
ATOM     21  C   UNL     1       6.999   4.941  17.010  0.00  0.00    +0.000 C 
ATOM     22  F   UNL     1       7.188   4.027  18.015  0.00  0.00    +0.000 F 
BRANCH  21  28
ATOM     23  C   UNL     1       8.163   5.781  19.845  0.00  0.00    +0.000 C 
ATOM     24  N   UNL     1       7.933   6.625  18.700  0.00  0.00    +0.000 N 
ATOM     25  C   UNL     1       8.258   7.949  18.630  0.00  0.00    +0.000 A 
ATOM     26  N   UNL     1       7.910   8.430  17.475  0.00  0.00    +0.000 NA
ATOM     27  N   UNL     1       7.369   7.402  16.741  0.00  0.00    +0.000 NA
ATOM     28  C   UNL     1       7.379   6.308  17.480  0.00  0.00    +0.000 A 
ENDBRANCH  21  28
ENDBRANCH  17  21
ENDBRANCH  11  17
ENDBRANCH   1  15
BRANCH   8  29
ATOM     29  C   UNL     1       0.065   9.606  22.586  0.00  0.00    +0.000 C 
ATOM     30  F   UNL     1      -0.552  10.535  23.377  0.00  0.00    +0.000 F 
ATOM     31  F   UNL     1      -0.766   8.528  22.589  0.00  0.00    +0.000 F 
ATOM     32  F   UNL     1       1.177   9.233  23.272  0.00  0.00    +0.000 F 
ENDBRANCH   8  29
BRANCH   6  33
ATOM     33  C   UNL     1      -0.027  13.366  18.999  0.00  0.00    +0.000 C 
BRANCH  33  34
ATOM     34  N   UNL     1       0.557  14.520  19.687  0.00  0.00    +0.000 NA
ATOM     35  C   UNL     1       0.909  15.696  18.890  0.00  0.00    +0.000 C 
ATOM     36  C   UNL     1      -0.335  16.436  18.342  0.00  0.00    +0.000 C 
ATOM     37  C   UNL     1      -1.353  16.865  19.398  0.00  0.00    +0.000 C 
ATOM     38  C   UNL     1      -1.518  15.797  20.481  0.00  0.00    +0.000 C 
ATOM     39  C   UNL     1      -0.174  15.120  20.835  0.00  0.00    +0.000 C 
ATOM     40  C   UNL     1       0.812  16.235  21.252  0.00  0.00    +0.000 C 
ATOM     41  C   UNL     1       1.684  16.411  20.008  0.00  0.00    +0.000 C 
ENDBRANCH  33  34
ENDBRANCH   6  33
TORSDOF 7
ENDMDL
MODEL 9
REMARK VINA RESULT:      -9.3      1.736      2.856
REMARK  Name = 
REMARK  8 active torsions:
REMARK  status: ('A' for Active; 'I' for Inactive)
REMARK    1  A    between atoms: C_1  and  N_2
REMARK    2  A    between atoms: C_6  and  C_7
REMARK    3  A    between atoms: C_7  and  C_9
REMARK    4  A    between atoms: C_9  and  C_10
REMARK    5  A    between atoms: C_14  and  N_15
REMARK    6  A    between atoms: C_20  and  C_21
REMARK    7  A    between atoms: C_21  and  N_22
REMARK    8  A    between atoms: C_31  and  C_32
REMARK                            x       y       z     vdW  Elec       q    Type
REMARK                         _______ _______ _______ _____ _____    ______ ____
ROOT
ATOM      1  N   UNL     1       2.181   7.605  19.061  0.00  0.00    +0.000 N 
ATOM      2  C   UNL     1       1.518   7.847  20.327  0.00  0.00    +0.000 C 
ATOM      3  C   UNL     1       1.024   9.259  20.236  0.00  0.00    +0.000 A 
ATOM      4  C   UNL     1       1.320   9.777  18.984  0.00  0.00    +0.000 A 
ATOM      5  C   UNL     1       0.932  11.067  18.609  0.00  0.00    +0.000 A 
ATOM      6  C   UNL     1       0.193  11.878  19.511  0.00  0.00    +0.000 A 
ATOM      7  C   UNL     1      -0.087  11.326  20.789  0.00  0.00    +0.000 A 
ATOM      8  C   UNL     1       0.346  10.026  21.179  0.00  0.00    +0.000 A 
ATOM      9  C   UNL     1       2.084   8.742  18.239  0.00  0.00    +0.000 C 
ATOM     10  O   UNL     1       2.511   8.946  17.116  0.00  0.00    +0.000 OA
ENDROOT
BRANCH   1  15
ATOM     11  C   UNL     1       4.497   5.058  17.422  0.00  0.00    +0.000 A 
ATOM     12  C   UNL     1       4.211   3.958  18.249  0.00  0.00    +0.000 A 
ATOM     13  C   UNL     1       3.292   4.041  19.301  0.00  0.00    +0.000 A 
ATOM     14  C   UNL     1       2.626   5.236  19.582  0.00  0.00    +0.000 A 
ATOM     15  C   UNL     1       2.855   6.369  18.809  0.00  0.00    +0.000 A 
ATOM     16  C   UNL     1       3.787   6.251  17.741  0.00  0.00    +0.000 A 
BRANCH  11  17
ATOM     17  C   UNL     1       5.536   4.968  16.149  0.00  0.00    +0.000 C 
ATOM     18  C   UNL     1       4.854   5.222  14.776  0.00  0.00    +0.000 C 
ATOM     19  O   UNL     1       5.254   3.934  14.268  0.00  0.00    +0.000 OA
ATOM     20  C   UNL     1       5.871   3.587  15.526  0.00  0.00    +0.000 C 
BRANCH  17  21
ATOM     21  C   UNL     1       6.793   5.851  16.304  0.00  0.00    +0.000 C 
ATOM     22  F   UNL     1       7.689   5.504  15.327  0.00  0.00    +0.000 F 
BRANCH  21  28
ATOM     23  C   UNL     1       7.945   8.298  17.974  0.00  0.00    +0.000 C 
ATOM     24  N   UNL     1       7.891   6.911  18.362  0.00  0.00    +0.000 N 
ATOM     25  C   UNL     1       8.276   6.427  19.579  0.00  0.00    +0.000 A 
ATOM     26  N   UNL     1       8.123   5.138  19.612  0.00  0.00    +0.000 NA
ATOM     27  N   UNL     1       7.593   4.750  18.405  0.00  0.00    +0.000 NA
ATOM     28  C   UNL     1       7.454   5.820  17.644  0.00  0.00    +0.000 A 
ENDBRANCH  21  28
ENDBRANCH  17  21
ENDBRANCH  11  17
ENDBRANCH   1  15
BRANCH   8  29
ATOM     29  C   UNL     1       0.097   9.504  22.575  0.00  0.00    +0.000 C 
ATOM     30  F   UNL     1      -0.521  10.406  23.397  0.00  0.00    +0.000 F 
ATOM     31  F   UNL     1      -0.707   8.405  22.587  0.00  0.00    +0.000 F 
ATOM     32  F   UNL     1       1.238   9.150  23.223  0.00  0.00    +0.000 F 
ENDBRANCH   8  29
BRANCH   6  33
ATOM     33  C   UNL     1      -0.267  13.280  19.023  0.00  0.00    +0.000 C 
BRANCH  33  34
ATOM     34  N   UNL     1      -0.139  14.410  19.947  0.00  0.00    +0.000 NA
ATOM     35  C   UNL     1       1.206  14.849  20.321  0.00  0.00    +0.000 C 
ATOM     36  C   UNL     1       1.965  15.507  19.142  0.00  0.00    +0.000 C 
ATOM     37  C   UNL     1       1.247  16.683  18.483  0.00  0.00    +0.000 C 
ATOM     38  C   UNL     1      -0.257  16.428  18.372  0.00  0.00    +0.000 C 
ATOM     39  C   UNL     1      -0.813  15.694  19.614  0.00  0.00    +0.000 C 
ATOM     40  C   UNL     1      -0.448  16.539  20.855  0.00  0.00    +0.000 C 
ATOM     41  C   UNL     1       0.751  15.794  21.444  0.00  0.00    +0.000 C 
ENDBRANCH  33  34
ENDBRANCH   6  33
TORSDOF 7
ENDMDL
