MODEL 1
REMARK VINA RESULT:      -8.3      0.000      0.000
REMARK  Name = 
REMARK  8 active torsions:
REMARK  status: ('A' for Active; 'I' for Inactive)
REMARK    1  A    between atoms: C_1  and  C_2
REMARK    2  A    between atoms: C_2  and  S_3
REMARK    3  A    between atoms: C_2  and  C_10
REMARK    4  A    between atoms: S_3  and  C_4
REMARK    5  A    between atoms: N_8  and  C_9
REMARK    6  A    between atoms: C_14  and  N_15
REMARK    7  A    between atoms: C_16  and  C_18
REMARK    8  A    between atoms: C_22  and  C_23
REMARK                            x       y       z     vdW  Elec       q    Type
REMARK                         _______ _______ _______ _____ _____    ______ ____
ROOT
ATOM      1  C   UNL     1      -0.019  10.157  20.049  0.00  0.00    +0.000 A 
ATOM      2  C   UNL     1      -0.143  10.052  21.444  0.00  0.00    +0.000 A 
ATOM      3  C   UNL     1       0.580   9.103  22.157  0.00  0.00    +0.000 A 
ATOM      4  C   UNL     1       1.445   8.240  21.491  0.00  0.00    +0.000 A 
ATOM      5  C   UNL     1       1.601   8.311  20.105  0.00  0.00    +0.000 A 
ATOM      6  C   UNL     1       0.881   9.284  19.393  0.00  0.00    +0.000 A 
ENDROOT
BRANCH   5   7
ATOM      7  N   UNL     1       2.463   7.442  19.400  0.00  0.00    +0.000 N 
ATOM      8  C   UNL     1       2.528   6.064  19.541  0.00  0.00    +0.000 C 
ATOM      9  O   UNL     1       1.822   5.364  20.263  0.00  0.00    +0.000 OA
ATOM     10  H   UNL     1       3.059   7.836  18.678  0.00  0.00    +0.000 HD
BRANCH   8  11
ATOM     11  C   UNL     1       3.553   5.388  18.686  0.00  0.00    +0.000 A 
ATOM     12  C   UNL     1       3.135   4.526  17.678  0.00  0.00    +0.000 A 
ATOM     13  C   UNL     1       4.098   3.914  16.890  0.00  0.00    +0.000 A 
ATOM     14  C   UNL     1       5.442   4.182  17.131  0.00  0.00    +0.000 A 
ATOM     15  C   UNL     1       5.797   5.063  18.163  0.00  0.00    +0.000 A 
ATOM     16  N   UNL     1       4.858   5.672  18.948  0.00  0.00    +0.000 NA
BRANCH  15  17
ATOM     17  C   UNL     1       7.268   5.366  18.417  0.00  0.00    +0.000 C 
ATOM     18  F   UNL     1       8.107   4.368  18.008  0.00  0.00    +0.000 F 
ATOM     19  F   UNL     1       7.693   6.488  17.770  0.00  0.00    +0.000 F 
ATOM     20  F   UNL     1       7.547   5.561  19.737  0.00  0.00    +0.000 F 
ENDBRANCH  15  17
ENDBRANCH   8  11
ENDBRANCH   5   7
BRANCH   1  22
ATOM     21  C   UNL     1       0.031  12.422  18.868  0.00  0.00    +0.000 C 
ATOM     22  C   UNL     1      -0.810  11.193  19.251  0.00  0.00    +0.000 C 
BRANCH  22  23
ATOM     23  S   UNL     1      -1.503  10.396  17.743  0.00  0.00    +0.000 S 
BRANCH  23  24
ATOM     24  C   UNL     1      -3.088  11.078  17.686  0.00  0.00    +0.000 A 
ATOM     25  N   UNL     1      -3.720  11.692  18.660  0.00  0.00    +0.000 NA
ATOM     26  N   UNL     1      -4.924  12.141  18.159  0.00  0.00    +0.000 NA
ATOM     27  C   UNL     1      -4.991  11.777  16.900  0.00  0.00    +0.000 A 
ATOM     28  N   UNL     1      -3.865  11.084  16.564  0.00  0.00    +0.000 N 
ATOM     29  C   UNL     1      -3.584  10.513  15.275  0.00  0.00    +0.000 C 
ENDBRANCH  23  24
ENDBRANCH  22  23
ENDBRANCH   1  22
TORSDOF 6
ENDMDL
MODEL 2
REMARK VINA RESULT:      -8.2      4.924      9.519
REMARK  Name = 
REMARK  8 active torsions:
REMARK  status: ('A' for Active; 'I' for Inactive)
REMARK    1  A    between atoms: C_1  and  C_2
REMARK    2  A    between atoms: C_2  and  S_3
REMARK    3  A    between atoms: C_2  and  C_10
REMARK    4  A    between atoms: S_3  and  C_4
REMARK    5  A    between atoms: N_8  and  C_9
REMARK    6  A    between atoms: C_14  and  N_15
REMARK    7  A    between atoms: C_16  and  C_18
REMARK    8  A    between atoms: C_22  and  C_23
REMARK                            x       y       z     vdW  Elec       q    Type
REMARK                         _______ _______ _______ _____ _____    ______ ____
ROOT
ATOM      1  C   UNL     1       4.447   5.014  17.236  0.00  0.00    +0.000 A 
ATOM      2  C   UNL     1       3.666   3.851  17.144  0.00  0.00    +0.000 A 
ATOM      3  C   UNL     1       2.364   3.824  17.628  0.00  0.00    +0.000 A 
ATOM      4  C   UNL     1       1.812   4.962  18.209  0.00  0.00    +0.000 A 
ATOM      5  C   UNL     1       2.552   6.141  18.319  0.00  0.00    +0.000 A 
ATOM      6  C   UNL     1       3.862   6.166  17.812  0.00  0.00    +0.000 A 
ENDROOT
BRANCH   5   7
ATOM      7  N   UNL     1       2.023   7.308  18.914  0.00  0.00    +0.000 N 
ATOM      8  C   UNL     1       1.940   8.560  18.325  0.00  0.00    +0.000 C 
ATOM      9  O   UNL     1       2.268   8.857  17.178  0.00  0.00    +0.000 OA
ATOM     10  H   UNL     1       1.607   7.231  19.838  0.00  0.00    +0.000 HD
BRANCH   8  11
ATOM     11  C   UNL     1       1.356   9.630  19.192  0.00  0.00    +0.000 A 
ATOM     12  C   UNL     1       1.137   9.367  20.540  0.00  0.00    +0.000 A 
ATOM     13  C   UNL     1       0.603  10.372  21.331  0.00  0.00    +0.000 A 
ATOM     14  C   UNL     1       0.304  11.603  20.754  0.00  0.00    +0.000 A 
ATOM     15  C   UNL     1       0.549  11.804  19.388  0.00  0.00    +0.000 A 
ATOM     16  N   UNL     1       1.076  10.821  18.597  0.00  0.00    +0.000 NA
BRANCH  15  17
ATOM     17  C   UNL     1       0.235  13.155  18.761  0.00  0.00    +0.000 C 
ATOM     18  F   UNL     1      -0.664  13.082  17.735  0.00  0.00    +0.000 F 
ATOM     19  F   UNL     1      -0.301  14.036  19.653  0.00  0.00    +0.000 F 
ATOM     20  F   UNL     1       1.336  13.766  18.241  0.00  0.00    +0.000 F 
ENDBRANCH  15  17
ENDBRANCH   8  11
ENDBRANCH   5   7
BRANCH   1  22
ATOM     21  C   UNL     1       6.931   4.932  17.832  0.00  0.00    +0.000 C 
ATOM     22  C   UNL     1       5.883   5.058  16.713  0.00  0.00    +0.000 C 
BRANCH  22  23
ATOM     23  S   UNL     1       6.115   3.724  15.465  0.00  0.00    +0.000 S 
BRANCH  23  24
ATOM     24  C   UNL     1       6.954   4.563  14.211  0.00  0.00    +0.000 A 
ATOM     25  N   UNL     1       7.838   5.523  14.357  0.00  0.00    +0.000 NA
ATOM     26  N   UNL     1       8.309   5.852  13.103  0.00  0.00    +0.000 NA
ATOM     27  C   UNL     1       7.689   5.088  12.233  0.00  0.00    +0.000 A 
ATOM     28  N   UNL     1       6.808   4.275  12.885  0.00  0.00    +0.000 N 
ATOM     29  C   UNL     1       5.940   3.311  12.266  0.00  0.00    +0.000 C 
ENDBRANCH  23  24
ENDBRANCH  22  23
ENDBRANCH   1  22
TORSDOF 6
ENDMDL
MODEL 3
REMARK VINA RESULT:      -8.1      4.564      9.279
REMARK  Name = 
REMARK  8 active torsions:
REMARK  status: ('A' for Active; 'I' for Inactive)
REMARK    1  A    between atoms: C_1  and  C_2
REMARK    2  A    between atoms: C_2  and  S_3
REMARK    3  A    between atoms: C_2  and  C_10
REMARK    4  A    between atoms: S_3  and  C_4
REMARK    5  A    between atoms: N_8  and  C_9
REMARK    6  A    between atoms: C_14  and  N_15
REMARK    7  A    between atoms: C_16  and  C_18
REMARK    8  A    between atoms: C_22  and  C_23
REMARK                            x       y       z     vdW  Elec       q    Type
REMARK                         _______ _______ _______ _____ _____    ______ ____
ROOT
ATOM      1  C   UNL     1       4.468   5.122  17.263  0.00  0.00    +0.000 A 
ATOM      2  C   UNL     1       3.668   3.977  17.126  0.00  0.00    +0.000 A 
ATOM      3  C   UNL     1       2.355   3.964  17.582  0.00  0.00    +0.000 A 
ATOM      4  C   UNL     1       1.813   5.097  18.181  0.00  0.00    +0.000 A 
ATOM      5  C   UNL     1       2.572   6.259  18.335  0.00  0.00    +0.000 A 
ATOM      6  C   UNL     1       3.893   6.271  17.856  0.00  0.00    +0.000 A 
ENDROOT
BRANCH   5   7
ATOM      7  N   UNL     1       2.053   7.420  18.948  0.00  0.00    +0.000 N 
ATOM      8  C   UNL     1       1.598   7.521  20.254  0.00  0.00    +0.000 C 
ATOM      9  O   UNL     1       1.610   6.637  21.107  0.00  0.00    +0.000 OA
ATOM     10  H   UNL     1       2.058   8.287  18.419  0.00  0.00    +0.000 HD
BRANCH   8  11
ATOM     11  C   UNL     1       1.075   8.868  20.639  0.00  0.00    +0.000 A 
ATOM     12  C   UNL     1       0.508   9.042  21.897  0.00  0.00    +0.000 A 
ATOM     13  C   UNL     1       0.036  10.300  22.241  0.00  0.00    +0.000 A 
ATOM     14  C   UNL     1       0.144  11.340  21.322  0.00  0.00    +0.000 A 
ATOM     15  C   UNL     1       0.728  11.098  20.070  0.00  0.00    +0.000 A 
ATOM     16  N   UNL     1       1.197   9.863  19.719  0.00  0.00    +0.000 NA
BRANCH  15  17
ATOM     17  C   UNL     1       0.858  12.240  19.071  0.00  0.00    +0.000 C 
ATOM     18  F   UNL     1       0.960  13.468  19.659  0.00  0.00    +0.000 F 
ATOM     19  F   UNL     1       1.961  12.122  18.279  0.00  0.00    +0.000 F 
ATOM     20  F   UNL     1      -0.208  12.326  18.226  0.00  0.00    +0.000 F 
ENDBRANCH  15  17
ENDBRANCH   8  11
ENDBRANCH   5   7
BRANCH   1  22
ATOM     21  C   UNL     1       6.938   5.070  17.916  0.00  0.00    +0.000 C 
ATOM     22  C   UNL     1       5.916   5.151  16.770  0.00  0.00    +0.000 C 
BRANCH  22  23
ATOM     23  S   UNL     1       6.178   3.772  15.579  0.00  0.00    +0.000 S 
BRANCH  23  24
ATOM     24  C   UNL     1       6.993   4.578  14.288  0.00  0.00    +0.000 A 
ATOM     25  N   UNL     1       7.901   5.521  14.393  0.00  0.00    +0.000 NA
ATOM     26  N   UNL     1       8.337   5.825  13.120  0.00  0.00    +0.000 NA
ATOM     27  C   UNL     1       7.673   5.064  12.281  0.00  0.00    +0.000 A 
ATOM     28  N   UNL     1       6.798   4.278  12.971  0.00  0.00    +0.000 N 
ATOM     29  C   UNL     1       5.890   3.325  12.393  0.00  0.00    +0.000 C 
ENDBRANCH  23  24
ENDBRANCH  22  23
ENDBRANCH   1  22
TORSDOF 6
ENDMDL
MODEL 4
REMARK VINA RESULT:      -8.0      5.081      9.597
REMARK  Name = 
REMARK  8 active torsions:
REMARK  status: ('A' for Active; 'I' for Inactive)
REMARK    1  A    between atoms: C_1  and  C_2
REMARK    2  A    between atoms: C_2  and  S_3
REMARK    3  A    between atoms: C_2  and  C_10
REMARK    4  A    between atoms: S_3  and  C_4
REMARK    5  A    between atoms: N_8  and  C_9
REMARK    6  A    between atoms: C_14  and  N_15
REMARK    7  A    between atoms: C_16  and  C_18
REMARK    8  A    between atoms: C_22  and  C_23
REMARK                            x       y       z     vdW  Elec       q    Type
REMARK                         _______ _______ _______ _____ _____    ______ ____
ROOT
ATOM      1  C   UNL     1       4.773   6.185  17.690  0.00  0.00    +0.000 A 
ATOM      2  C   UNL     1       4.524   5.196  18.656  0.00  0.00    +0.000 A 
ATOM      3  C   UNL     1       3.394   5.254  19.463  0.00  0.00    +0.000 A 
ATOM      4  C   UNL     1       2.487   6.300  19.320  0.00  0.00    +0.000 A 
ATOM      5  C   UNL     1       2.695   7.304  18.371  0.00  0.00    +0.000 A 
ATOM      6  C   UNL     1       3.830   7.230  17.546  0.00  0.00    +0.000 A 
ENDROOT
BRANCH   5   7
ATOM      7  N   UNL     1       1.798   8.383  18.210  0.00  0.00    +0.000 N 
ATOM      8  C   UNL     1       1.223   9.126  19.229  0.00  0.00    +0.000 C 
ATOM      9  O   UNL     1       1.428   9.004  20.434  0.00  0.00    +0.000 OA
ATOM     10  H   UNL     1       1.586   8.696  17.267  0.00  0.00    +0.000 HD
BRANCH   8  11
ATOM     11  C   UNL     1       0.286  10.201  18.777  0.00  0.00    +0.000 A 
ATOM     12  C   UNL     1       0.461  11.497  19.250  0.00  0.00    +0.000 A 
ATOM     13  C   UNL     1      -0.411  12.483  18.815  0.00  0.00    +0.000 A 
ATOM     14  C   UNL     1      -1.426  12.146  17.923  0.00  0.00    +0.000 A 
ATOM     15  C   UNL     1      -1.547  10.820  17.484  0.00  0.00    +0.000 A 
ATOM     16  N   UNL     1      -0.694   9.838  17.906  0.00  0.00    +0.000 NA
BRANCH  15  17
ATOM     17  C   UNL     1      -2.649  10.455  16.498  0.00  0.00    +0.000 C 
ATOM     18  F   UNL     1      -2.769  11.339  15.464  0.00  0.00    +0.000 F 
ATOM     19  F   UNL     1      -2.453   9.237  15.917  0.00  0.00    +0.000 F 
ATOM     20  F   UNL     1      -3.881  10.402  17.080  0.00  0.00    +0.000 F 
ENDBRANCH  15  17
ENDBRANCH   8  11
ENDBRANCH   5   7
BRANCH   1  22
ATOM     21  C   UNL     1       7.312   6.449  17.562  0.00  0.00    +0.000 C 
ATOM     22  C   UNL     1       6.014   6.137  16.798  0.00  0.00    +0.000 C 
BRANCH  22  23
ATOM     23  S   UNL     1       6.122   4.483  15.999  0.00  0.00    +0.000 S 
BRANCH  23  24
ATOM     24  C   UNL     1       6.936   4.861  14.524  0.00  0.00    +0.000 A 
ATOM     25  N   UNL     1       7.971   5.655  14.373  0.00  0.00    +0.000 NA
ATOM     26  N   UNL     1       8.342   5.611  13.045  0.00  0.00    +0.000 NA
ATOM     27  C   UNL     1       7.514   4.800  12.429  0.00  0.00    +0.000 A 
ATOM     28  N   UNL     1       6.596   4.322  13.317  0.00  0.00    +0.000 N 
ATOM     29  C   UNL     1       5.522   3.418  13.009  0.00  0.00    +0.000 C 
ENDBRANCH  23  24
ENDBRANCH  22  23
ENDBRANCH   1  22
TORSDOF 6
ENDMDL
MODEL 5
REMARK VINA RESULT:      -8.0      6.553      8.674
REMARK  Name = 
REMARK  8 active torsions:
REMARK  status: ('A' for Active; 'I' for Inactive)
REMARK    1  A    between atoms: C_1  and  C_2
REMARK    2  A    between atoms: C_2  and  S_3
REMARK    3  A    between atoms: C_2  and  C_10
REMARK    4  A    between atoms: S_3  and  C_4
REMARK    5  A    between atoms: N_8  and  C_9
REMARK    6  A    between atoms: C_14  and  N_15
REMARK    7  A    between atoms: C_16  and  C_18
REMARK    8  A    between atoms: C_22  and  C_23
REMARK                            x       y       z     vdW  Elec       q    Type
REMARK                         _______ _______ _______ _____ _____    ______ ____
ROOT
ATOM      1  C   UNL     1       4.992   5.300  17.597  0.00  0.00    +0.000 A 
ATOM      2  C   UNL     1       5.586   4.427  16.671  0.00  0.00    +0.000 A 
ATOM      3  C   UNL     1       6.720   4.802  15.961  0.00  0.00    +0.000 A 
ATOM      4  C   UNL     1       7.287   6.056  16.164  0.00  0.00    +0.000 A 
ATOM      5  C   UNL     1       6.732   6.955  17.077  0.00  0.00    +0.000 A 
ATOM      6  C   UNL     1       5.595   6.563  17.805  0.00  0.00    +0.000 A 
ENDROOT
BRANCH   5   7
ATOM      7  N   UNL     1       7.279   8.238  17.297  0.00  0.00    +0.000 N 
ATOM      8  C   UNL     1       8.218   8.572  18.261  0.00  0.00    +0.000 C 
ATOM      9  O   UNL     1       8.765   7.807  19.052  0.00  0.00    +0.000 OA
ATOM     10  H   UNL     1       7.016   8.989  16.664  0.00  0.00    +0.000 HD
BRANCH   8  11
ATOM     11  C   UNL     1       8.608  10.016  18.290  0.00  0.00    +0.000 A 
ATOM     12  C   UNL     1       8.012  10.899  17.396  0.00  0.00    +0.000 A 
ATOM     13  C   UNL     1       8.379  12.235  17.443  0.00  0.00    +0.000 A 
ATOM     14  C   UNL     1       9.327  12.646  18.377  0.00  0.00    +0.000 A 
ATOM     15  C   UNL     1       9.889  11.705  19.251  0.00  0.00    +0.000 A 
ATOM     16  N   UNL     1       9.536  10.384  19.215  0.00  0.00    +0.000 NA
BRANCH  15  17
ATOM     17  C   UNL     1      10.915  12.159  20.280  0.00  0.00    +0.000 C 
ATOM     18  F   UNL     1      12.081  11.448  20.236  0.00  0.00    +0.000 F 
ATOM     19  F   UNL     1      11.277  13.464  20.122  0.00  0.00    +0.000 F 
ATOM     20  F   UNL     1      10.465  12.044  21.562  0.00  0.00    +0.000 F 
ENDBRANCH  15  17
ENDBRANCH   8  11
ENDBRANCH   5   7
BRANCH   1  22
ATOM     21  C   UNL     1       2.466   5.585  17.859  0.00  0.00    +0.000 C 
ATOM     22  C   UNL     1       3.742   4.904  18.383  0.00  0.00    +0.000 C 
BRANCH  22  23
ATOM     23  S   UNL     1       3.554   3.074  18.341  0.00  0.00    +0.000 S 
BRANCH  23  24
ATOM     24  C   UNL     1       2.857   2.759  19.889  0.00  0.00    +0.000 A 
ATOM     25  N   UNL     1       3.493   2.639  21.032  0.00  0.00    +0.000 NA
ATOM     26  N   UNL     1       2.547   2.467  22.021  0.00  0.00    +0.000 NA
ATOM     27  C   UNL     1       1.366   2.478  21.446  0.00  0.00    +0.000 A 
ATOM     28  N   UNL     1       1.515   2.637  20.100  0.00  0.00    +0.000 N 
ATOM     29  C   UNL     1       0.448   2.684  19.137  0.00  0.00    +0.000 C 
ENDBRANCH  23  24
ENDBRANCH  22  23
ENDBRANCH   1  22
TORSDOF 6
ENDMDL
MODEL 6
REMARK VINA RESULT:      -7.9      1.176      1.414
REMARK  Name = 
REMARK  8 active torsions:
REMARK  status: ('A' for Active; 'I' for Inactive)
REMARK    1  A    between atoms: C_1  and  C_2
REMARK    2  A    between atoms: C_2  and  S_3
REMARK    3  A    between atoms: C_2  and  C_10
REMARK    4  A    between atoms: S_3  and  C_4
REMARK    5  A    between atoms: N_8  and  C_9
REMARK    6  A    between atoms: C_14  and  N_15
REMARK    7  A    between atoms: C_16  and  C_18
REMARK    8  A    between atoms: C_22  and  C_23
REMARK                            x       y       z     vdW  Elec       q    Type
REMARK                         _______ _______ _______ _____ _____    ______ ____
ROOT
ATOM      1  C   UNL     1      -0.202  10.346  20.360  0.00  0.00    +0.000 A 
ATOM      2  C   UNL     1      -0.368  10.356  21.754  0.00  0.00    +0.000 A 
ATOM      3  C   UNL     1       0.330   9.468  22.564  0.00  0.00    +0.000 A 
ATOM      4  C   UNL     1       1.212   8.553  21.997  0.00  0.00    +0.000 A 
ATOM      5  C   UNL     1       1.410   8.510  20.615  0.00  0.00    +0.000 A 
ATOM      6  C   UNL     1       0.715   9.422  19.804  0.00  0.00    +0.000 A 
ENDROOT
BRANCH   5   7
ATOM      7  N   UNL     1       2.291   7.586  20.010  0.00  0.00    +0.000 N 
ATOM      8  C   UNL     1       2.198   6.204  20.077  0.00  0.00    +0.000 C 
ATOM      9  O   UNL     1       1.316   5.552  20.631  0.00  0.00    +0.000 OA
ATOM     10  H   UNL     1       3.035   7.946  19.419  0.00  0.00    +0.000 HD
BRANCH   8  11
ATOM     11  C   UNL     1       3.282   5.462  19.362  0.00  0.00    +0.000 A 
ATOM     12  C   UNL     1       3.502   4.123  19.666  0.00  0.00    +0.000 A 
ATOM     13  C   UNL     1       4.506   3.448  18.988  0.00  0.00    +0.000 A 
ATOM     14  C   UNL     1       5.255   4.128  18.032  0.00  0.00    +0.000 A 
ATOM     15  C   UNL     1       4.981   5.478  17.772  0.00  0.00    +0.000 A 
ATOM     16  N   UNL     1       3.995   6.156  18.434  0.00  0.00    +0.000 NA
BRANCH  15  17
ATOM     17  C   UNL     1       5.792   6.218  16.716  0.00  0.00    +0.000 C 
ATOM     18  F   UNL     1       5.146   6.336  15.518  0.00  0.00    +0.000 F 
ATOM     19  F   UNL     1       6.104   7.491  17.090  0.00  0.00    +0.000 F 
ATOM     20  F   UNL     1       6.977   5.605  16.435  0.00  0.00    +0.000 F 
ENDBRANCH  15  17
ENDBRANCH   8  11
ENDBRANCH   5   7
BRANCH   1  22
ATOM     21  C   UNL     1      -0.144  12.561  19.086  0.00  0.00    +0.000 C 
ATOM     22  C   UNL     1      -0.966  11.314  19.456  0.00  0.00    +0.000 C 
BRANCH  22  23
ATOM     23  S   UNL     1      -1.503  10.427  17.935  0.00  0.00    +0.000 S 
BRANCH  23  24
ATOM     24  C   UNL     1      -3.091  11.064  17.703  0.00  0.00    +0.000 A 
ATOM     25  N   UNL     1      -3.861  11.618  18.612  0.00  0.00    +0.000 NA
ATOM     26  N   UNL     1      -5.008  12.052  17.981  0.00  0.00    +0.000 NA
ATOM     27  C   UNL     1      -4.903  11.739  16.710  0.00  0.00    +0.000 A 
ATOM     28  N   UNL     1      -3.721  11.094  16.494  0.00  0.00    +0.000 N 
ATOM     29  C   UNL     1      -3.260  10.587  15.230  0.00  0.00    +0.000 C 
ENDBRANCH  23  24
ENDBRANCH  22  23
ENDBRANCH   1  22
TORSDOF 6
ENDMDL
MODEL 7
REMARK VINA RESULT:      -7.9      5.050      9.547
REMARK  Name = 
REMARK  8 active torsions:
REMARK  status: ('A' for Active; 'I' for Inactive)
REMARK    1  A    between atoms: C_1  and  C_2
REMARK    2  A    between atoms: C_2  and  S_3
REMARK    3  A    between atoms: C_2  and  C_10
REMARK    4  A    between atoms: S_3  and  C_4
REMARK    5  A    between atoms: N_8  and  C_9
REMARK    6  A    between atoms: C_14  and  N_15
REMARK    7  A    between atoms: C_16  and  C_18
REMARK    8  A    between atoms: C_22  and  C_23
REMARK                            x       y       z     vdW  Elec       q    Type
REMARK                         _______ _______ _______ _____ _____    ______ ____
ROOT
ATOM      1  C   UNL     1       4.798   5.368  18.058  0.00  0.00    +0.000 A 
ATOM      2  C   UNL     1       4.549   4.246  18.864  0.00  0.00    +0.000 A 
ATOM      3  C   UNL     1       3.462   4.213  19.729  0.00  0.00    +0.000 A 
ATOM      4  C   UNL     1       2.597   5.301  19.803  0.00  0.00    +0.000 A 
ATOM      5  C   UNL     1       2.805   6.437  19.018  0.00  0.00    +0.000 A 
ATOM      6  C   UNL     1       3.896   6.456  18.133  0.00  0.00    +0.000 A 
ENDROOT
BRANCH   5   7
ATOM      7  N   UNL     1       1.951   7.560  19.080  0.00  0.00    +0.000 N 
ATOM      8  C   UNL     1       1.916   8.611  18.175  0.00  0.00    +0.000 C 
ATOM      9  O   UNL     1       2.583   8.721  17.150  0.00  0.00    +0.000 OA
ATOM     10  H   UNL     1       1.251   7.593  19.815  0.00  0.00    +0.000 HD
BRANCH   8  11
ATOM     11  C   UNL     1       0.927   9.687  18.495  0.00  0.00    +0.000 A 
ATOM     12  C   UNL     1       1.240  10.628  19.470  0.00  0.00    +0.000 A 
ATOM     13  C   UNL     1       0.316  11.623  19.749  0.00  0.00    +0.000 A 
ATOM     14  C   UNL     1      -0.886  11.648  19.046  0.00  0.00    +0.000 A 
ATOM     15  C   UNL     1      -1.139  10.671  18.074  0.00  0.00    +0.000 A 
ATOM     16  N   UNL     1      -0.237   9.683  17.790  0.00  0.00    +0.000 NA
BRANCH  15  17
ATOM     17  C   UNL     1      -2.449  10.707  17.297  0.00  0.00    +0.000 C 
ATOM     18  F   UNL     1      -2.277  10.802  15.946  0.00  0.00    +0.000 F 
ATOM     19  F   UNL     1      -3.206   9.591  17.492  0.00  0.00    +0.000 F 
ATOM     20  F   UNL     1      -3.238  11.764  17.641  0.00  0.00    +0.000 F 
ENDBRANCH  15  17
ENDBRANCH   8  11
ENDBRANCH   5   7
BRANCH   1  22
ATOM     21  C   UNL     1       7.343   5.318  17.834  0.00  0.00    +0.000 C 
ATOM     22  C   UNL     1       5.993   5.421  17.105  0.00  0.00    +0.000 C 
BRANCH  22  23
ATOM     23  S   UNL     1       5.834   4.076  15.859  0.00  0.00    +0.000 S 
BRANCH  23  24
ATOM     24  C   UNL     1       6.789   4.691  14.559  0.00  0.00    +0.000 A 
ATOM     25  N   UNL     1       7.780   5.548  14.643  0.00  0.00    +0.000 NA
ATOM     26  N   UNL     1       8.308   5.703  13.378  0.00  0.00    +0.000 NA
ATOM     27  C   UNL     1       7.614   4.943  12.563  0.00  0.00    +0.000 A 
ATOM     28  N   UNL     1       6.631   4.304  13.260  0.00  0.00    +0.000 N 
ATOM     29  C   UNL     1       5.662   3.398  12.706  0.00  0.00    +0.000 C 
ENDBRANCH  23  24
ENDBRANCH  22  23
ENDBRANCH   1  22
TORSDOF 6
ENDMDL
MODEL 8
REMARK VINA RESULT:      -7.8      4.823      9.303
REMARK  Name = 
REMARK  8 active torsions:
REMARK  status: ('A' for Active; 'I' for Inactive)
REMARK    1  A    between atoms: C_1  and  C_2
REMARK    2  A    between atoms: C_2  and  S_3
REMARK    3  A    between atoms: C_2  and  C_10
REMARK    4  A    between atoms: S_3  and  C_4
REMARK    5  A    between atoms: N_8  and  C_9
REMARK    6  A    between atoms: C_14  and  N_15
REMARK    7  A    between atoms: C_16  and  C_18
REMARK    8  A    between atoms: C_22  and  C_23
REMARK                            x       y       z     vdW  Elec       q    Type
REMARK                         _______ _______ _______ _____ _____    ______ ____
ROOT
ATOM      1  C   UNL     1       4.322   5.128  17.282  0.00  0.00    +0.000 A 
ATOM      2  C   UNL     1       4.593   4.051  18.142  0.00  0.00    +0.000 A 
ATOM      3  C   UNL     1       4.095   4.029  19.439  0.00  0.00    +0.000 A 
ATOM      4  C   UNL     1       3.312   5.082  19.904  0.00  0.00    +0.000 A 
ATOM      5  C   UNL     1       3.016   6.172  19.083  0.00  0.00    +0.000 A 
ATOM      6  C   UNL     1       3.507   6.179  17.767  0.00  0.00    +0.000 A 
ENDROOT
BRANCH   5   7
ATOM      7  N   UNL     1       2.233   7.259  19.530  0.00  0.00    +0.000 N 
ATOM      8  C   UNL     1       1.958   8.416  18.817  0.00  0.00    +0.000 C 
ATOM      9  O   UNL     1       2.306   8.671  17.667  0.00  0.00    +0.000 OA
ATOM     10  H   UNL     1       1.773   7.182  20.433  0.00  0.00    +0.000 HD
BRANCH   8  11
ATOM     11  C   UNL     1       1.120   9.421  19.542  0.00  0.00    +0.000 A 
ATOM     12  C   UNL     1       0.716  10.573  18.877  0.00  0.00    +0.000 A 
ATOM     13  C   UNL     1      -0.068  11.491  19.561  0.00  0.00    +0.000 A 
ATOM     14  C   UNL     1      -0.421  11.230  20.882  0.00  0.00    +0.000 A 
ATOM     15  C   UNL     1       0.019  10.047  21.494  0.00  0.00    +0.000 A 
ATOM     16  N   UNL     1       0.792   9.135  20.831  0.00  0.00    +0.000 NA
BRANCH  15  17
ATOM     17  C   UNL     1      -0.380   9.757  22.935  0.00  0.00    +0.000 C 
ATOM     18  F   UNL     1      -1.077  10.774  23.522  0.00  0.00    +0.000 F 
ATOM     19  F   UNL     1      -1.176   8.656  23.048  0.00  0.00    +0.000 F 
ATOM     20  F   UNL     1       0.693   9.533  23.745  0.00  0.00    +0.000 F 
ENDBRANCH  15  17
ENDBRANCH   8  11
ENDBRANCH   5   7
BRANCH   1  22
ATOM     21  C   UNL     1       5.130   6.600  15.357  0.00  0.00    +0.000 C 
ATOM     22  C   UNL     1       4.865   5.169  15.854  0.00  0.00    +0.000 C 
BRANCH  22  23
ATOM     23  S   UNL     1       6.404   4.163  15.762  0.00  0.00    +0.000 S 
BRANCH  23  24
ATOM     24  C   UNL     1       7.091   4.713  14.277  0.00  0.00    +0.000 A 
ATOM     25  N   UNL     1       8.076   5.570  14.131  0.00  0.00    +0.000 NA
ATOM     26  N   UNL     1       8.352   5.663  12.782  0.00  0.00    +0.000 NA
ATOM     27  C   UNL     1       7.520   4.868  12.151  0.00  0.00    +0.000 A 
ATOM     28  N   UNL     1       6.690   4.266  13.051  0.00  0.00    +0.000 N 
ATOM     29  C   UNL     1       5.639   3.339  12.734  0.00  0.00    +0.000 C 
ENDBRANCH  23  24
ENDBRANCH  22  23
ENDBRANCH   1  22
TORSDOF 6
ENDMDL
MODEL 9
REMARK VINA RESULT:      -7.8      7.490      9.475
REMARK  Name = 
REMARK  8 active torsions:
REMARK  status: ('A' for Active; 'I' for Inactive)
REMARK    1  A    between atoms: C_1  and  C_2
REMARK    2  A    between atoms: C_2  and  S_3
REMARK    3  A    between atoms: C_2  and  C_10
REMARK    4  A    between atoms: S_3  and  C_4
REMARK    5  A    between atoms: N_8  and  C_9
REMARK    6  A    between atoms: C_14  and  N_15
REMARK    7  A    between atoms: C_16  and  C_18
REMARK    8  A    between atoms: C_22  and  C_23
REMARK                            x       y       z     vdW  Elec       q    Type
REMARK                         _______ _______ _______ _____ _____    ______ ____
ROOT
ATOM      1  C   UNL     1       9.678  12.518  21.144  0.00  0.00    +0.000 A 
ATOM      2  C   UNL     1      10.783  13.045  20.456  0.00  0.00    +0.000 A 
ATOM      3  C   UNL     1      11.342  12.370  19.377  0.00  0.00    +0.000 A 
ATOM      4  C   UNL     1      10.806  11.155  18.961  0.00  0.00    +0.000 A 
ATOM      5  C   UNL     1       9.706  10.595  19.614  0.00  0.00    +0.000 A 
ATOM      6  C   UNL     1       9.135  11.291  20.693  0.00  0.00    +0.000 A 
ENDROOT
BRANCH   5   7
ATOM      7  N   UNL     1       9.147   9.359  19.222  0.00  0.00    +0.000 N 
ATOM      8  C   UNL     1       8.266   9.158  18.170  0.00  0.00    +0.000 C 
ATOM      9  O   UNL     1       7.860  10.005  17.378  0.00  0.00    +0.000 OA
ATOM     10  H   UNL     1       9.449   8.519  19.706  0.00  0.00    +0.000 HD
BRANCH   8  11
ATOM     11  C   UNL     1       7.809   7.745  17.989  0.00  0.00    +0.000 A 
ATOM     12  C   UNL     1       8.265   6.767  18.866  0.00  0.00    +0.000 A 
ATOM     13  C   UNL     1       7.825   5.464  18.689  0.00  0.00    +0.000 A 
ATOM     14  C   UNL     1       6.948   5.180  17.646  0.00  0.00    +0.000 A 
ATOM     15  C   UNL     1       6.526   6.213  16.797  0.00  0.00    +0.000 A 
ATOM     16  N   UNL     1       6.952   7.502  16.961  0.00  0.00    +0.000 NA
BRANCH  15  17
ATOM     17  C   UNL     1       5.556   5.903  15.665  0.00  0.00    +0.000 C 
ATOM     18  F   UNL     1       4.901   7.005  15.193  0.00  0.00    +0.000 F 
ATOM     19  F   UNL     1       6.173   5.353  14.581  0.00  0.00    +0.000 F 
ATOM     20  F   UNL     1       4.580   5.025  16.030  0.00  0.00    +0.000 F 
ENDBRANCH  15  17
ENDBRANCH   8  11
ENDBRANCH   5   7
BRANCH   1  22
ATOM     21  C   UNL     1       8.549  14.654  21.976  0.00  0.00    +0.000 C 
ATOM     22  C   UNL     1       9.055  13.246  22.335  0.00  0.00    +0.000 C 
BRANCH  22  23
ATOM     23  S   UNL     1       7.682  12.228  23.018  0.00  0.00    +0.000 S 
BRANCH  23  24
ATOM     24  C   UNL     1       7.788  12.586  24.703  0.00  0.00    +0.000 A 
ATOM     25  N   UNL     1       8.648  13.389  25.288  0.00  0.00    +0.000 NA
ATOM     26  N   UNL     1       8.327  13.440  26.629  0.00  0.00    +0.000 NA
ATOM     27  C   UNL     1       7.289  12.659  26.818  0.00  0.00    +0.000 A 
ATOM     28  N   UNL     1       6.929  12.082  25.636  0.00  0.00    +0.000 N 
ATOM     29  C   UNL     1       5.846  11.155  25.449  0.00  0.00    +0.000 C 
ENDBRANCH  23  24
ENDBRANCH  22  23
ENDBRANCH   1  22
TORSDOF 6
ENDMDL
