MODEL 1
REMARK VINA RESULT:      -9.5      0.000      0.000
REMARK  Name = 
REMARK  8 active torsions:
REMARK  status: ('A' for Active; 'I' for Inactive)
REMARK    1  A    between atoms: C_1  and  C_2
REMARK    2  A    between atoms: C_4  and  C_5
REMARK    3  A    between atoms: N_7  and  C_8
REMARK    4  A    between atoms: C_12  and  C_13
REMARK    5  A    between atoms: C_13  and  C_14
REMARK    6  A    between atoms: C_14  and  C_15
REMARK    7  A    between atoms: N_19  and  C_20
REMARK    8  A    between atoms: C_28  and  C_29
REMARK                            x       y       z     vdW  Elec       q    Type
REMARK                         _______ _______ _______ _____ _____    ______ ____
ROOT
ATOM      1  C   UNL     1       2.552   6.078  18.097  0.00  0.00    +0.000 A 
ATOM      2  C   UNL     1       1.794   4.914  17.949  0.00  0.00    +0.000 A 
ATOM      3  C   UNL     1       2.356   3.763  17.405  0.00  0.00    +0.000 A 
ATOM      4  C   UNL     1       3.692   3.760  17.010  0.00  0.00    +0.000 A 
ATOM      5  C   UNL     1       4.506   4.903  17.140  0.00  0.00    +0.000 A 
ATOM      6  C   UNL     1       3.884   6.065  17.667  0.00  0.00    +0.000 A 
ENDROOT
BRANCH   1   9
ATOM      7  C   UNL     1       1.657   7.427  19.990  0.00  0.00    +0.000 C 
ATOM      8  O   UNL     1       1.739   6.577  20.876  0.00  0.00    +0.000 OA
ATOM      9  N   UNL     1       2.037   7.264  18.668  0.00  0.00    +0.000 N 
ATOM     10  H   UNL     1       2.015   8.105  18.098  0.00  0.00    +0.000 HD
BRANCH   7  14
ATOM     11  C   UNL     1      -0.801  10.412  23.099  0.00  0.00    +0.000 C 
ATOM     12  C   UNL     1      -0.035  10.147  21.839  0.00  0.00    +0.000 A 
ATOM     13  C   UNL     1       0.445   8.899  21.548  0.00  0.00    +0.000 A 
ATOM     14  C   UNL     1       1.134   8.782  20.357  0.00  0.00    +0.000 A 
ATOM     15  N   UNL     1       1.362   9.804  19.498  0.00  0.00    +0.000 NA
ATOM     16  C   UNL     1       0.856  11.000  19.868  0.00  0.00    +0.000 A 
ATOM     17  N   UNL     1       0.162  11.190  21.013  0.00  0.00    +0.000 NA
BRANCH  16  18
ATOM     18  C   UNL     1       1.049  12.224  19.006  0.00  0.00    +0.000 C 
ATOM     19  C   UNL     1       1.924  13.339  19.545  0.00  0.00    +0.000 C 
ATOM     20  C   UNL     1       2.352  12.570  18.329  0.00  0.00    +0.000 C 
ENDBRANCH  16  18
ENDBRANCH   7  14
ENDBRANCH   1   9
BRANCH   5  21
ATOM     21  C   UNL     1       6.058   4.871  16.732  0.00  0.00    +0.000 C 
ATOM     22  C   UNL     1       6.822   6.218  16.618  0.00  0.00    +0.000 C 
ATOM     23  O   UNL     1       7.930   5.690  17.396  0.00  0.00    +0.000 OA
ATOM     24  C   UNL     1       7.076   4.630  17.885  0.00  0.00    +0.000 C 
BRANCH  21  25
ATOM     25  C   UNL     1       6.318   3.890  15.575  0.00  0.00    +0.000 C 
BRANCH  25  26
ATOM     26  C   UNL     1       6.942   4.525  14.380  0.00  0.00    +0.000 A 
ATOM     27  N   UNL     1       7.869   5.462  14.385  0.00  0.00    +0.000 NA
ATOM     28  N   UNL     1       8.198   5.753  13.082  0.00  0.00    +0.000 NA
ATOM     29  C   UNL     1       7.471   4.984  12.308  0.00  0.00    +0.000 A 
ATOM     30  N   UNL     1       6.656   4.213  13.076  0.00  0.00    +0.000 N 
BRANCH  30  31
ATOM     31  C   UNL     1       5.675   3.276  12.591  0.00  0.00    +0.000 C 
ATOM     32  F   UNL     1       4.744   3.880  11.807  0.00  0.00    +0.000 F 
ATOM     33  F   UNL     1       6.257   2.314  11.828  0.00  0.00    +0.000 F 
ENDBRANCH  30  31
ENDBRANCH  25  26
ENDBRANCH  21  25
ENDBRANCH   5  21
TORSDOF 7
ENDMDL
MODEL 2
REMARK VINA RESULT:      -9.2      1.087      2.368
REMARK  Name = 
REMARK  8 active torsions:
REMARK  status: ('A' for Active; 'I' for Inactive)
REMARK    1  A    between atoms: C_1  and  C_2
REMARK    2  A    between atoms: C_4  and  C_5
REMARK    3  A    between atoms: N_7  and  C_8
REMARK    4  A    between atoms: C_12  and  C_13
REMARK    5  A    between atoms: C_13  and  C_14
REMARK    6  A    between atoms: C_14  and  C_15
REMARK    7  A    between atoms: N_19  and  C_20
REMARK    8  A    between atoms: C_28  and  C_29
REMARK                            x       y       z     vdW  Elec       q    Type
REMARK                         _______ _______ _______ _____ _____    ______ ____
ROOT
ATOM      1  C   UNL     1       2.487   5.926  18.127  0.00  0.00    +0.000 A 
ATOM      2  C   UNL     1       1.763   4.734  18.041  0.00  0.00    +0.000 A 
ATOM      3  C   UNL     1       2.337   3.591  17.491  0.00  0.00    +0.000 A 
ATOM      4  C   UNL     1       3.649   3.625  17.026  0.00  0.00    +0.000 A 
ATOM      5  C   UNL     1       4.428   4.798  17.090  0.00  0.00    +0.000 A 
ATOM      6  C   UNL     1       3.795   5.949  17.626  0.00  0.00    +0.000 A 
ENDROOT
BRANCH   1   9
ATOM      7  C   UNL     1       2.023   8.373  18.147  0.00  0.00    +0.000 C 
ATOM      8  O   UNL     1       2.513   8.661  17.056  0.00  0.00    +0.000 OA
ATOM      9  N   UNL     1       1.962   7.105  18.702  0.00  0.00    +0.000 N 
ATOM     10  H   UNL     1       1.414   7.025  19.554  0.00  0.00    +0.000 HD
BRANCH   7  14
ATOM     11  C   UNL     1       1.245  13.197  19.007  0.00  0.00    +0.000 C 
ATOM     12  C   UNL     1       1.064  11.744  19.326  0.00  0.00    +0.000 A 
ATOM     13  C   UNL     1       1.635  10.769  18.555  0.00  0.00    +0.000 A 
ATOM     14  C   UNL     1       1.396   9.469  18.951  0.00  0.00    +0.000 A 
ATOM     15  N   UNL     1       0.640   9.120  20.021  0.00  0.00    +0.000 NA
ATOM     16  C   UNL     1       0.112  10.146  20.722  0.00  0.00    +0.000 A 
ATOM     17  N   UNL     1       0.311  11.444  20.400  0.00  0.00    +0.000 NA
BRANCH  16  18
ATOM     18  C   UNL     1      -0.759   9.894  21.928  0.00  0.00    +0.000 C 
ATOM     19  C   UNL     1      -0.074   9.604  23.249  0.00  0.00    +0.000 C 
ATOM     20  C   UNL     1      -0.884  10.856  23.083  0.00  0.00    +0.000 C 
ENDBRANCH  16  18
ENDBRANCH   7  14
ENDBRANCH   1   9
BRANCH   5  21
ATOM     21  C   UNL     1       5.957   4.810  16.601  0.00  0.00    +0.000 C 
ATOM     22  C   UNL     1       6.709   6.167  16.554  0.00  0.00    +0.000 C 
ATOM     23  O   UNL     1       7.858   5.589  17.229  0.00  0.00    +0.000 OA
ATOM     24  C   UNL     1       7.034   4.486  17.676  0.00  0.00    +0.000 C 
BRANCH  21  25
ATOM     25  C   UNL     1       6.159   3.926  15.357  0.00  0.00    +0.000 C 
BRANCH  25  26
ATOM     26  C   UNL     1       6.921   4.594  14.264  0.00  0.00    +0.000 A 
ATOM     27  N   UNL     1       7.904   5.461  14.412  0.00  0.00    +0.000 NA
ATOM     28  N   UNL     1       8.359   5.814  13.163  0.00  0.00    +0.000 NA
ATOM     29  C   UNL     1       7.651   5.152  12.280  0.00  0.00    +0.000 A 
ATOM     30  N   UNL     1       6.726   4.390  12.923  0.00  0.00    +0.000 N 
BRANCH  30  31
ATOM     31  C   UNL     1       5.731   3.559  12.295  0.00  0.00    +0.000 C 
ATOM     32  F   UNL     1       6.047   2.241  12.383  0.00  0.00    +0.000 F 
ATOM     33  F   UNL     1       4.523   3.708  12.896  0.00  0.00    +0.000 F 
ENDBRANCH  30  31
ENDBRANCH  25  26
ENDBRANCH  21  25
ENDBRANCH   5  21
TORSDOF 7
ENDMDL
MODEL 3
REMARK VINA RESULT:      -9.1      1.132      1.362
REMARK  Name = 
REMARK  8 active torsions:
REMARK  status: ('A' for Active; 'I' for Inactive)
REMARK    1  A    between atoms: C_1  and  C_2
REMARK    2  A    between atoms: C_4  and  C_5
REMARK    3  A    between atoms: N_7  and  C_8
REMARK    4  A    between atoms: C_12  and  C_13
REMARK    5  A    between atoms: C_13  and  C_14
REMARK    6  A    between atoms: C_14  and  C_15
REMARK    7  A    between atoms: N_19  and  C_20
REMARK    8  A    between atoms: C_28  and  C_29
REMARK                            x       y       z     vdW  Elec       q    Type
REMARK                         _______ _______ _______ _____ _____    ______ ____
ROOT
ATOM      1  C   UNL     1       2.492   5.507  18.549  0.00  0.00    +0.000 A 
ATOM      2  C   UNL     1       1.861   4.267  18.429  0.00  0.00    +0.000 A 
ATOM      3  C   UNL     1       2.501   3.199  17.805  0.00  0.00    +0.000 A 
ATOM      4  C   UNL     1       3.789   3.359  17.300  0.00  0.00    +0.000 A 
ATOM      5  C   UNL     1       4.476   4.586  17.395  0.00  0.00    +0.000 A 
ATOM      6  C   UNL     1       3.775   5.657  18.007  0.00  0.00    +0.000 A 
ENDROOT
BRANCH   1   9
ATOM      7  C   UNL     1       2.129   7.946  18.899  0.00  0.00    +0.000 C 
ATOM      8  O   UNL     1       2.860   8.370  18.005  0.00  0.00    +0.000 OA
ATOM      9  N   UNL     1       1.898   6.613  19.197  0.00  0.00    +0.000 N 
ATOM     10  H   UNL     1       1.172   6.437  19.887  0.00  0.00    +0.000 HD
BRANCH   7  14
ATOM     11  C   UNL     1       0.286   9.402  23.269  0.00  0.00    +0.000 C 
ATOM     12  C   UNL     1       0.524   9.583  21.801  0.00  0.00    +0.000 A 
ATOM     13  C   UNL     1       1.230   8.663  21.076  0.00  0.00    +0.000 A 
ATOM     14  C   UNL     1       1.382   8.941  19.733  0.00  0.00    +0.000 A 
ATOM     15  N   UNL     1       0.895  10.046  19.119  0.00  0.00    +0.000 NA
ATOM     16  C   UNL     1       0.215  10.902  19.911  0.00  0.00    +0.000 A 
ATOM     17  N   UNL     1       0.017  10.692  21.232  0.00  0.00    +0.000 NA
BRANCH  16  18
ATOM     18  C   UNL     1      -0.369  12.178  19.354  0.00  0.00    +0.000 C 
ATOM     19  C   UNL     1      -1.667  12.083  18.576  0.00  0.00    +0.000 C 
ATOM     20  C   UNL     1      -1.627  12.820  19.882  0.00  0.00    +0.000 C 
ENDBRANCH  16  18
ENDBRANCH   7  14
ENDBRANCH   1   9
BRANCH   5  21
ATOM     21  C   UNL     1       5.981   4.742  16.857  0.00  0.00    +0.000 C 
ATOM     22  C   UNL     1       6.557   6.172  16.674  0.00  0.00    +0.000 C 
ATOM     23  O   UNL     1       7.783   5.798  17.357  0.00  0.00    +0.000 OA
ATOM     24  C   UNL     1       7.113   4.646  17.920  0.00  0.00    +0.000 C 
BRANCH  21  25
ATOM     25  C   UNL     1       6.263   3.785  15.685  0.00  0.00    +0.000 C 
BRANCH  25  26
ATOM     26  C   UNL     1       6.902   4.447  14.512  0.00  0.00    +0.000 A 
ATOM     27  N   UNL     1       7.798   5.414  14.550  0.00  0.00    +0.000 NA
ATOM     28  N   UNL     1       8.157   5.722  13.259  0.00  0.00    +0.000 NA
ATOM     29  C   UNL     1       7.479   4.934  12.460  0.00  0.00    +0.000 A 
ATOM     30  N   UNL     1       6.666   4.133  13.199  0.00  0.00    +0.000 N 
BRANCH  30  31
ATOM     31  C   UNL     1       5.732   3.166  12.680  0.00  0.00    +0.000 C 
ATOM     32  F   UNL     1       4.611   3.760  12.194  0.00  0.00    +0.000 F 
ATOM     33  F   UNL     1       6.277   2.467  11.650  0.00  0.00    +0.000 F 
ENDBRANCH  30  31
ENDBRANCH  25  26
ENDBRANCH  21  25
ENDBRANCH   5  21
TORSDOF 7
ENDMDL
MODEL 4
REMARK VINA RESULT:      -9.0      4.161      9.420
REMARK  Name = 
REMARK  8 active torsions:
REMARK  status: ('A' for Active; 'I' for Inactive)
REMARK    1  A    between atoms: C_1  and  C_2
REMARK    2  A    between atoms: C_4  and  C_5
REMARK    3  A    between atoms: N_7  and  C_8
REMARK    4  A    between atoms: C_12  and  C_13
REMARK    5  A    between atoms: C_13  and  C_14
REMARK    6  A    between atoms: C_14  and  C_15
REMARK    7  A    between atoms: N_19  and  C_20
REMARK    8  A    between atoms: C_28  and  C_29
REMARK                            x       y       z     vdW  Elec       q    Type
REMARK                         _______ _______ _______ _____ _____    ______ ____
ROOT
ATOM      1  C   UNL     1       1.407   8.333  20.655  0.00  0.00    +0.000 A 
ATOM      2  C   UNL     1       0.959   8.382  21.976  0.00  0.00    +0.000 A 
ATOM      3  C   UNL     1       0.081   9.379  22.394  0.00  0.00    +0.000 A 
ATOM      4  C   UNL     1      -0.367  10.336  21.487  0.00  0.00    +0.000 A 
ATOM      5  C   UNL     1       0.048  10.334  20.141  0.00  0.00    +0.000 A 
ATOM      6  C   UNL     1       0.970   9.322  19.765  0.00  0.00    +0.000 A 
ENDROOT
BRANCH   1   9
ATOM      7  C   UNL     1       2.053   5.962  20.248  0.00  0.00    +0.000 C 
ATOM      8  O   UNL     1       1.053   5.417  20.713  0.00  0.00    +0.000 OA
ATOM      9  N   UNL     1       2.275   7.327  20.174  0.00  0.00    +0.000 N 
ATOM     10  H   UNL     1       3.099   7.609  19.649  0.00  0.00    +0.000 HD
BRANCH   7  14
ATOM     11  C   UNL     1       3.530   1.653  18.281  0.00  0.00    +0.000 C 
ATOM     12  C   UNL     1       3.781   3.051  18.760  0.00  0.00    +0.000 A 
ATOM     13  C   UNL     1       2.770   3.823  19.262  0.00  0.00    +0.000 A 
ATOM     14  C   UNL     1       3.127   5.092  19.670  0.00  0.00    +0.000 A 
ATOM     15  N   UNL     1       4.381   5.600  19.591  0.00  0.00    +0.000 NA
ATOM     16  C   UNL     1       5.314   4.770  19.078  0.00  0.00    +0.000 A 
ATOM     17  N   UNL     1       5.042   3.511  18.668  0.00  0.00    +0.000 NA
BRANCH  16  18
ATOM     18  C   UNL     1       6.748   5.216  18.924  0.00  0.00    +0.000 C 
ATOM     19  C   UNL     1       7.480   4.821  17.656  0.00  0.00    +0.000 C 
ATOM     20  C   UNL     1       7.193   6.267  17.937  0.00  0.00    +0.000 C 
ENDBRANCH  16  18
ENDBRANCH   7  14
ENDBRANCH   1   9
BRANCH   5  21
ATOM     21  C   UNL     1      -0.517  11.411  19.093  0.00  0.00    +0.000 C 
ATOM     22  C   UNL     1      -1.258  12.660  19.641  0.00  0.00    +0.000 C 
ATOM     23  O   UNL     1      -0.491  13.534  18.771  0.00  0.00    +0.000 OA
ATOM     24  C   UNL     1       0.489  12.485  18.587  0.00  0.00    +0.000 C 
BRANCH  21  25
ATOM     25  C   UNL     1      -1.214  10.728  17.902  0.00  0.00    +0.000 C 
BRANCH  25  26
ATOM     26  C   UNL     1      -2.652  11.094  17.760  0.00  0.00    +0.000 A 
ATOM     27  N   UNL     1      -3.449  11.527  18.717  0.00  0.00    +0.000 NA
ATOM     28  N   UNL     1      -4.684  11.782  18.170  0.00  0.00    +0.000 NA
ATOM     29  C   UNL     1      -4.616  11.505  16.890  0.00  0.00    +0.000 A 
ATOM     30  N   UNL     1      -3.369  11.053  16.592  0.00  0.00    +0.000 N 
BRANCH  30  31
ATOM     31  C   UNL     1      -2.919  10.602  15.300  0.00  0.00    +0.000 C 
ATOM     32  F   UNL     1      -2.560   9.292  15.320  0.00  0.00    +0.000 F 
ATOM     33  F   UNL     1      -3.906  10.719  14.374  0.00  0.00    +0.000 F 
ENDBRANCH  30  31
ENDBRANCH  25  26
ENDBRANCH  21  25
ENDBRANCH   5  21
TORSDOF 7
ENDMDL
MODEL 5
REMARK VINA RESULT:      -8.9      2.944      3.779
REMARK  Name = 
REMARK  8 active torsions:
REMARK  status: ('A' for Active; 'I' for Inactive)
REMARK    1  A    between atoms: C_1  and  C_2
REMARK    2  A    between atoms: C_4  and  C_5
REMARK    3  A    between atoms: N_7  and  C_8
REMARK    4  A    between atoms: C_12  and  C_13
REMARK    5  A    between atoms: C_13  and  C_14
REMARK    6  A    between atoms: C_14  and  C_15
REMARK    7  A    between atoms: N_19  and  C_20
REMARK    8  A    between atoms: C_28  and  C_29
REMARK                            x       y       z     vdW  Elec       q    Type
REMARK                         _______ _______ _______ _____ _____    ______ ____
ROOT
ATOM      1  C   UNL     1       2.531   5.810  18.425  0.00  0.00    +0.000 A 
ATOM      2  C   UNL     1       1.885   4.574  18.484  0.00  0.00    +0.000 A 
ATOM      3  C   UNL     1       2.369   3.482  17.767  0.00  0.00    +0.000 A 
ATOM      4  C   UNL     1       3.514   3.615  16.987  0.00  0.00    +0.000 A 
ATOM      5  C   UNL     1       4.210   4.837  16.892  0.00  0.00    +0.000 A 
ATOM      6  C   UNL     1       3.664   5.932  17.610  0.00  0.00    +0.000 A 
ENDROOT
BRANCH   1   9
ATOM      7  C   UNL     1       1.909   8.212  18.640  0.00  0.00    +0.000 C 
ATOM      8  O   UNL     1       2.056   8.546  17.465  0.00  0.00    +0.000 OA
ATOM      9  N   UNL     1       2.098   6.940  19.155  0.00  0.00    +0.000 N 
ATOM     10  H   UNL     1       1.815   6.812  20.123  0.00  0.00    +0.000 HD
BRANCH   7  14
ATOM     11  C   UNL     1       0.211   9.468  23.130  0.00  0.00    +0.000 C 
ATOM     12  C   UNL     1       0.643   9.796  21.733  0.00  0.00    +0.000 A 
ATOM     13  C   UNL     1       1.078   8.823  20.876  0.00  0.00    +0.000 A 
ATOM     14  C   UNL     1       1.448   9.250  19.617  0.00  0.00    +0.000 A 
ATOM     15  N   UNL     1       1.415  10.540  19.204  0.00  0.00    +0.000 NA
ATOM     16  C   UNL     1       0.977  11.434  20.116  0.00  0.00    +0.000 A 
ATOM     17  N   UNL     1       0.588  11.089  21.364  0.00  0.00    +0.000 NA
BRANCH  16  18
ATOM     18  C   UNL     1       0.903  12.906  19.788  0.00  0.00    +0.000 C 
ATOM     19  C   UNL     1       2.169  13.727  19.930  0.00  0.00    +0.000 C 
ATOM     20  C   UNL     1       1.555  13.523  18.576  0.00  0.00    +0.000 C 
ENDBRANCH  16  18
ENDBRANCH   7  14
ENDBRANCH   1   9
BRANCH   5  21
ATOM     21  C   UNL     1       5.559   4.962  16.032  0.00  0.00    +0.000 C 
ATOM     22  C   UNL     1       6.393   3.679  15.770  0.00  0.00    +0.000 C 
ATOM     23  O   UNL     1       6.515   4.009  14.361  0.00  0.00    +0.000 OA
ATOM     24  C   UNL     1       5.404   4.927  14.483  0.00  0.00    +0.000 C 
BRANCH  21  25
ATOM     25  C   UNL     1       6.389   6.186  16.459  0.00  0.00    +0.000 C 
BRANCH  25  26
ATOM     26  C   UNL     1       7.116   5.996  17.747  0.00  0.00    +0.000 A 
ATOM     27  N   UNL     1       7.196   4.880  18.444  0.00  0.00    +0.000 NA
ATOM     28  N   UNL     1       7.982   5.115  19.547  0.00  0.00    +0.000 NA
ATOM     29  C   UNL     1       8.371   6.367  19.499  0.00  0.00    +0.000 A 
ATOM     30  N   UNL     1       7.838   6.962  18.399  0.00  0.00    +0.000 N 
BRANCH  30  31
ATOM     31  C   UNL     1       7.994   8.345  18.027  0.00  0.00    +0.000 C 
ATOM     32  F   UNL     1       8.790   9.016  18.901  0.00  0.00    +0.000 F 
ATOM     33  F   UNL     1       8.581   8.457  16.807  0.00  0.00    +0.000 F 
ENDBRANCH  30  31
ENDBRANCH  25  26
ENDBRANCH  21  25
ENDBRANCH   5  21
TORSDOF 7
ENDMDL
MODEL 6
REMARK VINA RESULT:      -8.8      4.169      9.433
REMARK  Name = 
REMARK  8 active torsions:
REMARK  status: ('A' for Active; 'I' for Inactive)
REMARK    1  A    between atoms: C_1  and  C_2
REMARK    2  A    between atoms: C_4  and  C_5
REMARK    3  A    between atoms: N_7  and  C_8
REMARK    4  A    between atoms: C_12  and  C_13
REMARK    5  A    between atoms: C_13  and  C_14
REMARK    6  A    between atoms: C_14  and  C_15
REMARK    7  A    between atoms: N_19  and  C_20
REMARK    8  A    between atoms: C_28  and  C_29
REMARK                            x       y       z     vdW  Elec       q    Type
REMARK                         _______ _______ _______ _____ _____    ______ ____
ROOT
ATOM      1  C   UNL     1       0.643   9.010  21.579  0.00  0.00    +0.000 A 
ATOM      2  C   UNL     1      -0.104   9.184  22.747  0.00  0.00    +0.000 A 
ATOM      3  C   UNL     1      -0.746  10.391  23.009  0.00  0.00    +0.000 A 
ATOM      4  C   UNL     1      -0.654  11.440  22.098  0.00  0.00    +0.000 A 
ATOM      5  C   UNL     1       0.081  11.321  20.901  0.00  0.00    +0.000 A 
ATOM      6  C   UNL     1       0.748  10.087  20.689  0.00  0.00    +0.000 A 
ENDROOT
BRANCH   1   9
ATOM      7  C   UNL     1       1.817   7.468  20.014  0.00  0.00    +0.000 C 
ATOM      8  O   UNL     1       1.832   8.193  19.020  0.00  0.00    +0.000 OA
ATOM      9  N   UNL     1       1.290   7.797  21.253  0.00  0.00    +0.000 N 
ATOM     10  H   UNL     1       1.470   7.129  21.998  0.00  0.00    +0.000 HD
BRANCH   7  14
ATOM     11  C   UNL     1       2.135   2.728  21.443  0.00  0.00    +0.000 C 
ATOM     12  C   UNL     1       2.575   3.900  20.619  0.00  0.00    +0.000 A 
ATOM     13  C   UNL     1       1.956   5.115  20.724  0.00  0.00    +0.000 A 
ATOM     14  C   UNL     1       2.452   6.116  19.913  0.00  0.00    +0.000 A 
ATOM     15  N   UNL     1       3.476   5.959  19.040  0.00  0.00    +0.000 NA
ATOM     16  C   UNL     1       4.024   4.726  18.999  0.00  0.00    +0.000 A 
ATOM     17  N   UNL     1       3.599   3.700  19.770  0.00  0.00    +0.000 NA
BRANCH  16  18
ATOM     18  C   UNL     1       5.164   4.414  18.060  0.00  0.00    +0.000 C 
ATOM     19  C   UNL     1       4.822   4.007  16.640  0.00  0.00    +0.000 C 
ATOM     20  C   UNL     1       5.551   5.293  16.897  0.00  0.00    +0.000 C 
ENDBRANCH  16  18
ENDBRANCH   7  14
ENDBRANCH   1   9
BRANCH   5  21
ATOM     21  C   UNL     1       0.134  12.519  19.834  0.00  0.00    +0.000 C 
ATOM     22  C   UNL     1      -0.111  13.969  20.334  0.00  0.00    +0.000 C 
ATOM     23  O   UNL     1       1.047  14.449  19.601  0.00  0.00    +0.000 OA
ATOM     24  C   UNL     1       1.542  13.093  19.500  0.00  0.00    +0.000 C 
BRANCH  21  25
ATOM     25  C   UNL     1      -0.617  12.156  18.540  0.00  0.00    +0.000 C 
BRANCH  25  26
ATOM     26  C   UNL     1      -2.087  11.995  18.726  0.00  0.00    +0.000 A 
ATOM     27  N   UNL     1      -2.840  12.632  19.601  0.00  0.00    +0.000 NA
ATOM     28  N   UNL     1      -4.142  12.226  19.428  0.00  0.00    +0.000 NA
ATOM     29  C   UNL     1      -4.160  11.355  18.447  0.00  0.00    +0.000 A 
ATOM     30  N   UNL     1      -2.893  11.165  17.991  0.00  0.00    +0.000 N 
BRANCH  30  31
ATOM     31  C   UNL     1      -2.498  10.248  16.952  0.00  0.00    +0.000 C 
ATOM     32  F   UNL     1      -2.292  10.884  15.769  0.00  0.00    +0.000 F 
ATOM     33  F   UNL     1      -1.330   9.631  17.267  0.00  0.00    +0.000 F 
ENDBRANCH  30  31
ENDBRANCH  25  26
ENDBRANCH  21  25
ENDBRANCH   5  21
TORSDOF 7
ENDMDL
MODEL 7
REMARK VINA RESULT:      -8.8      5.772     10.774
REMARK  Name = 
REMARK  8 active torsions:
REMARK  status: ('A' for Active; 'I' for Inactive)
REMARK    1  A    between atoms: C_1  and  C_2
REMARK    2  A    between atoms: C_4  and  C_5
REMARK    3  A    between atoms: N_7  and  C_8
REMARK    4  A    between atoms: C_12  and  C_13
REMARK    5  A    between atoms: C_13  and  C_14
REMARK    6  A    between atoms: C_14  and  C_15
REMARK    7  A    between atoms: N_19  and  C_20
REMARK    8  A    between atoms: C_28  and  C_29
REMARK                            x       y       z     vdW  Elec       q    Type
REMARK                         _______ _______ _______ _____ _____    ______ ____
ROOT
ATOM      1  C   UNL     1       0.391   9.850  18.743  0.00  0.00    +0.000 A 
ATOM      2  C   UNL     1       0.722  11.126  19.203  0.00  0.00    +0.000 A 
ATOM      3  C   UNL     1      -0.092  12.220  18.919  0.00  0.00    +0.000 A 
ATOM      4  C   UNL     1      -1.256  12.045  18.174  0.00  0.00    +0.000 A 
ATOM      5  C   UNL     1      -1.643  10.781  17.687  0.00  0.00    +0.000 A 
ATOM      6  C   UNL     1      -0.768   9.700  17.970  0.00  0.00    +0.000 A 
ENDROOT
BRANCH   1   9
ATOM      7  C   UNL     1       2.167   8.184  18.222  0.00  0.00    +0.000 C 
ATOM      8  O   UNL     1       2.555   8.657  17.154  0.00  0.00    +0.000 OA
ATOM      9  N   UNL     1       1.167   8.704  19.027  0.00  0.00    +0.000 N 
ATOM     10  H   UNL     1       1.057   8.258  19.934  0.00  0.00    +0.000 HD
BRANCH   7  14
ATOM     11  C   UNL     1       5.980   5.010  18.165  0.00  0.00    +0.000 C 
ATOM     12  C   UNL     1       4.652   5.482  18.673  0.00  0.00    +0.000 A 
ATOM     13  C   UNL     1       4.071   6.623  18.192  0.00  0.00    +0.000 A 
ATOM     14  C   UNL     1       2.847   6.953  18.738  0.00  0.00    +0.000 A 
ATOM     15  N   UNL     1       2.219   6.237  19.701  0.00  0.00    +0.000 NA
ATOM     16  C   UNL     1       2.866   5.128  20.119  0.00  0.00    +0.000 A 
ATOM     17  N   UNL     1       4.061   4.736  19.624  0.00  0.00    +0.000 NA
BRANCH  16  18
ATOM     18  C   UNL     1       2.280   4.248  21.197  0.00  0.00    +0.000 C 
ATOM     19  C   UNL     1       1.235   3.229  20.788  0.00  0.00    +0.000 C 
ATOM     20  C   UNL     1       2.564   2.771  21.312  0.00  0.00    +0.000 C 
ENDBRANCH  16  18
ENDBRANCH   7  14
ENDBRANCH   1   9
BRANCH   5  21
ATOM     21  C   UNL     1      -3.015  10.584  16.877  0.00  0.00    +0.000 C 
ATOM     22  C   UNL     1      -3.308  11.526  15.678  0.00  0.00    +0.000 C 
ATOM     23  O   UNL     1      -3.690  10.398  14.846  0.00  0.00    +0.000 OA
ATOM     24  C   UNL     1      -3.013   9.501  15.759  0.00  0.00    +0.000 C 
BRANCH  21  25
ATOM     25  C   UNL     1      -4.206  10.371  17.827  0.00  0.00    +0.000 C 
BRANCH  25  26
ATOM     26  C   UNL     1      -5.077  11.572  17.974  0.00  0.00    +0.000 A 
ATOM     27  N   UNL     1      -5.976  11.998  17.108  0.00  0.00    +0.000 NA
ATOM     28  N   UNL     1      -6.585  13.114  17.632  0.00  0.00    +0.000 NA
ATOM     29  C   UNL     1      -6.051  13.344  18.807  0.00  0.00    +0.000 A 
ATOM     30  N   UNL     1      -5.090  12.415  19.055  0.00  0.00    +0.000 N 
BRANCH  30  31
ATOM     31  C   UNL     1      -4.246  12.363  20.221  0.00  0.00    +0.000 C 
ATOM     32  F   UNL     1      -3.472  13.474  20.334  0.00  0.00    +0.000 F 
ATOM     33  F   UNL     1      -4.988  12.292  21.356  0.00  0.00    +0.000 F 
ENDBRANCH  30  31
ENDBRANCH  25  26
ENDBRANCH  21  25
ENDBRANCH   5  21
TORSDOF 7
ENDMDL
MODEL 8
REMARK VINA RESULT:      -8.8      4.218     10.118
REMARK  Name = 
REMARK  8 active torsions:
REMARK  status: ('A' for Active; 'I' for Inactive)
REMARK    1  A    between atoms: C_1  and  C_2
REMARK    2  A    between atoms: C_4  and  C_5
REMARK    3  A    between atoms: N_7  and  C_8
REMARK    4  A    between atoms: C_12  and  C_13
REMARK    5  A    between atoms: C_13  and  C_14
REMARK    6  A    between atoms: C_14  and  C_15
REMARK    7  A    between atoms: N_19  and  C_20
REMARK    8  A    between atoms: C_28  and  C_29
REMARK                            x       y       z     vdW  Elec       q    Type
REMARK                         _______ _______ _______ _____ _____    ______ ____
ROOT
ATOM      1  C   UNL     1       0.518   9.697  18.039  0.00  0.00    +0.000 A 
ATOM      2  C   UNL     1      -0.838   9.714  17.708  0.00  0.00    +0.000 A 
ATOM      3  C   UNL     1      -1.628  10.823  17.998  0.00  0.00    +0.000 A 
ATOM      4  C   UNL     1      -1.065  11.936  18.617  0.00  0.00    +0.000 A 
ATOM      5  C   UNL     1       0.298  11.977  18.971  0.00  0.00    +0.000 A 
ATOM      6  C   UNL     1       1.060  10.813  18.689  0.00  0.00    +0.000 A 
ENDROOT
BRANCH   1   9
ATOM      7  C   UNL     1       2.022   7.815  18.670  0.00  0.00    +0.000 C 
ATOM      8  O   UNL     1       1.936   7.913  19.894  0.00  0.00    +0.000 OA
ATOM      9  N   UNL     1       1.369   8.609  17.742  0.00  0.00    +0.000 N 
ATOM     10  H   UNL     1       1.456   8.313  16.773  0.00  0.00    +0.000 HD
BRANCH   7  14
ATOM     11  C   UNL     1       6.259   6.276  16.597  0.00  0.00    +0.000 C 
ATOM     12  C   UNL     1       4.877   6.041  17.127  0.00  0.00    +0.000 A 
ATOM     13  C   UNL     1       4.134   7.062  17.653  0.00  0.00    +0.000 A 
ATOM     14  C   UNL     1       2.877   6.720  18.108  0.00  0.00    +0.000 A 
ATOM     15  N   UNL     1       2.363   5.467  18.074  0.00  0.00    +0.000 NA
ATOM     16  C   UNL     1       3.167   4.522  17.543  0.00  0.00    +0.000 A 
ATOM     17  N   UNL     1       4.405   4.783  17.067  0.00  0.00    +0.000 NA
BRANCH  16  18
ATOM     18  C   UNL     1       2.720   3.082  17.456  0.00  0.00    +0.000 C 
ATOM     19  C   UNL     1       3.118   2.148  18.582  0.00  0.00    +0.000 C 
ATOM     20  C   UNL     1       1.672   2.479  18.358  0.00  0.00    +0.000 C 
ENDBRANCH  16  18
ENDBRANCH   7  14
ENDBRANCH   1   9
BRANCH   5  21
ATOM     21  C   UNL     1       0.948  13.287  19.635  0.00  0.00    +0.000 C 
ATOM     22  C   UNL     1       2.161  13.951  18.930  0.00  0.00    +0.000 C 
ATOM     23  O   UNL     1       1.558  15.266  19.063  0.00  0.00    +0.000 OA
ATOM     24  C   UNL     1       0.271  14.647  19.296  0.00  0.00    +0.000 C 
BRANCH  21  25
ATOM     25  C   UNL     1       1.102  13.130  21.158  0.00  0.00    +0.000 C 
BRANCH  25  26
ATOM     26  C   UNL     1      -0.191  12.940  21.875  0.00  0.00    +0.000 A 
ATOM     27  N   UNL     1      -1.074  13.876  22.159  0.00  0.00    +0.000 NA
ATOM     28  N   UNL     1      -2.140  13.286  22.795  0.00  0.00    +0.000 NA
ATOM     29  C   UNL     1      -1.890  12.002  22.882  0.00  0.00    +0.000 A 
ATOM     30  N   UNL     1      -0.672  11.742  22.337  0.00  0.00    +0.000 N 
BRANCH  30  31
ATOM     31  C   UNL     1      -0.025  10.456  22.286  0.00  0.00    +0.000 C 
ATOM     32  F   UNL     1      -0.145   9.785  23.462  0.00  0.00    +0.000 F 
ATOM     33  F   UNL     1      -0.585   9.667  21.332  0.00  0.00    +0.000 F 
ENDBRANCH  30  31
ENDBRANCH  25  26
ENDBRANCH  21  25
ENDBRANCH   5  21
TORSDOF 7
ENDMDL
MODEL 9
REMARK VINA RESULT:      -8.7      4.233     10.021
REMARK  Name = 
REMARK  8 active torsions:
REMARK  status: ('A' for Active; 'I' for Inactive)
REMARK    1  A    between atoms: C_1  and  C_2
REMARK    2  A    between atoms: C_4  and  C_5
REMARK    3  A    between atoms: N_7  and  C_8
REMARK    4  A    between atoms: C_12  and  C_13
REMARK    5  A    between atoms: C_13  and  C_14
REMARK    6  A    between atoms: C_14  and  C_15
REMARK    7  A    between atoms: N_19  and  C_20
REMARK    8  A    between atoms: C_28  and  C_29
REMARK                            x       y       z     vdW  Elec       q    Type
REMARK                         _______ _______ _______ _____ _____    ______ ____
ROOT
ATOM      1  C   UNL     1       0.519   9.926  18.109  0.00  0.00    +0.000 A 
ATOM      2  C   UNL     1      -0.838   9.938  17.782  0.00  0.00    +0.000 A 
ATOM      3  C   UNL     1      -1.631  11.045  18.073  0.00  0.00    +0.000 A 
ATOM      4  C   UNL     1      -1.070  12.160  18.689  0.00  0.00    +0.000 A 
ATOM      5  C   UNL     1       0.294  12.207  19.038  0.00  0.00    +0.000 A 
ATOM      6  C   UNL     1       1.059  11.045  18.756  0.00  0.00    +0.000 A 
ENDROOT
BRANCH   1   9
ATOM      7  C   UNL     1       1.943   7.980  18.735  0.00  0.00    +0.000 C 
ATOM      8  O   UNL     1       1.767   8.009  19.953  0.00  0.00    +0.000 OA
ATOM      9  N   UNL     1       1.373   8.840  17.811  0.00  0.00    +0.000 N 
ATOM     10  H   UNL     1       1.527   8.600  16.835  0.00  0.00    +0.000 HD
BRANCH   7  14
ATOM     11  C   UNL     1       2.733   3.225  17.563  0.00  0.00    +0.000 C 
ATOM     12  C   UNL     1       3.155   4.660  17.647  0.00  0.00    +0.000 A 
ATOM     13  C   UNL     1       2.317   5.619  18.148  0.00  0.00    +0.000 A 
ATOM     14  C   UNL     1       2.820   6.904  18.173  0.00  0.00    +0.000 A 
ATOM     15  N   UNL     1       4.052   7.255  17.733  0.00  0.00    +0.000 NA
ATOM     16  C   UNL     1       4.809   6.246  17.252  0.00  0.00    +0.000 A 
ATOM     17  N   UNL     1       4.389   4.962  17.204  0.00  0.00    +0.000 NA
BRANCH  16  18
ATOM     18  C   UNL     1       6.198   6.503  16.718  0.00  0.00    +0.000 C 
ATOM     19  C   UNL     1       7.341   6.548  17.712  0.00  0.00    +0.000 C 
ATOM     20  C   UNL     1       7.284   5.458  16.682  0.00  0.00    +0.000 C 
ENDBRANCH  16  18
ENDBRANCH   7  14
ENDBRANCH   1   9
BRANCH   5  21
ATOM     21  C   UNL     1       0.941  13.519  19.699  0.00  0.00    +0.000 C 
ATOM     22  C   UNL     1       2.154  14.183  18.992  0.00  0.00    +0.000 C 
ATOM     23  O   UNL     1       1.549  15.497  19.121  0.00  0.00    +0.000 OA
ATOM     24  C   UNL     1       0.262  14.878  19.355  0.00  0.00    +0.000 C 
BRANCH  21  25
ATOM     25  C   UNL     1       1.094  13.368  21.222  0.00  0.00    +0.000 C 
BRANCH  25  26
ATOM     26  C   UNL     1      -0.200  13.183  21.939  0.00  0.00    +0.000 A 
ATOM     27  N   UNL     1      -1.063  14.129  22.255  0.00  0.00    +0.000 NA
ATOM     28  N   UNL     1      -2.138  13.543  22.878  0.00  0.00    +0.000 NA
ATOM     29  C   UNL     1      -1.915  12.251  22.925  0.00  0.00    +0.000 A 
ATOM     30  N   UNL     1      -0.705  11.983  22.366  0.00  0.00    +0.000 N 
BRANCH  30  31
ATOM     31  C   UNL     1      -0.086  10.685  22.274  0.00  0.00    +0.000 C 
ATOM     32  F   UNL     1      -0.203   9.987  23.434  0.00  0.00    +0.000 F 
ATOM     33  F   UNL     1      -0.675   9.932  21.309  0.00  0.00    +0.000 F 
ENDBRANCH  30  31
ENDBRANCH  25  26
ENDBRANCH  21  25
ENDBRANCH   5  21
TORSDOF 7
ENDMDL
