MODEL 1
REMARK VINA RESULT:      -8.5      0.000      0.000
REMARK  Name = 
REMARK  8 active torsions:
REMARK  status: ('A' for Active; 'I' for Inactive)
REMARK    1  A    between atoms: C_1  and  O_2
REMARK    2  A    between atoms: O_2  and  C_3
REMARK    3  A    between atoms: C_5  and  C_6
REMARK    4  A    between atoms: C_11  and  C_12
REMARK    5  A    between atoms: C_12  and  C_13
REMARK    6  A    between atoms: C_12  and  S_14
REMARK    7  A    between atoms: S_14  and  C_15
REMARK    8  A    between atoms: N_19  and  C_20
REMARK                            x       y       z     vdW  Elec       q    Type
REMARK                         _______ _______ _______ _____ _____    ______ ____
ROOT
ATOM      1  C   UNL     1       1.749   8.122  19.590  0.00  0.00    +0.000 C 
ATOM      2  O   UNL     1       1.683   8.341  18.385  0.00  0.00    +0.000 OA
ATOM      3  N   UNL     1       2.375   7.051  20.189  0.00  0.00    +0.000 N 
ATOM      4  C   UNL     1       3.015   6.032  19.489  0.00  0.00    +0.000 A 
ATOM      5  C   UNL     1       3.902   6.304  18.453  0.00  0.00    +0.000 A 
ATOM      6  C   UNL     1       4.511   5.239  17.772  0.00  0.00    +0.000 A 
ATOM      7  C   UNL     1       4.147   3.942  18.143  0.00  0.00    +0.000 A 
ATOM      8  C   UNL     1       3.274   3.770  19.205  0.00  0.00    +0.000 A 
ATOM      9  N   UNL     1       2.741   4.786  19.917  0.00  0.00    +0.000 NA
ATOM     10  H   UNL     1       2.044   6.797  21.113  0.00  0.00    +0.000 HD
ENDROOT
BRANCH   1  13
ATOM     11  C   UNL     1      -0.101  11.018  20.839  0.00  0.00    +0.000 A 
ATOM     12  N   UNL     1       0.646  10.227  20.028  0.00  0.00    +0.000 NA
ATOM     13  C   UNL     1       1.066   9.044  20.548  0.00  0.00    +0.000 A 
ATOM     14  C   UNL     1       0.832   8.642  21.858  0.00  0.00    +0.000 A 
ATOM     15  C   UNL     1       0.094   9.489  22.681  0.00  0.00    +0.000 A 
ATOM     16  C   UNL     1      -0.396  10.690  22.165  0.00  0.00    +0.000 A 
ATOM     17 CL   UNL     1      -1.362  11.695  23.176  0.00  0.00    +0.000 Cl
BRANCH  11  19
ATOM     18  C   UNL     1      -1.905  11.994  19.709  0.00  0.00    +0.000 C 
ATOM     19  O   UNL     1      -0.630  12.177  20.314  0.00  0.00    +0.000 OA
ENDBRANCH  11  19
ENDBRANCH   1  13
BRANCH   6  20
ATOM     20  C   UNL     1       5.544   5.449  16.679  0.00  0.00    +0.000 C 
ATOM     21  C   UNL     1       5.130   6.589  15.741  0.00  0.00    +0.000 C 
BRANCH  20  22
ATOM     22  S   UNL     1       5.837   3.962  15.663  0.00  0.00    +0.000 S 
BRANCH  22  23
ATOM     23  C   UNL     1       6.831   4.613  14.413  0.00  0.00    +0.000 A 
ATOM     24  N   UNL     1       7.828   5.459  14.552  0.00  0.00    +0.000 NA
ATOM     25  N   UNL     1       8.331   5.714  13.295  0.00  0.00    +0.000 NA
ATOM     26  C   UNL     1       7.629   5.010  12.434  0.00  0.00    +0.000 A 
ATOM     27  N   UNL     1       6.682   4.293  13.099  0.00  0.00    +0.000 N 
ATOM     28  C   UNL     1       5.779   3.339  12.520  0.00  0.00    +0.000 C 
ENDBRANCH  22  23
ENDBRANCH  20  22
ENDBRANCH   6  20
TORSDOF 5
ENDMDL
MODEL 2
REMARK VINA RESULT:      -8.4      1.991      2.884
REMARK  Name = 
REMARK  8 active torsions:
REMARK  status: ('A' for Active; 'I' for Inactive)
REMARK    1  A    between atoms: C_1  and  O_2
REMARK    2  A    between atoms: O_2  and  C_3
REMARK    3  A    between atoms: C_5  and  C_6
REMARK    4  A    between atoms: C_11  and  C_12
REMARK    5  A    between atoms: C_12  and  C_13
REMARK    6  A    between atoms: C_12  and  S_14
REMARK    7  A    between atoms: S_14  and  C_15
REMARK    8  A    between atoms: N_19  and  C_20
REMARK                            x       y       z     vdW  Elec       q    Type
REMARK                         _______ _______ _______ _____ _____    ______ ____
ROOT
ATOM      1  C   UNL     1       1.916   7.964  18.987  0.00  0.00    +0.000 C 
ATOM      2  O   UNL     1       2.154   8.439  17.881  0.00  0.00    +0.000 OA
ATOM      3  N   UNL     1       2.133   6.661  19.378  0.00  0.00    +0.000 N 
ATOM      4  C   UNL     1       2.646   5.673  18.542  0.00  0.00    +0.000 A 
ATOM      5  C   UNL     1       3.767   5.896  17.750  0.00  0.00    +0.000 A 
ATOM      6  C   UNL     1       4.235   4.870  16.917  0.00  0.00    +0.000 A 
ATOM      7  C   UNL     1       3.507   3.677  16.888  0.00  0.00    +0.000 A 
ATOM      8  C   UNL     1       2.417   3.538  17.732  0.00  0.00    +0.000 A 
ATOM      9  N   UNL     1       2.004   4.492  18.594  0.00  0.00    +0.000 NA
ATOM     10  H   UNL     1       1.568   6.323  20.148  0.00  0.00    +0.000 HD
ENDROOT
BRANCH   1  13
ATOM     11  C   UNL     1      -0.118  10.595  20.506  0.00  0.00    +0.000 A 
ATOM     12  N   UNL     1       0.580   9.888  19.583  0.00  0.00    +0.000 NA
ATOM     13  C   UNL     1       1.286   8.820  20.038  0.00  0.00    +0.000 A 
ATOM     14  C   UNL     1       1.381   8.464  21.378  0.00  0.00    +0.000 A 
ATOM     15  C   UNL     1       0.685   9.229  22.311  0.00  0.00    +0.000 A 
ATOM     16  C   UNL     1      -0.091  10.303  21.873  0.00  0.00    +0.000 A 
ATOM     17 CL   UNL     1      -0.998  11.199  23.030  0.00  0.00    +0.000 Cl
BRANCH  11  19
ATOM     18  C   UNL     1      -0.751  11.932  18.690  0.00  0.00    +0.000 C 
ATOM     19  O   UNL     1      -0.927  11.622  20.068  0.00  0.00    +0.000 OA
ENDBRANCH  11  19
ENDBRANCH   1  13
BRANCH   6  20
ATOM     20  C   UNL     1       5.492   5.006  16.075  0.00  0.00    +0.000 C 
ATOM     21  C   UNL     1       5.449   4.068  14.864  0.00  0.00    +0.000 C 
BRANCH  20  22
ATOM     22  S   UNL     1       7.027   4.662  17.001  0.00  0.00    +0.000 S 
BRANCH  22  23
ATOM     23  C   UNL     1       7.497   6.256  17.455  0.00  0.00    +0.000 A 
ATOM     24  N   UNL     1       7.438   7.343  16.715  0.00  0.00    +0.000 NA
ATOM     25  N   UNL     1       7.923   8.385  17.475  0.00  0.00    +0.000 NA
ATOM     26  C   UNL     1       8.253   7.902  18.652  0.00  0.00    +0.000 A 
ATOM     27  N   UNL     1       7.990   6.567  18.685  0.00  0.00    +0.000 N 
ATOM     28  C   UNL     1       8.132   5.702  19.823  0.00  0.00    +0.000 C 
ENDBRANCH  22  23
ENDBRANCH  20  22
ENDBRANCH   6  20
TORSDOF 5
ENDMDL
MODEL 3
REMARK VINA RESULT:      -7.9      4.925      8.974
REMARK  Name = 
REMARK  8 active torsions:
REMARK  status: ('A' for Active; 'I' for Inactive)
REMARK    1  A    between atoms: C_1  and  O_2
REMARK    2  A    between atoms: O_2  and  C_3
REMARK    3  A    between atoms: C_5  and  C_6
REMARK    4  A    between atoms: C_11  and  C_12
REMARK    5  A    between atoms: C_12  and  C_13
REMARK    6  A    between atoms: C_12  and  S_14
REMARK    7  A    between atoms: S_14  and  C_15
REMARK    8  A    between atoms: N_19  and  C_20
REMARK                            x       y       z     vdW  Elec       q    Type
REMARK                         _______ _______ _______ _____ _____    ______ ____
ROOT
ATOM      1  C   UNL     1       2.442   7.219  18.994  0.00  0.00    +0.000 C 
ATOM      2  O   UNL     1       2.855   8.032  18.175  0.00  0.00    +0.000 OA
ATOM      3  N   UNL     1       1.609   7.487  20.059  0.00  0.00    +0.000 N 
ATOM      4  C   UNL     1       1.128   8.755  20.371  0.00  0.00    +0.000 A 
ATOM      5  C   UNL     1       0.584   9.589  19.399  0.00  0.00    +0.000 A 
ATOM      6  C   UNL     1       0.124  10.862  19.765  0.00  0.00    +0.000 A 
ATOM      7  C   UNL     1       0.289  11.251  21.098  0.00  0.00    +0.000 A 
ATOM      8  C   UNL     1       0.819  10.342  21.999  0.00  0.00    +0.000 A 
ATOM      9  N   UNL     1       1.194   9.086  21.673  0.00  0.00    +0.000 NA
ATOM     10  H   UNL     1       1.652   6.839  20.837  0.00  0.00    +0.000 HD
ENDROOT
BRANCH   1  13
ATOM     11  C   UNL     1       3.034   3.745  19.970  0.00  0.00    +0.000 A 
ATOM     12  N   UNL     1       2.772   5.074  20.057  0.00  0.00    +0.000 NA
ATOM     13  C   UNL     1       2.887   5.794  18.911  0.00  0.00    +0.000 A 
ATOM     14  C   UNL     1       3.312   5.265  17.698  0.00  0.00    +0.000 A 
ATOM     15  C   UNL     1       3.609   3.906  17.644  0.00  0.00    +0.000 A 
ATOM     16  C   UNL     1       3.455   3.125  18.791  0.00  0.00    +0.000 A 
ATOM     17 CL   UNL     1       3.763   1.434  18.692  0.00  0.00    +0.000 Cl
BRANCH  11  19
ATOM     18  C   UNL     1       1.455   2.729  21.370  0.00  0.00    +0.000 C 
ATOM     19  O   UNL     1       2.829   2.965  21.089  0.00  0.00    +0.000 OA
ENDBRANCH  11  19
ENDBRANCH   1  13
BRANCH   6  20
ATOM     20  C   UNL     1      -0.548  11.805  18.782  0.00  0.00    +0.000 C 
ATOM     21  C   UNL     1      -0.095  13.252  19.010  0.00  0.00    +0.000 C 
BRANCH  20  22
ATOM     22  S   UNL     1      -2.370  11.765  18.868  0.00  0.00    +0.000 S 
BRANCH  22  23
ATOM     23  C   UNL     1      -2.752  11.085  17.331  0.00  0.00    +0.000 A 
ATOM     24  N   UNL     1      -1.984  10.316  16.589  0.00  0.00    +0.000 NA
ATOM     25  N   UNL     1      -2.686  10.015  15.443  0.00  0.00    +0.000 NA
ATOM     26  C   UNL     1      -3.860  10.602  15.527  0.00  0.00    +0.000 A 
ATOM     27  N   UNL     1      -3.946  11.277  16.706  0.00  0.00    +0.000 N 
ATOM     28  C   UNL     1      -5.101  11.971  17.204  0.00  0.00    +0.000 C 
ENDBRANCH  22  23
ENDBRANCH  20  22
ENDBRANCH   6  20
TORSDOF 5
ENDMDL
MODEL 4
REMARK VINA RESULT:      -7.9      4.663     10.374
REMARK  Name = 
REMARK  8 active torsions:
REMARK  status: ('A' for Active; 'I' for Inactive)
REMARK    1  A    between atoms: C_1  and  O_2
REMARK    2  A    between atoms: O_2  and  C_3
REMARK    3  A    between atoms: C_5  and  C_6
REMARK    4  A    between atoms: C_11  and  C_12
REMARK    5  A    between atoms: C_12  and  C_13
REMARK    6  A    between atoms: C_12  and  S_14
REMARK    7  A    between atoms: S_14  and  C_15
REMARK    8  A    between atoms: N_19  and  C_20
REMARK                            x       y       z     vdW  Elec       q    Type
REMARK                         _______ _______ _______ _____ _____    ______ ____
ROOT
ATOM      1  C   UNL     1       2.363   7.112  19.018  0.00  0.00    +0.000 C 
ATOM      2  O   UNL     1       1.834   6.597  19.997  0.00  0.00    +0.000 OA
ATOM      3  N   UNL     1       2.087   8.362  18.507  0.00  0.00    +0.000 N 
ATOM      4  C   UNL     1       1.129   9.224  19.033  0.00  0.00    +0.000 A 
ATOM      5  C   UNL     1       1.047   9.478  20.398  0.00  0.00    +0.000 A 
ATOM      6  C   UNL     1       0.055  10.346  20.877  0.00  0.00    +0.000 A 
ATOM      7  C   UNL     1      -0.845  10.875  19.948  0.00  0.00    +0.000 A 
ATOM      8  C   UNL     1      -0.668  10.585  18.605  0.00  0.00    +0.000 A 
ATOM      9  N   UNL     1       0.330   9.812  18.124  0.00  0.00    +0.000 NA
ATOM     10  H   UNL     1       2.302   8.503  17.526  0.00  0.00    +0.000 HD
ENDROOT
BRANCH   1  13
ATOM     11  C   UNL     1       4.144   4.266  17.571  0.00  0.00    +0.000 A 
ATOM     12  N   UNL     1       3.330   4.992  18.378  0.00  0.00    +0.000 NA
ATOM     13  C   UNL     1       3.377   6.342  18.235  0.00  0.00    +0.000 A 
ATOM     14  C   UNL     1       4.242   7.004  17.371  0.00  0.00    +0.000 A 
ATOM     15  C   UNL     1       5.093   6.237  16.580  0.00  0.00    +0.000 A 
ATOM     16  C   UNL     1       5.036   4.844  16.665  0.00  0.00    +0.000 A 
ATOM     17 CL   UNL     1       6.048   3.908  15.633  0.00  0.00    +0.000 Cl
BRANCH  11  19
ATOM     18  C   UNL     1       2.711   2.418  17.717  0.00  0.00    +0.000 C 
ATOM     19  O   UNL     1       4.049   2.890  17.617  0.00  0.00    +0.000 OA
ENDBRANCH  11  19
ENDBRANCH   1  13
BRANCH   6  20
ATOM     20  C   UNL     1      -0.058  10.733  22.341  0.00  0.00    +0.000 C 
ATOM     21  C   UNL     1      -0.018   9.495  23.243  0.00  0.00    +0.000 C 
BRANCH  20  22
ATOM     22  S   UNL     1      -1.579  11.664  22.730  0.00  0.00    +0.000 S 
BRANCH  22  23
ATOM     23  C   UNL     1      -0.946  13.257  22.918  0.00  0.00    +0.000 A 
ATOM     24  N   UNL     1       0.182  13.725  22.428  0.00  0.00    +0.000 NA
ATOM     25  N   UNL     1       0.292  15.038  22.832  0.00  0.00    +0.000 NA
ATOM     26  C   UNL     1      -0.773  15.327  23.546  0.00  0.00    +0.000 A 
ATOM     27  N   UNL     1      -1.584  14.236  23.614  0.00  0.00    +0.000 N 
ATOM     28  C   UNL     1      -2.881  14.180  24.229  0.00  0.00    +0.000 C 
ENDBRANCH  22  23
ENDBRANCH  20  22
ENDBRANCH   6  20
TORSDOF 5
ENDMDL
MODEL 5
REMARK VINA RESULT:      -7.8      4.768      9.010
REMARK  Name = 
REMARK  8 active torsions:
REMARK  status: ('A' for Active; 'I' for Inactive)
REMARK    1  A    between atoms: C_1  and  O_2
REMARK    2  A    between atoms: O_2  and  C_3
REMARK    3  A    between atoms: C_5  and  C_6
REMARK    4  A    between atoms: C_11  and  C_12
REMARK    5  A    between atoms: C_12  and  C_13
REMARK    6  A    between atoms: C_12  and  S_14
REMARK    7  A    between atoms: S_14  and  C_15
REMARK    8  A    between atoms: N_19  and  C_20
REMARK                            x       y       z     vdW  Elec       q    Type
REMARK                         _______ _______ _______ _____ _____    ______ ____
ROOT
ATOM      1  C   UNL     1       2.271   7.361  19.522  0.00  0.00    +0.000 C 
ATOM      2  O   UNL     1       2.703   8.123  18.664  0.00  0.00    +0.000 OA
ATOM      3  N   UNL     1       1.376   7.681  20.520  0.00  0.00    +0.000 N 
ATOM      4  C   UNL     1       0.843   8.953  20.710  0.00  0.00    +0.000 A 
ATOM      5  C   UNL     1       0.326   9.692  19.650  0.00  0.00    +0.000 A 
ATOM      6  C   UNL     1      -0.189  10.973  19.894  0.00  0.00    +0.000 A 
ATOM      7  C   UNL     1      -0.105  11.467  21.199  0.00  0.00    +0.000 A 
ATOM      8  C   UNL     1       0.404  10.647  22.193  0.00  0.00    +0.000 A 
ATOM      9  N   UNL     1       0.831   9.383  21.984  0.00  0.00    +0.000 NA
ATOM     10  H   UNL     1       1.399   7.096  21.348  0.00  0.00    +0.000 HD
ENDROOT
BRANCH   1  13
ATOM     11  C   UNL     1       4.545   4.507  19.293  0.00  0.00    +0.000 A 
ATOM     12  N   UNL     1       4.029   5.751  19.126  0.00  0.00    +0.000 NA
ATOM     13  C   UNL     1       2.761   5.949  19.571  0.00  0.00    +0.000 A 
ATOM     14  C   UNL     1       1.961   4.951  20.114  0.00  0.00    +0.000 A 
ATOM     15  C   UNL     1       2.502   3.674  20.241  0.00  0.00    +0.000 A 
ATOM     16  C   UNL     1       3.820   3.446  19.840  0.00  0.00    +0.000 A 
ATOM     17 CL   UNL     1       4.496   1.878  20.063  0.00  0.00    +0.000 Cl
BRANCH  11  19
ATOM     18  C   UNL     1       6.698   5.424  19.181  0.00  0.00    +0.000 C 
ATOM     19  O   UNL     1       5.863   4.296  18.947  0.00  0.00    +0.000 OA
ENDBRANCH  11  19
ENDBRANCH   1  13
BRANCH   6  20
ATOM     20  C   UNL     1      -0.836  11.817  18.809  0.00  0.00    +0.000 C 
ATOM     21  C   UNL     1      -0.447  13.292  18.952  0.00  0.00    +0.000 C 
BRANCH  20  22
ATOM     22  S   UNL     1      -2.658  11.713  18.799  0.00  0.00    +0.000 S 
BRANCH  22  23
ATOM     23  C   UNL     1      -2.937  11.052  17.232  0.00  0.00    +0.000 A 
ATOM     24  N   UNL     1      -2.126  10.282  16.538  0.00  0.00    +0.000 NA
ATOM     25  N   UNL     1      -2.748   9.999  15.342  0.00  0.00    +0.000 NA
ATOM     26  C   UNL     1      -3.919  10.598  15.349  0.00  0.00    +0.000 A 
ATOM     27  N   UNL     1      -4.082  11.263  16.526  0.00  0.00    +0.000 N 
ATOM     28  C   UNL     1      -5.262  11.964  16.948  0.00  0.00    +0.000 C 
ENDBRANCH  22  23
ENDBRANCH  20  22
ENDBRANCH   6  20
TORSDOF 5
ENDMDL
MODEL 6
REMARK VINA RESULT:      -7.8      2.281      3.401
REMARK  Name = 
REMARK  8 active torsions:
REMARK  status: ('A' for Active; 'I' for Inactive)
REMARK    1  A    between atoms: C_1  and  O_2
REMARK    2  A    between atoms: O_2  and  C_3
REMARK    3  A    between atoms: C_5  and  C_6
REMARK    4  A    between atoms: C_11  and  C_12
REMARK    5  A    between atoms: C_12  and  C_13
REMARK    6  A    between atoms: C_12  and  S_14
REMARK    7  A    between atoms: S_14  and  C_15
REMARK    8  A    between atoms: N_19  and  C_20
REMARK                            x       y       z     vdW  Elec       q    Type
REMARK                         _______ _______ _______ _____ _____    ______ ____
ROOT
ATOM      1  C   UNL     1       2.040   8.737  18.339  0.00  0.00    +0.000 C 
ATOM      2  O   UNL     1       2.245   8.901  17.141  0.00  0.00    +0.000 OA
ATOM      3  N   UNL     1       2.248   7.574  19.049  0.00  0.00    +0.000 N 
ATOM      4  C   UNL     1       2.710   6.389  18.484  0.00  0.00    +0.000 A 
ATOM      5  C   UNL     1       3.805   6.368  17.625  0.00  0.00    +0.000 A 
ATOM      6  C   UNL     1       4.223   5.148  17.074  0.00  0.00    +0.000 A 
ATOM      7  C   UNL     1       3.472   4.009  17.379  0.00  0.00    +0.000 A 
ATOM      8  C   UNL     1       2.412   4.124  18.264  0.00  0.00    +0.000 A 
ATOM      9  N   UNL     1       2.049   5.280  18.861  0.00  0.00    +0.000 NA
ATOM     10  H   UNL     1       1.706   7.463  19.898  0.00  0.00    +0.000 HD
ENDROOT
BRANCH   1  13
ATOM     11  C   UNL     1       0.698  10.550  21.215  0.00  0.00    +0.000 A 
ATOM     12  N   UNL     1       1.088   9.528  20.414  0.00  0.00    +0.000 NA
ATOM     13  C   UNL     1       1.466   9.853  19.151  0.00  0.00    +0.000 A 
ATOM     14  C   UNL     1       1.412  11.140  18.628  0.00  0.00    +0.000 A 
ATOM     15  C   UNL     1       0.974  12.167  19.460  0.00  0.00    +0.000 A 
ATOM     16  C   UNL     1       0.624  11.876  20.781  0.00  0.00    +0.000 A 
ATOM     17 CL   UNL     1       0.147  13.166  21.816  0.00  0.00    +0.000 Cl
BRANCH  11  19
ATOM     18  C   UNL     1       1.137   9.169  23.055  0.00  0.00    +0.000 C 
ATOM     19  O   UNL     1       0.405  10.272  22.534  0.00  0.00    +0.000 OA
ENDBRANCH  11  19
ENDBRANCH   1  13
BRANCH   6  20
ATOM     20  C   UNL     1       5.449   5.027  16.186  0.00  0.00    +0.000 C 
ATOM     21  C   UNL     1       5.261   3.929  15.133  0.00  0.00    +0.000 C 
BRANCH  20  22
ATOM     22  S   UNL     1       6.981   4.665  17.110  0.00  0.00    +0.000 S 
BRANCH  22  23
ATOM     23  C   UNL     1       7.491   6.257  17.530  0.00  0.00    +0.000 A 
ATOM     24  N   UNL     1       7.414   7.338  16.783  0.00  0.00    +0.000 NA
ATOM     25  N   UNL     1       7.945   8.380  17.512  0.00  0.00    +0.000 NA
ATOM     26  C   UNL     1       8.318   7.903  18.678  0.00  0.00    +0.000 A 
ATOM     27  N   UNL     1       8.040   6.572  18.734  0.00  0.00    +0.000 N 
ATOM     28  C   UNL     1       8.219   5.715  19.873  0.00  0.00    +0.000 C 
ENDBRANCH  22  23
ENDBRANCH  20  22
ENDBRANCH   6  20
TORSDOF 5
ENDMDL
MODEL 7
REMARK VINA RESULT:      -7.7      2.090      2.632
REMARK  Name = 
REMARK  8 active torsions:
REMARK  status: ('A' for Active; 'I' for Inactive)
REMARK    1  A    between atoms: C_1  and  O_2
REMARK    2  A    between atoms: O_2  and  C_3
REMARK    3  A    between atoms: C_5  and  C_6
REMARK    4  A    between atoms: C_11  and  C_12
REMARK    5  A    between atoms: C_12  and  C_13
REMARK    6  A    between atoms: C_12  and  S_14
REMARK    7  A    between atoms: S_14  and  C_15
REMARK    8  A    between atoms: N_19  and  C_20
REMARK                            x       y       z     vdW  Elec       q    Type
REMARK                         _______ _______ _______ _____ _____    ______ ____
ROOT
ATOM      1  C   UNL     1       1.501   7.876  20.430  0.00  0.00    +0.000 C 
ATOM      2  O   UNL     1       2.021   8.084  19.339  0.00  0.00    +0.000 OA
ATOM      3  N   UNL     1       1.376   6.652  21.052  0.00  0.00    +0.000 N 
ATOM      4  C   UNL     1       1.814   5.451  20.502  0.00  0.00    +0.000 A 
ATOM      5  C   UNL     1       3.078   5.326  19.935  0.00  0.00    +0.000 A 
ATOM      6  C   UNL     1       3.466   4.096  19.384  0.00  0.00    +0.000 A 
ATOM      7  C   UNL     1       2.526   3.061  19.387  0.00  0.00    +0.000 A 
ATOM      8  C   UNL     1       1.300   3.272  19.998  0.00  0.00    +0.000 A 
ATOM      9  N   UNL     1       0.946   4.428  20.599  0.00  0.00    +0.000 NA
ATOM     10  H   UNL     1       0.628   6.568  21.731  0.00  0.00    +0.000 HD
ENDROOT
BRANCH   1  13
ATOM     11  C   UNL     1       0.310  11.248  21.189  0.00  0.00    +0.000 A 
ATOM     12  N   UNL     1       0.982  10.230  20.596  0.00  0.00    +0.000 NA
ATOM     13  C   UNL     1       0.885   9.010  21.185  0.00  0.00    +0.000 A 
ATOM     14  C   UNL     1       0.203   8.770  22.372  0.00  0.00    +0.000 A 
ATOM     15  C   UNL     1      -0.449   9.839  22.980  0.00  0.00    +0.000 A 
ATOM     16  C   UNL     1      -0.412  11.097  22.376  0.00  0.00    +0.000 A 
ATOM     17 CL   UNL     1      -1.277  12.395  23.106  0.00  0.00    +0.000 Cl
BRANCH  11  19
ATOM     18  C   UNL     1       1.527  13.187  20.695  0.00  0.00    +0.000 C 
ATOM     19  O   UNL     1       0.301  12.477  20.564  0.00  0.00    +0.000 OA
ENDBRANCH  11  19
ENDBRANCH   1  13
BRANCH   6  20
ATOM     20  C   UNL     1       4.851   3.854  18.811  0.00  0.00    +0.000 C 
ATOM     21  C   UNL     1       5.883   4.791  19.449  0.00  0.00    +0.000 C 
BRANCH  20  22
ATOM     22  S   UNL     1       4.936   4.071  17.001  0.00  0.00    +0.000 S 
BRANCH  22  23
ATOM     23  C   UNL     1       6.009   5.415  16.885  0.00  0.00    +0.000 A 
ATOM     24  N   UNL     1       7.307   5.379  16.672  0.00  0.00    +0.000 NA
ATOM     25  N   UNL     1       7.759   6.680  16.664  0.00  0.00    +0.000 NA
ATOM     26  C   UNL     1       6.723   7.465  16.864  0.00  0.00    +0.000 A 
ATOM     27  N   UNL     1       5.599   6.708  16.997  0.00  0.00    +0.000 N 
ATOM     28  C   UNL     1       4.258   7.199  17.139  0.00  0.00    +0.000 C 
ENDBRANCH  22  23
ENDBRANCH  20  22
ENDBRANCH   6  20
TORSDOF 5
ENDMDL
MODEL 8
REMARK VINA RESULT:      -7.7      4.558     10.117
REMARK  Name = 
REMARK  8 active torsions:
REMARK  status: ('A' for Active; 'I' for Inactive)
REMARK    1  A    between atoms: C_1  and  O_2
REMARK    2  A    between atoms: O_2  and  C_3
REMARK    3  A    between atoms: C_5  and  C_6
REMARK    4  A    between atoms: C_11  and  C_12
REMARK    5  A    between atoms: C_12  and  C_13
REMARK    6  A    between atoms: C_12  and  S_14
REMARK    7  A    between atoms: S_14  and  C_15
REMARK    8  A    between atoms: N_19  and  C_20
REMARK                            x       y       z     vdW  Elec       q    Type
REMARK                         _______ _______ _______ _____ _____    ______ ____
ROOT
ATOM      1  C   UNL     1       2.516   7.180  18.691  0.00  0.00    +0.000 C 
ATOM      2  O   UNL     1       2.093   6.674  19.724  0.00  0.00    +0.000 OA
ATOM      3  N   UNL     1       2.114   8.382  18.149  0.00  0.00    +0.000 N 
ATOM      4  C   UNL     1       1.131   9.196  18.703  0.00  0.00    +0.000 A 
ATOM      5  C   UNL     1       1.120   9.506  20.060  0.00  0.00    +0.000 A 
ATOM      6  C   UNL     1       0.100  10.323  20.569  0.00  0.00    +0.000 A 
ATOM      7  C   UNL     1      -0.896  10.742  19.684  0.00  0.00    +0.000 A 
ATOM      8  C   UNL     1      -0.787  10.404  18.344  0.00  0.00    +0.000 A 
ATOM      9  N   UNL     1       0.232   9.683  17.829  0.00  0.00    +0.000 NA
ATOM     10  H   UNL     1       2.253   8.493  17.151  0.00  0.00    +0.000 HD
ENDROOT
BRANCH   1  13
ATOM     11  C   UNL     1       5.602   6.512  16.849  0.00  0.00    +0.000 A 
ATOM     12  N   UNL     1       4.601   7.184  17.470  0.00  0.00    +0.000 NA
ATOM     13  C   UNL     1       3.531   6.450  17.872  0.00  0.00    +0.000 A 
ATOM     14  C   UNL     1       3.384   5.090  17.626  0.00  0.00    +0.000 A 
ATOM     15  C   UNL     1       4.409   4.430  16.955  0.00  0.00    +0.000 A 
ATOM     16  C   UNL     1       5.547   5.143  16.571  0.00  0.00    +0.000 A 
ATOM     17 CL   UNL     1       6.835   4.301  15.800  0.00  0.00    +0.000 Cl
BRANCH  11  19
ATOM     18  C   UNL     1       7.640   7.377  17.613  0.00  0.00    +0.000 C 
ATOM     19  O   UNL     1       6.748   7.205  16.518  0.00  0.00    +0.000 OA
ENDBRANCH  11  19
ENDBRANCH   1  13
BRANCH   6  20
ATOM     20  C   UNL     1       0.054  10.767  22.021  0.00  0.00    +0.000 C 
ATOM     21  C   UNL     1      -0.075   9.564  22.962  0.00  0.00    +0.000 C 
BRANCH  20  22
ATOM     22  S   UNL     1      -1.316  11.917  22.385  0.00  0.00    +0.000 S 
BRANCH  22  23
ATOM     23  C   UNL     1      -0.472  13.419  22.443  0.00  0.00    +0.000 A 
ATOM     24  N   UNL     1       0.783  13.638  22.113  0.00  0.00    +0.000 NA
ATOM     25  N   UNL     1       1.037  14.976  22.324  0.00  0.00    +0.000 NA
ATOM     26  C   UNL     1      -0.071  15.528  22.766  0.00  0.00    +0.000 A 
ATOM     27  N   UNL     1      -1.049  14.584  22.845  0.00  0.00    +0.000 N 
ATOM     28  C   UNL     1      -2.421  14.812  23.201  0.00  0.00    +0.000 C 
ENDBRANCH  22  23
ENDBRANCH  20  22
ENDBRANCH   6  20
TORSDOF 5
ENDMDL
MODEL 9
REMARK VINA RESULT:      -7.6      2.041      2.912
REMARK  Name = 
REMARK  8 active torsions:
REMARK  status: ('A' for Active; 'I' for Inactive)
REMARK    1  A    between atoms: C_1  and  O_2
REMARK    2  A    between atoms: O_2  and  C_3
REMARK    3  A    between atoms: C_5  and  C_6
REMARK    4  A    between atoms: C_11  and  C_12
REMARK    5  A    between atoms: C_12  and  C_13
REMARK    6  A    between atoms: C_12  and  S_14
REMARK    7  A    between atoms: S_14  and  C_15
REMARK    8  A    between atoms: N_19  and  C_20
REMARK                            x       y       z     vdW  Elec       q    Type
REMARK                         _______ _______ _______ _____ _____    ______ ____
ROOT
ATOM      1  C   UNL     1       1.621   8.519  19.311  0.00  0.00    +0.000 C 
ATOM      2  O   UNL     1       1.581   8.710  18.101  0.00  0.00    +0.000 OA
ATOM      3  N   UNL     1       2.103   7.392  19.942  0.00  0.00    +0.000 N 
ATOM      4  C   UNL     1       2.602   6.278  19.272  0.00  0.00    +0.000 A 
ATOM      5  C   UNL     1       3.515   6.403  18.229  0.00  0.00    +0.000 A 
ATOM      6  C   UNL     1       3.978   5.249  17.581  0.00  0.00    +0.000 A 
ATOM      7  C   UNL     1       3.448   4.021  17.988  0.00  0.00    +0.000 A 
ATOM      8  C   UNL     1       2.563   3.995  19.053  0.00  0.00    +0.000 A 
ATOM      9  N   UNL     1       2.170   5.092  19.735  0.00  0.00    +0.000 NA
ATOM     10  H   UNL     1       1.744   7.210  20.872  0.00  0.00    +0.000 HD
ENDROOT
BRANCH   1  13
ATOM     11  C   UNL     1       0.450  11.756  20.543  0.00  0.00    +0.000 A 
ATOM     12  N   UNL     1       1.076  10.826  19.779  0.00  0.00    +0.000 NA
ATOM     13  C   UNL     1       1.067   9.549  20.242  0.00  0.00    +0.000 A 
ATOM     14  C   UNL     1       0.520   9.167  21.461  0.00  0.00    +0.000 A 
ATOM     15  C   UNL     1      -0.085  10.147  22.244  0.00  0.00    +0.000 A 
ATOM     16  C   UNL     1      -0.137  11.461  21.776  0.00  0.00    +0.000 A 
ATOM     17 CL   UNL     1      -0.946  12.648  22.725  0.00  0.00    +0.000 Cl
BRANCH  11  19
ATOM     18  C   UNL     1       1.261  13.319  18.998  0.00  0.00    +0.000 C 
ATOM     19  O   UNL     1       0.351  13.042  20.056  0.00  0.00    +0.000 OA
ENDBRANCH  11  19
ENDBRANCH   1  13
BRANCH   6  20
ATOM     20  C   UNL     1       5.027   5.290  16.483  0.00  0.00    +0.000 C 
ATOM     21  C   UNL     1       4.650   4.359  15.325  0.00  0.00    +0.000 C 
BRANCH  20  22
ATOM     22  S   UNL     1       6.697   4.829  17.056  0.00  0.00    +0.000 S 
BRANCH  22  23
ATOM     23  C   UNL     1       7.325   6.372  17.500  0.00  0.00    +0.000 A 
ATOM     24  N   UNL     1       7.267   7.484  16.800  0.00  0.00    +0.000 NA
ATOM     25  N   UNL     1       7.903   8.464  17.530  0.00  0.00    +0.000 NA
ATOM     26  C   UNL     1       8.319   7.920  18.652  0.00  0.00    +0.000 A 
ATOM     27  N   UNL     1       7.966   6.606  18.677  0.00  0.00    +0.000 N 
ATOM     28  C   UNL     1       8.165   5.695  19.770  0.00  0.00    +0.000 C 
ENDBRANCH  22  23
ENDBRANCH  20  22
ENDBRANCH   6  20
TORSDOF 5
ENDMDL
