MODEL 1
REMARK VINA RESULT:      -8.2      0.000      0.000
REMARK  Name = 
REMARK  12 active torsions:
REMARK  status: ('A' for Active; 'I' for Inactive)
REMARK    1  A    between atoms: C_1  and  N_2
REMARK    2  A    between atoms: N_2  and  C_3
REMARK    3  A    between atoms: C_3  and  C_4
REMARK    4  A    between atoms: C_4  and  N_5
REMARK    5  A    between atoms: C_6  and  C_8
REMARK    6  A    between atoms: C_12  and  C_13
REMARK    7  A    between atoms: N_15  and  C_16
REMARK    8  A    between atoms: C_20  and  C_21
REMARK    9  A    between atoms: C_21  and  C_22
REMARK   10  A    between atoms: C_21  and  C_23
REMARK   11  A    between atoms: C_23  and  C_24
REMARK   12  A    between atoms: N_28  and  C_29
REMARK                            x       y       z     vdW  Elec       q    Type
REMARK                         _______ _______ _______ _____ _____    ______ ____
ROOT
ATOM      1  C   UNL     1       1.737   7.433  20.239  0.00  0.00    +0.000 C 
ATOM      2  O   UNL     1       2.118   8.194  19.355  0.00  0.00    +0.000 OA
ATOM      3  N   UNL     1       0.857   7.746  21.266  0.00  0.00    +0.000 N 
ATOM      4  H   UNL     1       0.724   7.024  21.968  0.00  0.00    +0.000 HD
ENDROOT
BRANCH   1   9
ATOM      5  C   UNL     1       3.863   4.466  19.368  0.00  0.00    +0.000 A 
ATOM      6  C   UNL     1       3.224   3.466  20.094  0.00  0.00    +0.000 A 
ATOM      7  C   UNL     1       2.131   3.828  20.873  0.00  0.00    +0.000 A 
ATOM      8  N   UNL     1       1.633   5.086  20.961  0.00  0.00    +0.000 NA
ATOM      9  C   UNL     1       2.285   6.040  20.238  0.00  0.00    +0.000 A 
ATOM     10  C   UNL     1       3.401   5.777  19.456  0.00  0.00    +0.000 A 
BRANCH   5  12
ATOM     11  N   UNL     1       4.819   4.073  17.154  0.00  0.00    +0.000 N 
ATOM     12  C   UNL     1       5.049   4.211  18.507  0.00  0.00    +0.000 C 
ATOM     13  O   UNL     1       6.165   4.170  19.012  0.00  0.00    +0.000 OA
ATOM     14  H   UNL     1       3.953   4.434  16.782  0.00  0.00    +0.000 HD
BRANCH  11  15
ATOM     15  C   UNL     1       5.947   4.022  16.230  0.00  0.00    +0.000 C 
BRANCH  15  16
ATOM     16  C   UNL     1       6.547   5.408  15.957  0.00  0.00    +0.000 C 
BRANCH  16  18
ATOM     17  C   UNL     1       6.873   4.547  13.731  0.00  0.00    +0.000 C 
ATOM     18  N   UNL     1       7.425   5.402  14.776  0.00  0.00    +0.000 NA
ATOM     19  H   UNL     1       7.504   6.347  14.409  0.00  0.00    +0.000 HD
ENDBRANCH  16  18
ENDBRANCH  15  16
ENDBRANCH  11  15
ENDBRANCH   5  12
ENDBRANCH   1   9
BRANCH   3  20
ATOM     20  C   UNL     1       0.219   8.998  21.451  0.00  0.00    +0.000 A 
ATOM     21  C   UNL     1      -0.056   9.525  22.717  0.00  0.00    +0.000 A 
ATOM     22  C   UNL     1      -0.702  10.752  22.852  0.00  0.00    +0.000 A 
ATOM     23  C   UNL     1      -1.067  11.485  21.723  0.00  0.00    +0.000 A 
ATOM     24  C   UNL     1      -0.785  11.002  20.437  0.00  0.00    +0.000 A 
ATOM     25  C   UNL     1      -0.138   9.751  20.319  0.00  0.00    +0.000 A 
BRANCH  24  26
ATOM     26  C   UNL     1      -1.092  11.832  19.187  0.00  0.00    +0.000 C 
ATOM     27  C   UNL     1      -0.549  13.260  19.383  0.00  0.00    +0.000 C 
BRANCH  26  28
ATOM     28  C   UNL     1      -2.594  11.837  18.799  0.00  0.00    +0.000 C 
BRANCH  28  29
ATOM     29  C   UNL     1      -2.859  11.155  17.487  0.00  0.00    +0.000 A 
ATOM     30  N   UNL     1      -2.061  10.312  16.856  0.00  0.00    +0.000 NA
ATOM     31  N   UNL     1      -2.596  10.047  15.619  0.00  0.00    +0.000 NA
ATOM     32  C   UNL     1      -3.729  10.700  15.530  0.00  0.00    +0.000 A 
ATOM     33  N   UNL     1      -3.979  11.331  16.710  0.00  0.00    +0.000 N 
ATOM     34  C   UNL     1      -5.221  11.947  17.081  0.00  0.00    +0.000 C 
ENDBRANCH  28  29
ENDBRANCH  26  28
ENDBRANCH  24  26
ENDBRANCH   3  20
TORSDOF 9
ENDMDL
MODEL 2
REMARK VINA RESULT:      -7.9      1.722      2.410
REMARK  Name = 
REMARK  12 active torsions:
REMARK  status: ('A' for Active; 'I' for Inactive)
REMARK    1  A    between atoms: C_1  and  N_2
REMARK    2  A    between atoms: N_2  and  C_3
REMARK    3  A    between atoms: C_3  and  C_4
REMARK    4  A    between atoms: C_4  and  N_5
REMARK    5  A    between atoms: C_6  and  C_8
REMARK    6  A    between atoms: C_12  and  C_13
REMARK    7  A    between atoms: N_15  and  C_16
REMARK    8  A    between atoms: C_20  and  C_21
REMARK    9  A    between atoms: C_21  and  C_22
REMARK   10  A    between atoms: C_21  and  C_23
REMARK   11  A    between atoms: C_23  and  C_24
REMARK   12  A    between atoms: N_28  and  C_29
REMARK                            x       y       z     vdW  Elec       q    Type
REMARK                         _______ _______ _______ _____ _____    ______ ____
ROOT
ATOM      1  C   UNL     1       2.319   5.890  19.329  0.00  0.00    +0.000 C 
ATOM      2  O   UNL     1       1.558   5.345  20.123  0.00  0.00    +0.000 OA
ATOM      3  N   UNL     1       2.406   7.253  19.083  0.00  0.00    +0.000 N 
ATOM      4  H   UNL     1       3.024   7.525  18.324  0.00  0.00    +0.000 HD
ENDROOT
BRANCH   1   9
ATOM      5  C   UNL     1       4.769   4.785  16.710  0.00  0.00    +0.000 A 
ATOM      6  C   UNL     1       4.783   3.411  16.931  0.00  0.00    +0.000 A 
ATOM      7  C   UNL     1       4.003   2.912  17.967  0.00  0.00    +0.000 A 
ATOM      8  N   UNL     1       3.214   3.670  18.768  0.00  0.00    +0.000 NA
ATOM      9  C   UNL     1       3.226   5.011  18.524  0.00  0.00    +0.000 A 
ATOM     10  C   UNL     1       3.995   5.601  17.532  0.00  0.00    +0.000 A 
BRANCH   5  12
ATOM     11  N   UNL     1       6.571   4.694  15.063  0.00  0.00    +0.000 N 
ATOM     12  C   UNL     1       5.568   5.443  15.643  0.00  0.00    +0.000 C 
ATOM     13  O   UNL     1       5.293   6.587  15.299  0.00  0.00    +0.000 OA
ATOM     14  H   UNL     1       6.528   3.690  15.160  0.00  0.00    +0.000 HD
BRANCH  11  15
ATOM     15  C   UNL     1       7.260   5.199  13.881  0.00  0.00    +0.000 C 
BRANCH  15  16
ATOM     16  C   UNL     1       7.121   4.263  12.673  0.00  0.00    +0.000 C 
BRANCH  16  18
ATOM     17  C   UNL     1       5.049   3.247  11.984  0.00  0.00    +0.000 C 
ATOM     18  N   UNL     1       6.160   3.178  12.927  0.00  0.00    +0.000 NA
ATOM     19  H   UNL     1       6.624   2.282  12.813  0.00  0.00    +0.000 HD
ENDBRANCH  16  18
ENDBRANCH  15  16
ENDBRANCH  11  15
ENDBRANCH   5  12
ENDBRANCH   1   9
BRANCH   3  20
ATOM     20  C   UNL     1       1.649   8.258  19.735  0.00  0.00    +0.000 A 
ATOM     21  C   UNL     1       1.500   8.308  21.125  0.00  0.00    +0.000 A 
ATOM     22  C   UNL     1       0.731   9.304  21.722  0.00  0.00    +0.000 A 
ATOM     23  C   UNL     1       0.113  10.282  20.942  0.00  0.00    +0.000 A 
ATOM     24  C   UNL     1       0.259  10.279  19.547  0.00  0.00    +0.000 A 
ATOM     25  C   UNL     1       1.035   9.256  18.957  0.00  0.00    +0.000 A 
BRANCH  24  26
ATOM     26  C   UNL     1      -0.332  11.395  18.680  0.00  0.00    +0.000 C 
ATOM     27  C   UNL     1       0.343  12.729  19.044  0.00  0.00    +0.000 C 
BRANCH  26  28
ATOM     28  C   UNL     1      -1.879  11.492  18.765  0.00  0.00    +0.000 C 
BRANCH  28  29
ATOM     29  C   UNL     1      -2.562  11.027  17.510  0.00  0.00    +0.000 A 
ATOM     30  N   UNL     1      -2.041  10.278  16.556  0.00  0.00    +0.000 NA
ATOM     31  N   UNL     1      -2.933  10.217  15.513  0.00  0.00    +0.000 NA
ATOM     32  C   UNL     1      -3.997  10.898  15.862  0.00  0.00    +0.000 A 
ATOM     33  N   UNL     1      -3.847  11.343  17.140  0.00  0.00    +0.000 N 
ATOM     34  C   UNL     1      -4.882  11.918  17.952  0.00  0.00    +0.000 C 
ENDBRANCH  28  29
ENDBRANCH  26  28
ENDBRANCH  24  26
ENDBRANCH   3  20
TORSDOF 9
ENDMDL
MODEL 3
REMARK VINA RESULT:      -7.7      3.324      4.979
REMARK  Name = 
REMARK  12 active torsions:
REMARK  status: ('A' for Active; 'I' for Inactive)
REMARK    1  A    between atoms: C_1  and  N_2
REMARK    2  A    between atoms: N_2  and  C_3
REMARK    3  A    between atoms: C_3  and  C_4
REMARK    4  A    between atoms: C_4  and  N_5
REMARK    5  A    between atoms: C_6  and  C_8
REMARK    6  A    between atoms: C_12  and  C_13
REMARK    7  A    between atoms: N_15  and  C_16
REMARK    8  A    between atoms: C_20  and  C_21
REMARK    9  A    between atoms: C_21  and  C_22
REMARK   10  A    between atoms: C_21  and  C_23
REMARK   11  A    between atoms: C_23  and  C_24
REMARK   12  A    between atoms: N_28  and  C_29
REMARK                            x       y       z     vdW  Elec       q    Type
REMARK                         _______ _______ _______ _____ _____    ______ ____
ROOT
ATOM      1  C   UNL     1       1.994   8.538  18.225  0.00  0.00    +0.000 C 
ATOM      2  O   UNL     1       2.382   9.002  17.158  0.00  0.00    +0.000 OA
ATOM      3  N   UNL     1       1.065   9.116  19.080  0.00  0.00    +0.000 N 
ATOM      4  H   UNL     1       0.929   8.641  19.968  0.00  0.00    +0.000 HD
ENDROOT
BRANCH   1   9
ATOM      5  C   UNL     1       3.962   5.343  18.179  0.00  0.00    +0.000 A 
ATOM      6  C   UNL     1       3.578   4.783  19.394  0.00  0.00    +0.000 A 
ATOM      7  C   UNL     1       2.707   5.511  20.196  0.00  0.00    +0.000 A 
ATOM      8  N   UNL     1       2.190   6.721  19.869  0.00  0.00    +0.000 NA
ATOM      9  C   UNL     1       2.588   7.238  18.672  0.00  0.00    +0.000 A 
ATOM     10  C   UNL     1       3.476   6.598  17.820  0.00  0.00    +0.000 A 
BRANCH   5  12
ATOM     11  N   UNL     1       6.008   5.390  16.845  0.00  0.00    +0.000 N 
ATOM     12  C   UNL     1       4.897   4.672  17.237  0.00  0.00    +0.000 C 
ATOM     13  O   UNL     1       4.673   3.522  16.879  0.00  0.00    +0.000 OA
ATOM     14  H   UNL     1       6.289   6.174  17.415  0.00  0.00    +0.000 HD
BRANCH  11  15
ATOM     15  C   UNL     1       7.065   4.729  16.088  0.00  0.00    +0.000 C 
BRANCH  15  16
ATOM     16  C   UNL     1       6.830   4.789  14.573  0.00  0.00    +0.000 C 
BRANCH  16  18
ATOM     17  C   UNL     1       6.115   3.600  12.604  0.00  0.00    +0.000 C 
ATOM     18  N   UNL     1       6.283   3.527  14.052  0.00  0.00    +0.000 NA
ATOM     19  H   UNL     1       6.924   2.768  14.263  0.00  0.00    +0.000 HD
ENDBRANCH  16  18
ENDBRANCH  15  16
ENDBRANCH  11  15
ENDBRANCH   5  12
ENDBRANCH   1   9
BRANCH   3  20
ATOM     20  C   UNL     1       0.379  10.334  18.849  0.00  0.00    +0.000 A 
ATOM     21  C   UNL     1      -0.885  10.386  18.251  0.00  0.00    +0.000 A 
ATOM     22  C   UNL     1      -1.515  11.608  18.026  0.00  0.00    +0.000 A 
ATOM     23  C   UNL     1      -0.903  12.800  18.415  0.00  0.00    +0.000 A 
ATOM     24  C   UNL     1       0.352  12.786  19.040  0.00  0.00    +0.000 A 
ATOM     25  C   UNL     1       0.981  11.538  19.251  0.00  0.00    +0.000 A 
BRANCH  24  26
ATOM     26  C   UNL     1       1.000  14.074  19.558  0.00  0.00    +0.000 C 
ATOM     27  C   UNL     1       0.359  15.282  18.851  0.00  0.00    +0.000 C 
BRANCH  26  28
ATOM     28  C   UNL     1       2.546  14.085  19.428  0.00  0.00    +0.000 C 
BRANCH  28  29
ATOM     29  C   UNL     1       3.235  14.473  20.706  0.00  0.00    +0.000 A 
ATOM     30  N   UNL     1       3.537  13.678  21.716  0.00  0.00    +0.000 NA
ATOM     31  N   UNL     1       4.008  14.447  22.752  0.00  0.00    +0.000 NA
ATOM     32  C   UNL     1       4.022  15.693  22.344  0.00  0.00    +0.000 A 
ATOM     33  N   UNL     1       3.636  15.744  21.040  0.00  0.00    +0.000 N 
ATOM     34  C   UNL     1       3.749  16.887  20.179  0.00  0.00    +0.000 C 
ENDBRANCH  28  29
ENDBRANCH  26  28
ENDBRANCH  24  26
ENDBRANCH   3  20
TORSDOF 9
ENDMDL
MODEL 4
REMARK VINA RESULT:      -7.7      7.124     10.171
REMARK  Name = 
REMARK  12 active torsions:
REMARK  status: ('A' for Active; 'I' for Inactive)
REMARK    1  A    between atoms: C_1  and  N_2
REMARK    2  A    between atoms: N_2  and  C_3
REMARK    3  A    between atoms: C_3  and  C_4
REMARK    4  A    between atoms: C_4  and  N_5
REMARK    5  A    between atoms: C_6  and  C_8
REMARK    6  A    between atoms: C_12  and  C_13
REMARK    7  A    between atoms: N_15  and  C_16
REMARK    8  A    between atoms: C_20  and  C_21
REMARK    9  A    between atoms: C_21  and  C_22
REMARK   10  A    between atoms: C_21  and  C_23
REMARK   11  A    between atoms: C_23  and  C_24
REMARK   12  A    between atoms: N_28  and  C_29
REMARK                            x       y       z     vdW  Elec       q    Type
REMARK                         _______ _______ _______ _____ _____    ______ ____
ROOT
ATOM      1  C   UNL     1       7.785   7.594  18.017  0.00  0.00    +0.000 C 
ATOM      2  O   UNL     1       8.469   7.041  18.873  0.00  0.00    +0.000 OA
ATOM      3  N   UNL     1       7.779   8.951  17.724  0.00  0.00    +0.000 N 
ATOM      4  H   UNL     1       7.082   9.254  17.050  0.00  0.00    +0.000 HD
ENDROOT
BRANCH   1   9
ATOM      5  C   UNL     1       4.681   5.740  17.012  0.00  0.00    +0.000 A 
ATOM      6  C   UNL     1       5.135   5.066  15.882  0.00  0.00    +0.000 A 
ATOM      7  C   UNL     1       6.448   5.285  15.480  0.00  0.00    +0.000 A 
ATOM      8  N   UNL     1       7.323   6.097  16.123  0.00  0.00    +0.000 NA
ATOM      9  C   UNL     1       6.844   6.741  17.225  0.00  0.00    +0.000 A 
ATOM     10  C   UNL     1       5.541   6.607  17.683  0.00  0.00    +0.000 A 
BRANCH   5  12
ATOM     11  N   UNL     1       2.801   4.319  17.656  0.00  0.00    +0.000 N 
ATOM     12  C   UNL     1       3.297   5.601  17.537  0.00  0.00    +0.000 C 
ATOM     13  O   UNL     1       2.674   6.602  17.872  0.00  0.00    +0.000 OA
ATOM     14  H   UNL     1       3.462   3.556  17.674  0.00  0.00    +0.000 HD
BRANCH  11  15
ATOM     15  C   UNL     1       1.536   4.094  18.346  0.00  0.00    +0.000 C 
BRANCH  15  16
ATOM     16  C   UNL     1       1.541   2.807  19.182  0.00  0.00    +0.000 C 
BRANCH  16  18
ATOM     17  C   UNL     1       1.631   2.645  21.583  0.00  0.00    +0.000 C 
ATOM     18  N   UNL     1       0.788   2.964  20.436  0.00  0.00    +0.000 NA
ATOM     19  H   UNL     1       0.476   3.927  20.525  0.00  0.00    +0.000 HD
ENDBRANCH  16  18
ENDBRANCH  15  16
ENDBRANCH  11  15
ENDBRANCH   5  12
ENDBRANCH   1   9
BRANCH   3  20
ATOM     20  C   UNL     1       8.593   9.932  18.345  0.00  0.00    +0.000 A 
ATOM     21  C   UNL     1       9.196   9.732  19.592  0.00  0.00    +0.000 A 
ATOM     22  C   UNL     1       9.973  10.731  20.174  0.00  0.00    +0.000 A 
ATOM     23  C   UNL     1      10.179  11.941  19.510  0.00  0.00    +0.000 A 
ATOM     24  C   UNL     1       9.611  12.169  18.249  0.00  0.00    +0.000 A 
ATOM     25  C   UNL     1       8.818  11.148  17.678  0.00  0.00    +0.000 A 
BRANCH  24  26
ATOM     26  C   UNL     1       9.900  13.451  17.463  0.00  0.00    +0.000 C 
ATOM     27  C   UNL     1      11.384  13.470  17.055  0.00  0.00    +0.000 C 
BRANCH  26  28
ATOM     28  C   UNL     1       9.495  14.745  18.218  0.00  0.00    +0.000 C 
BRANCH  28  29
ATOM     29  C   UNL     1      10.670  15.454  18.831  0.00  0.00    +0.000 A 
ATOM     30  N   UNL     1      11.321  15.106  19.926  0.00  0.00    +0.000 NA
ATOM     31  N   UNL     1      12.217  16.101  20.235  0.00  0.00    +0.000 NA
ATOM     32  C   UNL     1      12.125  17.019  19.304  0.00  0.00    +0.000 A 
ATOM     33  N   UNL     1      11.238  16.611  18.356  0.00  0.00    +0.000 N 
ATOM     34  C   UNL     1      11.043  17.226  17.073  0.00  0.00    +0.000 C 
ENDBRANCH  28  29
ENDBRANCH  26  28
ENDBRANCH  24  26
ENDBRANCH   3  20
TORSDOF 9
ENDMDL
MODEL 5
REMARK VINA RESULT:      -7.7      2.570     10.136
REMARK  Name = 
REMARK  12 active torsions:
REMARK  status: ('A' for Active; 'I' for Inactive)
REMARK    1  A    between atoms: C_1  and  N_2
REMARK    2  A    between atoms: N_2  and  C_3
REMARK    3  A    between atoms: C_3  and  C_4
REMARK    4  A    between atoms: C_4  and  N_5
REMARK    5  A    between atoms: C_6  and  C_8
REMARK    6  A    between atoms: C_12  and  C_13
REMARK    7  A    between atoms: N_15  and  C_16
REMARK    8  A    between atoms: C_20  and  C_21
REMARK    9  A    between atoms: C_21  and  C_22
REMARK   10  A    between atoms: C_21  and  C_23
REMARK   11  A    between atoms: C_23  and  C_24
REMARK   12  A    between atoms: N_28  and  C_29
REMARK                            x       y       z     vdW  Elec       q    Type
REMARK                         _______ _______ _______ _____ _____    ______ ____
ROOT
ATOM      1  C   UNL     1       1.167   9.244  19.576  0.00  0.00    +0.000 C 
ATOM      2  O   UNL     1       1.217   8.997  20.776  0.00  0.00    +0.000 OA
ATOM      3  N   UNL     1       1.748   8.497  18.561  0.00  0.00    +0.000 N 
ATOM      4  H   UNL     1       1.689   8.897  17.629  0.00  0.00    +0.000 HD
ENDROOT
BRANCH   1   9
ATOM      5  C   UNL     1      -1.394  11.470  17.972  0.00  0.00    +0.000 A 
ATOM      6  C   UNL     1      -0.848  12.724  18.231  0.00  0.00    +0.000 A 
ATOM      7  C   UNL     1       0.334  12.778  18.962  0.00  0.00    +0.000 A 
ATOM      8  N   UNL     1       1.001  11.692  19.425  0.00  0.00    +0.000 NA
ATOM      9  C   UNL     1       0.437  10.481  19.153  0.00  0.00    +0.000 A 
ATOM     10  C   UNL     1      -0.754  10.332  18.457  0.00  0.00    +0.000 A 
BRANCH   5  12
ATOM     11  N   UNL     1      -3.825  11.235  17.947  0.00  0.00    +0.000 N 
ATOM     12  C   UNL     1      -2.658  11.278  17.213  0.00  0.00    +0.000 C 
ATOM     13  O   UNL     1      -2.624  11.202  15.990  0.00  0.00    +0.000 OA
ATOM     14  H   UNL     1      -3.812  11.621  18.880  0.00  0.00    +0.000 HD
BRANCH  11  15
ATOM     15  C   UNL     1      -5.112  11.251  17.260  0.00  0.00    +0.000 C 
BRANCH  15  16
ATOM     16  C   UNL     1      -6.075  12.297  17.837  0.00  0.00    +0.000 C 
BRANCH  16  18
ATOM     17  C   UNL     1      -7.317  14.260  17.198  0.00  0.00    +0.000 C 
ATOM     18  N   UNL     1      -6.049  13.550  17.066  0.00  0.00    +0.000 NA
ATOM     19  H   UNL     1      -5.308  14.149  17.419  0.00  0.00    +0.000 HD
ENDBRANCH  16  18
ENDBRANCH  15  16
ENDBRANCH  11  15
ENDBRANCH   5  12
ENDBRANCH   1   9
BRANCH   3  20
ATOM     20  C   UNL     1       2.475   7.293  18.737  0.00  0.00    +0.000 A 
ATOM     21  C   UNL     1       2.354   6.499  19.882  0.00  0.00    +0.000 A 
ATOM     22  C   UNL     1       3.102   5.332  20.021  0.00  0.00    +0.000 A 
ATOM     23  C   UNL     1       3.970   4.925  19.008  0.00  0.00    +0.000 A 
ATOM     24  C   UNL     1       4.100   5.682  17.834  0.00  0.00    +0.000 A 
ATOM     25  C   UNL     1       3.340   6.868  17.714  0.00  0.00    +0.000 A 
BRANCH  24  26
ATOM     26  C   UNL     1       4.975   5.206  16.671  0.00  0.00    +0.000 C 
ATOM     27  C   UNL     1       4.416   3.878  16.128  0.00  0.00    +0.000 C 
BRANCH  26  28
ATOM     28  C   UNL     1       6.480   5.090  17.034  0.00  0.00    +0.000 C 
BRANCH  28  29
ATOM     29  C   UNL     1       7.079   6.402  17.457  0.00  0.00    +0.000 A 
ATOM     30  N   UNL     1       7.005   7.552  16.811  0.00  0.00    +0.000 NA
ATOM     31  N   UNL     1       7.819   8.460  17.444  0.00  0.00    +0.000 NA
ATOM     32  C   UNL     1       8.345   7.862  18.485  0.00  0.00    +0.000 A 
ATOM     33  N   UNL     1       7.837   6.603  18.585  0.00  0.00    +0.000 N 
ATOM     34  C   UNL     1       7.987   5.729  19.714  0.00  0.00    +0.000 C 
ENDBRANCH  28  29
ENDBRANCH  26  28
ENDBRANCH  24  26
ENDBRANCH   3  20
TORSDOF 9
ENDMDL
MODEL 6
REMARK VINA RESULT:      -7.7      1.995      9.419
REMARK  Name = 
REMARK  12 active torsions:
REMARK  status: ('A' for Active; 'I' for Inactive)
REMARK    1  A    between atoms: C_1  and  N_2
REMARK    2  A    between atoms: N_2  and  C_3
REMARK    3  A    between atoms: C_3  and  C_4
REMARK    4  A    between atoms: C_4  and  N_5
REMARK    5  A    between atoms: C_6  and  C_8
REMARK    6  A    between atoms: C_12  and  C_13
REMARK    7  A    between atoms: N_15  and  C_16
REMARK    8  A    between atoms: C_20  and  C_21
REMARK    9  A    between atoms: C_21  and  C_22
REMARK   10  A    between atoms: C_21  and  C_23
REMARK   11  A    between atoms: C_23  and  C_24
REMARK   12  A    between atoms: N_28  and  C_29
REMARK                            x       y       z     vdW  Elec       q    Type
REMARK                         _______ _______ _______ _____ _____    ______ ____
ROOT
ATOM      1  C   UNL     1       1.934   6.858  20.146  0.00  0.00    +0.000 C 
ATOM      2  O   UNL     1       2.070   5.983  20.995  0.00  0.00    +0.000 OA
ATOM      3  N   UNL     1       2.244   6.746  18.798  0.00  0.00    +0.000 N 
ATOM      4  H   UNL     1       2.158   7.600  18.254  0.00  0.00    +0.000 HD
ENDROOT
BRANCH   1   9
ATOM      5  C   UNL     1       0.439  10.298  20.034  0.00  0.00    +0.000 A 
ATOM      6  C   UNL     1       0.579  10.686  21.363  0.00  0.00    +0.000 A 
ATOM      7  C   UNL     1       1.133   9.771  22.251  0.00  0.00    +0.000 A 
ATOM      8  N   UNL     1       1.563   8.531  21.908  0.00  0.00    +0.000 NA
ATOM      9  C   UNL     1       1.410   8.186  20.598  0.00  0.00    +0.000 A 
ATOM     10  C   UNL     1       0.842   9.021  19.648  0.00  0.00    +0.000 A 
BRANCH   5  12
ATOM     11  N   UNL     1      -1.208  10.668  18.268  0.00  0.00    +0.000 N 
ATOM     12  C   UNL     1      -0.149  11.179  18.990  0.00  0.00    +0.000 C 
ATOM     13  O   UNL     1       0.292  12.312  18.836  0.00  0.00    +0.000 OA
ATOM     14  H   UNL     1      -1.712   9.886  18.658  0.00  0.00    +0.000 HD
BRANCH  11  15
ATOM     15  C   UNL     1      -1.960  11.541  17.372  0.00  0.00    +0.000 C 
BRANCH  15  16
ATOM     16  C   UNL     1      -3.085  10.801  16.637  0.00  0.00    +0.000 C 
BRANCH  16  18
ATOM     17  C   UNL     1      -3.467  10.246  14.324  0.00  0.00    +0.000 C 
ATOM     18  N   UNL     1      -3.298  11.333  15.282  0.00  0.00    +0.000 NA
ATOM     19  H   UNL     1      -4.138  11.905  15.271  0.00  0.00    +0.000 HD
ENDBRANCH  16  18
ENDBRANCH  15  16
ENDBRANCH  11  15
ENDBRANCH   5  12
ENDBRANCH   1   9
BRANCH   3  20
ATOM     20  C   UNL     1       2.743   5.583  18.161  0.00  0.00    +0.000 A 
ATOM     21  C   UNL     1       1.959   4.443  17.950  0.00  0.00    +0.000 A 
ATOM     22  C   UNL     1       2.497   3.315  17.335  0.00  0.00    +0.000 A 
ATOM     23  C   UNL     1       3.823   3.311  16.901  0.00  0.00    +0.000 A 
ATOM     24  C   UNL     1       4.633   4.443  17.073  0.00  0.00    +0.000 A 
ATOM     25  C   UNL     1       4.074   5.576  17.707  0.00  0.00    +0.000 A 
BRANCH  24  26
ATOM     26  C   UNL     1       6.061   4.495  16.522  0.00  0.00    +0.000 C 
ATOM     27  C   UNL     1       7.024   4.900  17.652  0.00  0.00    +0.000 C 
BRANCH  26  28
ATOM     28  C   UNL     1       6.212   5.415  15.280  0.00  0.00    +0.000 C 
BRANCH  28  29
ATOM     29  C   UNL     1       6.247   4.648  13.989  0.00  0.00    +0.000 A 
ATOM     30  N   UNL     1       5.355   3.771  13.564  0.00  0.00    +0.000 NA
ATOM     31  N   UNL     1       5.836   3.178  12.421  0.00  0.00    +0.000 NA
ATOM     32  C   UNL     1       6.993   3.729  12.147  0.00  0.00    +0.000 A 
ATOM     33  N   UNL     1       7.245   4.718  13.048  0.00  0.00    +0.000 N 
ATOM     34  C   UNL     1       8.289   5.698  12.942  0.00  0.00    +0.000 C 
ENDBRANCH  28  29
ENDBRANCH  26  28
ENDBRANCH  24  26
ENDBRANCH   3  20
TORSDOF 9
ENDMDL
MODEL 7
REMARK VINA RESULT:      -7.7      3.393      4.396
REMARK  Name = 
REMARK  12 active torsions:
REMARK  status: ('A' for Active; 'I' for Inactive)
REMARK    1  A    between atoms: C_1  and  N_2
REMARK    2  A    between atoms: N_2  and  C_3
REMARK    3  A    between atoms: C_3  and  C_4
REMARK    4  A    between atoms: C_4  and  N_5
REMARK    5  A    between atoms: C_6  and  C_8
REMARK    6  A    between atoms: C_12  and  C_13
REMARK    7  A    between atoms: N_15  and  C_16
REMARK    8  A    between atoms: C_20  and  C_21
REMARK    9  A    between atoms: C_21  and  C_22
REMARK   10  A    between atoms: C_21  and  C_23
REMARK   11  A    between atoms: C_23  and  C_24
REMARK   12  A    between atoms: N_28  and  C_29
REMARK                            x       y       z     vdW  Elec       q    Type
REMARK                         _______ _______ _______ _____ _____    ______ ____
ROOT
ATOM      1  C   UNL     1       1.838   8.769  18.517  0.00  0.00    +0.000 C 
ATOM      2  O   UNL     1       2.243   9.026  17.388  0.00  0.00    +0.000 OA
ATOM      3  N   UNL     1       1.069   9.600  19.320  0.00  0.00    +0.000 N 
ATOM      4  H   UNL     1       0.901   9.268  20.265  0.00  0.00    +0.000 HD
ENDROOT
BRANCH   1   9
ATOM      5  C   UNL     1       3.364   5.359  18.869  0.00  0.00    +0.000 A 
ATOM      6  C   UNL     1       2.828   4.959  20.090  0.00  0.00    +0.000 A 
ATOM      7  C   UNL     1       2.009   5.858  20.764  0.00  0.00    +0.000 A 
ATOM      8  N   UNL     1       1.680   7.091  20.306  0.00  0.00    +0.000 NA
ATOM      9  C   UNL     1       2.223   7.448  19.108  0.00  0.00    +0.000 A 
ATOM     10  C   UNL     1       3.074   6.630  18.379  0.00  0.00    +0.000 A 
BRANCH   5  12
ATOM     11  N   UNL     1       4.524   4.908  16.767  0.00  0.00    +0.000 N 
ATOM     12  C   UNL     1       4.263   4.497  18.058  0.00  0.00    +0.000 C 
ATOM     13  O   UNL     1       4.758   3.495  18.562  0.00  0.00    +0.000 OA
ATOM     14  H   UNL     1       4.355   5.876  16.537  0.00  0.00    +0.000 HD
BRANCH  11  15
ATOM     15  C   UNL     1       5.548   4.226  15.984  0.00  0.00    +0.000 C 
BRANCH  15  16
ATOM     16  C   UNL     1       6.937   4.855  16.156  0.00  0.00    +0.000 C 
BRANCH  16  18
ATOM     17  C   UNL     1       6.857   4.572  13.765  0.00  0.00    +0.000 C 
ATOM     18  N   UNL     1       7.520   5.261  14.868  0.00  0.00    +0.000 NA
ATOM     19  H   UNL     1       7.397   6.262  14.742  0.00  0.00    +0.000 HD
ENDBRANCH  16  18
ENDBRANCH  15  16
ENDBRANCH  11  15
ENDBRANCH   5  12
ENDBRANCH   1   9
BRANCH   3  20
ATOM     20  C   UNL     1       0.590  10.884  18.957  0.00  0.00    +0.000 A 
ATOM     21  C   UNL     1      -0.765  11.148  18.732  0.00  0.00    +0.000 A 
ATOM     22  C   UNL     1      -1.189  12.421  18.359  0.00  0.00    +0.000 A 
ATOM     23  C   UNL     1      -0.268  13.461  18.224  0.00  0.00    +0.000 A 
ATOM     24  C   UNL     1       1.096  13.241  18.464  0.00  0.00    +0.000 A 
ATOM     25  C   UNL     1       1.510  11.940  18.833  0.00  0.00    +0.000 A 
BRANCH  24  26
ATOM     26  C   UNL     1       2.111  14.387  18.413  0.00  0.00    +0.000 C 
ATOM     27  C   UNL     1       3.495  13.854  18.824  0.00  0.00    +0.000 C 
BRANCH  26  28
ATOM     28  C   UNL     1       1.696  15.620  19.259  0.00  0.00    +0.000 C 
BRANCH  28  29
ATOM     29  C   UNL     1       1.370  16.821  18.416  0.00  0.00    +0.000 A 
ATOM     30  N   UNL     1       2.181  17.447  17.582  0.00  0.00    +0.000 NA
ATOM     31  N   UNL     1       1.554  18.585  17.136  0.00  0.00    +0.000 NA
ATOM     32  C   UNL     1       0.359  18.615  17.674  0.00  0.00    +0.000 A 
ATOM     33  N   UNL     1       0.167  17.484  18.407  0.00  0.00    +0.000 N 
ATOM     34  C   UNL     1      -1.087  17.043  18.949  0.00  0.00    +0.000 C 
ENDBRANCH  28  29
ENDBRANCH  26  28
ENDBRANCH  24  26
ENDBRANCH   3  20
TORSDOF 9
ENDMDL
MODEL 8
REMARK VINA RESULT:      -7.7      1.739      2.271
REMARK  Name = 
REMARK  12 active torsions:
REMARK  status: ('A' for Active; 'I' for Inactive)
REMARK    1  A    between atoms: C_1  and  N_2
REMARK    2  A    between atoms: N_2  and  C_3
REMARK    3  A    between atoms: C_3  and  C_4
REMARK    4  A    between atoms: C_4  and  N_5
REMARK    5  A    between atoms: C_6  and  C_8
REMARK    6  A    between atoms: C_12  and  C_13
REMARK    7  A    between atoms: N_15  and  C_16
REMARK    8  A    between atoms: C_20  and  C_21
REMARK    9  A    between atoms: C_21  and  C_22
REMARK   10  A    between atoms: C_21  and  C_23
REMARK   11  A    between atoms: C_23  and  C_24
REMARK   12  A    between atoms: N_28  and  C_29
REMARK                            x       y       z     vdW  Elec       q    Type
REMARK                         _______ _______ _______ _____ _____    ______ ____
ROOT
ATOM      1  C   UNL     1       1.804   8.103  19.894  0.00  0.00    +0.000 C 
ATOM      2  O   UNL     1       1.495   8.484  21.019  0.00  0.00    +0.000 OA
ATOM      3  N   UNL     1       1.749   8.858  18.730  0.00  0.00    +0.000 N 
ATOM      4  H   UNL     1       1.952   8.357  17.870  0.00  0.00    +0.000 HD
ENDROOT
BRANCH   1   9
ATOM      5  C   UNL     1       3.293   5.004  18.390  0.00  0.00    +0.000 A 
ATOM      6  C   UNL     1       2.978   4.064  19.366  0.00  0.00    +0.000 A 
ATOM      7  C   UNL     1       2.313   4.508  20.503  0.00  0.00    +0.000 A 
ATOM      8  N   UNL     1       1.934   5.792  20.720  0.00  0.00    +0.000 NA
ATOM      9  C   UNL     1       2.261   6.685  19.744  0.00  0.00    +0.000 A 
ATOM     10  C   UNL     1       2.948   6.339  18.589  0.00  0.00    +0.000 A 
BRANCH   5  12
ATOM     11  N   UNL     1       4.677   5.686  16.495  0.00  0.00    +0.000 N 
ATOM     12  C   UNL     1       4.013   4.660  17.135  0.00  0.00    +0.000 C 
ATOM     13  O   UNL     1       4.021   3.499  16.742  0.00  0.00    +0.000 OA
ATOM     14  H   UNL     1       4.895   6.514  17.030  0.00  0.00    +0.000 HD
BRANCH  11  15
ATOM     15  C   UNL     1       5.564   5.387  15.377  0.00  0.00    +0.000 C 
BRANCH  15  16
ATOM     16  C   UNL     1       7.016   5.164  15.820  0.00  0.00    +0.000 C 
BRANCH  16  18
ATOM     17  C   UNL     1       7.680   4.851  18.114  0.00  0.00    +0.000 C 
ATOM     18  N   UNL     1       7.109   4.209  16.935  0.00  0.00    +0.000 NA
ATOM     19  H   UNL     1       6.180   3.872  17.170  0.00  0.00    +0.000 HD
ENDBRANCH  16  18
ENDBRANCH  15  16
ENDBRANCH  11  15
ENDBRANCH   5  12
ENDBRANCH   1   9
BRANCH   3  20
ATOM     20  C   UNL     1       1.355  10.217  18.647  0.00  0.00    +0.000 A 
ATOM     21  C   UNL     1       2.260  11.250  18.382  0.00  0.00    +0.000 A 
ATOM     22  C   UNL     1       1.831  12.574  18.327  0.00  0.00    +0.000 A 
ATOM     23  C   UNL     1       0.484  12.888  18.516  0.00  0.00    +0.000 A 
ATOM     24  C   UNL     1      -0.456  11.878  18.760  0.00  0.00    +0.000 A 
ATOM     25  C   UNL     1      -0.002  10.541  18.822  0.00  0.00    +0.000 A 
BRANCH  24  26
ATOM     26  C   UNL     1      -1.951  12.190  18.878  0.00  0.00    +0.000 C 
ATOM     27  C   UNL     1      -2.220  12.868  20.233  0.00  0.00    +0.000 C 
BRANCH  26  28
ATOM     28  C   UNL     1      -2.861  10.951  18.665  0.00  0.00    +0.000 C 
BRANCH  28  29
ATOM     29  C   UNL     1      -3.114  10.656  17.213  0.00  0.00    +0.000 A 
ATOM     30  N   UNL     1      -2.424   9.839  16.439  0.00  0.00    +0.000 NA
ATOM     31  N   UNL     1      -2.873   9.978  15.148  0.00  0.00    +0.000 NA
ATOM     32  C   UNL     1      -3.854  10.848  15.161  0.00  0.00    +0.000 A 
ATOM     33  N   UNL     1      -4.100  11.226  16.445  0.00  0.00    +0.000 N 
ATOM     34  C   UNL     1      -5.241  11.977  16.891  0.00  0.00    +0.000 C 
ENDBRANCH  28  29
ENDBRANCH  26  28
ENDBRANCH  24  26
ENDBRANCH   3  20
TORSDOF 9
ENDMDL
MODEL 9
REMARK VINA RESULT:      -7.7      6.912      9.885
REMARK  Name = 
REMARK  12 active torsions:
REMARK  status: ('A' for Active; 'I' for Inactive)
REMARK    1  A    between atoms: C_1  and  N_2
REMARK    2  A    between atoms: N_2  and  C_3
REMARK    3  A    between atoms: C_3  and  C_4
REMARK    4  A    between atoms: C_4  and  N_5
REMARK    5  A    between atoms: C_6  and  C_8
REMARK    6  A    between atoms: C_12  and  C_13
REMARK    7  A    between atoms: N_15  and  C_16
REMARK    8  A    between atoms: C_20  and  C_21
REMARK    9  A    between atoms: C_21  and  C_22
REMARK   10  A    between atoms: C_21  and  C_23
REMARK   11  A    between atoms: C_23  and  C_24
REMARK   12  A    between atoms: N_28  and  C_29
REMARK                            x       y       z     vdW  Elec       q    Type
REMARK                         _______ _______ _______ _____ _____    ______ ____
ROOT
ATOM      1  C   UNL     1       7.822   7.237  17.985  0.00  0.00    +0.000 C 
ATOM      2  O   UNL     1       8.363   6.781  18.987  0.00  0.00    +0.000 OA
ATOM      3  N   UNL     1       7.831   8.565  17.582  0.00  0.00    +0.000 N 
ATOM      4  H   UNL     1       7.252   8.785  16.777  0.00  0.00    +0.000 HD
ENDROOT
BRANCH   1   9
ATOM      5  C   UNL     1       5.294   4.678  16.914  0.00  0.00    +0.000 A 
ATOM      6  C   UNL     1       5.714   4.427  15.611  0.00  0.00    +0.000 A 
ATOM      7  C   UNL     1       6.802   5.147  15.130  0.00  0.00    +0.000 A 
ATOM      8  N   UNL     1       7.493   6.066  15.849  0.00  0.00    +0.000 NA
ATOM      9  C   UNL     1       7.053   6.287  17.120  0.00  0.00    +0.000 A 
ATOM     10  C   UNL     1       5.960   5.637  17.674  0.00  0.00    +0.000 A 
BRANCH   5  12
ATOM     11  N   UNL     1       4.234   3.704  18.888  0.00  0.00    +0.000 N 
ATOM     12  C   UNL     1       4.138   3.985  17.540  0.00  0.00    +0.000 C 
ATOM     13  O   UNL     1       3.149   3.724  16.864  0.00  0.00    +0.000 OA
ATOM     14  H   UNL     1       4.910   4.222  19.431  0.00  0.00    +0.000 HD
BRANCH  11  15
ATOM     15  C   UNL     1       3.067   3.210  19.609  0.00  0.00    +0.000 C 
BRANCH  15  16
ATOM     16  C   UNL     1       2.762   1.738  19.299  0.00  0.00    +0.000 C 
BRANCH  16  18
ATOM     17  C   UNL     1       0.565   2.649  18.914  0.00  0.00    +0.000 C 
ATOM     18  N   UNL     1       1.498   1.583  18.562  0.00  0.00    +0.000 NA
ATOM     19  H   UNL     1       1.680   1.632  17.564  0.00  0.00    +0.000 HD
ENDBRANCH  16  18
ENDBRANCH  15  16
ENDBRANCH  11  15
ENDBRANCH   5  12
ENDBRANCH   1   9
BRANCH   3  20
ATOM     20  C   UNL     1       8.500   9.623  18.247  0.00  0.00    +0.000 A 
ATOM     21  C   UNL     1       9.020   9.493  19.539  0.00  0.00    +0.000 A 
ATOM     22  C   UNL     1       9.654  10.566  20.161  0.00  0.00    +0.000 A 
ATOM     23  C   UNL     1       9.798  11.783  19.495  0.00  0.00    +0.000 A 
ATOM     24  C   UNL     1       9.311  11.945  18.190  0.00  0.00    +0.000 A 
ATOM     25  C   UNL     1       8.663  10.848  17.578  0.00  0.00    +0.000 A 
BRANCH  24  26
ATOM     26  C   UNL     1       9.541  13.240  17.407  0.00  0.00    +0.000 C 
ATOM     27  C   UNL     1      11.013  13.308  16.962  0.00  0.00    +0.000 C 
BRANCH  26  28
ATOM     28  C   UNL     1       9.116  14.516  18.182  0.00  0.00    +0.000 C 
BRANCH  28  29
ATOM     29  C   UNL     1      10.281  15.246  18.786  0.00  0.00    +0.000 A 
ATOM     30  N   UNL     1      10.931  14.924  19.890  0.00  0.00    +0.000 NA
ATOM     31  N   UNL     1      11.818  15.932  20.184  0.00  0.00    +0.000 NA
ATOM     32  C   UNL     1      11.722  16.832  19.237  0.00  0.00    +0.000 A 
ATOM     33  N   UNL     1      10.841  16.400  18.293  0.00  0.00    +0.000 N 
ATOM     34  C   UNL     1      10.646  16.991  16.999  0.00  0.00    +0.000 C 
ENDBRANCH  28  29
ENDBRANCH  26  28
ENDBRANCH  24  26
ENDBRANCH   3  20
TORSDOF 9
ENDMDL
