MODEL 1
REMARK VINA RESULT:      -8.6      0.000      0.000
REMARK  Name = 
REMARK  11 active torsions:
REMARK  status: ('A' for Active; 'I' for Inactive)
REMARK    1  A    between atoms: C_1  and  N_2
REMARK    2  A    between atoms: C_3  and  C_5
REMARK    3  A    between atoms: C_5  and  O_6
REMARK    4  A    between atoms: O_6  and  C_7
REMARK    5  A    between atoms: C_13  and  C_14
REMARK    6  A    between atoms: N_16  and  C_17
REMARK    7  A    between atoms: C_21  and  C_22
REMARK    8  A    between atoms: C_22  and  C_23
REMARK    9  A    between atoms: C_22  and  S_24
REMARK   10  A    between atoms: S_24  and  C_25
REMARK   11  A    between atoms: N_29  and  C_30
REMARK                            x       y       z     vdW  Elec       q    Type
REMARK                         _______ _______ _______ _____ _____    ______ ____
ROOT
ATOM      1  C   UNL     1       1.177   8.990  19.562  0.00  0.00    +0.000 C 
ATOM      2  O   UNL     1       0.894   9.137  20.751  0.00  0.00    +0.000 OA
ATOM      3  N   UNL     1       0.678   9.750  18.523  0.00  0.00    +0.000 N 
ATOM      4  H   UNL     1       1.083   9.594  17.606  0.00  0.00    +0.000 HD
ENDROOT
BRANCH   1  11
ATOM      5  C   UNL     1       4.733   4.714  18.546  0.00  0.00    +0.000 A 
ATOM      6  C   UNL     1       5.453   4.679  17.350  0.00  0.00    +0.000 A 
ATOM      7  C   UNL     1       5.298   5.699  16.422  0.00  0.00    +0.000 A 
ATOM      8  C   UNL     1       4.426   6.760  16.691  0.00  0.00    +0.000 A 
ATOM      9  C   UNL     1       3.665   6.830  17.856  0.00  0.00    +0.000 A 
ATOM     10  N   UNL     1       2.836   7.888  18.071  0.00  0.00    +0.000 NA
ATOM     11  C   UNL     1       2.127   7.896  19.234  0.00  0.00    +0.000 A 
ATOM     12  C   UNL     1       2.165   6.878  20.162  0.00  0.00    +0.000 A 
ATOM     13  C   UNL     1       2.945   5.787  19.891  0.00  0.00    +0.000 A 
ATOM     14  C   UNL     1       3.795   5.751  18.777  0.00  0.00    +0.000 A 
BRANCH   5  15
ATOM     15  O   UNL     1       5.028   3.677  19.404  0.00  0.00    +0.000 OA
BRANCH  15  16
ATOM     16  C   UNL     1       4.382   2.424  19.154  0.00  0.00    +0.000 C 
BRANCH  16  19
ATOM     17  C   UNL     1       1.580   2.639  21.636  0.00  0.00    +0.000 C 
ATOM     18  N   UNL     1       2.865   2.560  21.008  0.00  0.00    +0.000 N 
ATOM     19  C   UNL     1       2.969   2.349  19.663  0.00  0.00    +0.000 C 
ATOM     20  O   UNL     1       2.003   2.155  18.914  0.00  0.00    +0.000 OA
ATOM     21  H   UNL     1       3.719   2.720  21.525  0.00  0.00    +0.000 HD
ENDBRANCH  16  19
ENDBRANCH  15  16
ENDBRANCH   5  15
ENDBRANCH   1  11
BRANCH   3  22
ATOM     22  C   UNL     1      -0.382  10.682  18.665  0.00  0.00    +0.000 A 
ATOM     23  C   UNL     1      -0.286  11.801  19.501  0.00  0.00    +0.000 A 
ATOM     24  C   UNL     1      -1.354  12.671  19.674  0.00  0.00    +0.000 A 
ATOM     25  C   UNL     1      -2.566  12.403  19.055  0.00  0.00    +0.000 A 
ATOM     26  C   UNL     1      -2.721  11.275  18.230  0.00  0.00    +0.000 A 
ATOM     27  C   UNL     1      -1.595  10.445  18.005  0.00  0.00    +0.000 A 
BRANCH  26  28
ATOM     28  C   UNL     1      -4.093  10.868  17.688  0.00  0.00    +0.000 C 
ATOM     29  C   UNL     1      -4.191  10.882  16.156  0.00  0.00    +0.000 C 
BRANCH  28  30
ATOM     30  S   UNL     1      -5.342  12.049  18.372  0.00  0.00    +0.000 S 
BRANCH  30  31
ATOM     31  C   UNL     1      -6.363  11.002  19.286  0.00  0.00    +0.000 A 
ATOM     32  N   UNL     1      -6.565   9.721  19.078  0.00  0.00    +0.000 NA
ATOM     33  N   UNL     1      -7.451   9.278  20.038  0.00  0.00    +0.000 NA
ATOM     34  C   UNL     1      -7.754  10.302  20.801  0.00  0.00    +0.000 A 
ATOM     35  N   UNL     1      -7.109  11.415  20.352  0.00  0.00    +0.000 N 
ATOM     36  C   UNL     1      -7.258  12.740  20.889  0.00  0.00    +0.000 C 
ENDBRANCH  30  31
ENDBRANCH  28  30
ENDBRANCH  26  28
ENDBRANCH   3  22
TORSDOF 8
ENDMDL
MODEL 2
REMARK VINA RESULT:      -8.6      7.297     11.241
REMARK  Name = 
REMARK  11 active torsions:
REMARK  status: ('A' for Active; 'I' for Inactive)
REMARK    1  A    between atoms: C_1  and  N_2
REMARK    2  A    between atoms: C_3  and  C_5
REMARK    3  A    between atoms: C_5  and  O_6
REMARK    4  A    between atoms: O_6  and  C_7
REMARK    5  A    between atoms: C_13  and  C_14
REMARK    6  A    between atoms: N_16  and  C_17
REMARK    7  A    between atoms: C_21  and  C_22
REMARK    8  A    between atoms: C_22  and  C_23
REMARK    9  A    between atoms: C_22  and  S_24
REMARK   10  A    between atoms: S_24  and  C_25
REMARK   11  A    between atoms: N_29  and  C_30
REMARK                            x       y       z     vdW  Elec       q    Type
REMARK                         _______ _______ _______ _____ _____    ______ ____
ROOT
ATOM      1  C   UNL     1       7.954   7.964  18.162  0.00  0.00    +0.000 C 
ATOM      2  O   UNL     1       8.430   7.096  18.894  0.00  0.00    +0.000 OA
ATOM      3  N   UNL     1       6.966   7.758  17.219  0.00  0.00    +0.000 N 
ATOM      4  H   UNL     1       6.588   8.583  16.766  0.00  0.00    +0.000 HD
ENDROOT
BRANCH   1  11
ATOM      5  C   UNL     1       9.904  13.258  18.518  0.00  0.00    +0.000 A 
ATOM      6  C   UNL     1      10.792  13.604  19.539  0.00  0.00    +0.000 A 
ATOM      7  C   UNL     1      11.197  12.643  20.455  0.00  0.00    +0.000 A 
ATOM      8  C   UNL     1      10.720  11.332  20.347  0.00  0.00    +0.000 A 
ATOM      9  C   UNL     1       9.812  10.942  19.364  0.00  0.00    +0.000 A 
ATOM     10  N   UNL     1       9.384   9.652  19.302  0.00  0.00    +0.000 NA
ATOM     11  C   UNL     1       8.503   9.336  18.312  0.00  0.00    +0.000 A 
ATOM     12  C   UNL     1       7.991  10.254  17.420  0.00  0.00    +0.000 A 
ATOM     13  C   UNL     1       8.375  11.561  17.549  0.00  0.00    +0.000 A 
ATOM     14  C   UNL     1       9.365  11.949  18.463  0.00  0.00    +0.000 A 
BRANCH   5  15
ATOM     15  O   UNL     1       9.634  14.288  17.643  0.00  0.00    +0.000 OA
BRANCH  15  16
ATOM     16  C   UNL     1      10.720  15.161  17.312  0.00  0.00    +0.000 C 
BRANCH  16  19
ATOM     17  C   UNL     1       8.836  18.190  18.467  0.00  0.00    +0.000 C 
ATOM     18  N   UNL     1       9.229  16.855  18.129  0.00  0.00    +0.000 N 
ATOM     19  C   UNL     1      10.403  16.622  17.471  0.00  0.00    +0.000 C 
ATOM     20  O   UNL     1      11.165  17.513  17.074  0.00  0.00    +0.000 OA
ATOM     21  H   UNL     1       8.688  16.052  18.420  0.00  0.00    +0.000 HD
ENDBRANCH  16  19
ENDBRANCH  15  16
ENDBRANCH   5  15
ENDBRANCH   1  11
BRANCH   3  22
ATOM     22  C   UNL     1       6.501   6.477  16.830  0.00  0.00    +0.000 A 
ATOM     23  C   UNL     1       7.078   5.762  15.773  0.00  0.00    +0.000 A 
ATOM     24  C   UNL     1       6.572   4.535  15.366  0.00  0.00    +0.000 A 
ATOM     25  C   UNL     1       5.434   4.025  15.974  0.00  0.00    +0.000 A 
ATOM     26  C   UNL     1       4.800   4.720  17.018  0.00  0.00    +0.000 A 
ATOM     27  C   UNL     1       5.380   5.931  17.470  0.00  0.00    +0.000 A 
BRANCH  26  28
ATOM     28  C   UNL     1       3.449   4.264  17.573  0.00  0.00    +0.000 C 
ATOM     29  C   UNL     1       2.929   5.119  18.737  0.00  0.00    +0.000 C 
BRANCH  28  30
ATOM     30  S   UNL     1       3.641   2.520  18.159  0.00  0.00    +0.000 S 
BRANCH  30  31
ATOM     31  C   UNL     1       2.917   2.585  19.723  0.00  0.00    +0.000 A 
ATOM     32  N   UNL     1       3.540   2.676  20.875  0.00  0.00    +0.000 NA
ATOM     33  N   UNL     1       2.582   2.697  21.867  0.00  0.00    +0.000 NA
ATOM     34  C   UNL     1       1.408   2.624  21.285  0.00  0.00    +0.000 A 
ATOM     35  N   UNL     1       1.570   2.529  19.935  0.00  0.00    +0.000 N 
ATOM     36  C   UNL     1       0.512   2.354  18.977  0.00  0.00    +0.000 C 
ENDBRANCH  30  31
ENDBRANCH  28  30
ENDBRANCH  26  28
ENDBRANCH   3  22
TORSDOF 8
ENDMDL
MODEL 3
REMARK VINA RESULT:      -8.4      2.325      3.047
REMARK  Name = 
REMARK  11 active torsions:
REMARK  status: ('A' for Active; 'I' for Inactive)
REMARK    1  A    between atoms: C_1  and  N_2
REMARK    2  A    between atoms: C_3  and  C_5
REMARK    3  A    between atoms: C_5  and  O_6
REMARK    4  A    between atoms: O_6  and  C_7
REMARK    5  A    between atoms: C_13  and  C_14
REMARK    6  A    between atoms: N_16  and  C_17
REMARK    7  A    between atoms: C_21  and  C_22
REMARK    8  A    between atoms: C_22  and  C_23
REMARK    9  A    between atoms: C_22  and  S_24
REMARK   10  A    between atoms: S_24  and  C_25
REMARK   11  A    between atoms: N_29  and  C_30
REMARK                            x       y       z     vdW  Elec       q    Type
REMARK                         _______ _______ _______ _____ _____    ______ ____
ROOT
ATOM      1  C   UNL     1       1.705   9.223  18.196  0.00  0.00    +0.000 C 
ATOM      2  O   UNL     1       2.162  10.260  17.714  0.00  0.00    +0.000 OA
ATOM      3  N   UNL     1       0.436   9.081  18.723  0.00  0.00    +0.000 N 
ATOM      4  H   UNL     1       0.151   8.142  18.982  0.00  0.00    +0.000 HD
ENDROOT
BRANCH   1  11
ATOM      5  C   UNL     1       5.027   4.659  18.488  0.00  0.00    +0.000 A 
ATOM      6  C   UNL     1       5.920   4.383  17.451  0.00  0.00    +0.000 A 
ATOM      7  C   UNL     1       5.992   5.235  16.358  0.00  0.00    +0.000 A 
ATOM      8  C   UNL     1       5.176   6.370  16.304  0.00  0.00    +0.000 A 
ATOM      9  C   UNL     1       4.250   6.677  17.299  0.00  0.00    +0.000 A 
ATOM     10  N   UNL     1       3.484   7.798  17.200  0.00  0.00    +0.000 NA
ATOM     11  C   UNL     1       2.605   8.042  18.211  0.00  0.00    +0.000 A 
ATOM     12  C   UNL     1       2.417   7.197  19.284  0.00  0.00    +0.000 A 
ATOM     13  C   UNL     1       3.141   6.037  19.326  0.00  0.00    +0.000 A 
ATOM     14  C   UNL     1       4.149   5.768  18.389  0.00  0.00    +0.000 A 
BRANCH   5  15
ATOM     15  O   UNL     1       5.102   3.771  19.538  0.00  0.00    +0.000 OA
BRANCH  15  16
ATOM     16  C   UNL     1       4.502   2.485  19.345  0.00  0.00    +0.000 C 
BRANCH  16  19
ATOM     17  C   UNL     1       1.514   2.828  21.584  0.00  0.00    +0.000 C 
ATOM     18  N   UNL     1       2.845   2.732  21.063  0.00  0.00    +0.000 N 
ATOM     19  C   UNL     1       3.056   2.414  19.752  0.00  0.00    +0.000 C 
ATOM     20  O   UNL     1       2.154   2.134  18.952  0.00  0.00    +0.000 OA
ATOM     21  H   UNL     1       3.653   2.957  21.627  0.00  0.00    +0.000 HD
ENDBRANCH  16  19
ENDBRANCH  15  16
ENDBRANCH   5  15
ENDBRANCH   1  11
BRANCH   3  22
ATOM     22  C   UNL     1      -0.448  10.165  18.959  0.00  0.00    +0.000 A 
ATOM     23  C   UNL     1      -1.253  10.705  17.950  0.00  0.00    +0.000 A 
ATOM     24  C   UNL     1      -2.069  11.804  18.183  0.00  0.00    +0.000 A 
ATOM     25  C   UNL     1      -2.049  12.424  19.423  0.00  0.00    +0.000 A 
ATOM     26  C   UNL     1      -1.234  11.937  20.460  0.00  0.00    +0.000 A 
ATOM     27  C   UNL     1      -0.470  10.768  20.224  0.00  0.00    +0.000 A 
BRANCH  26  28
ATOM     28  C   UNL     1      -1.064  12.712  21.769  0.00  0.00    +0.000 C 
ATOM     29  C   UNL     1      -1.291  11.867  23.031  0.00  0.00    +0.000 C 
BRANCH  28  30
ATOM     30  S   UNL     1      -2.280  14.105  21.762  0.00  0.00    +0.000 S 
BRANCH  30  31
ATOM     31  C   UNL     1      -3.611  13.425  22.622  0.00  0.00    +0.000 A 
ATOM     32  N   UNL     1      -4.524  12.611  22.143  0.00  0.00    +0.000 NA
ATOM     33  N   UNL     1      -5.397  12.315  23.169  0.00  0.00    +0.000 NA
ATOM     34  C   UNL     1      -4.983  12.954  24.239  0.00  0.00    +0.000 A 
ATOM     35  N   UNL     1      -3.873  13.683  23.937  0.00  0.00    +0.000 N 
ATOM     36  C   UNL     1      -3.186  14.570  24.836  0.00  0.00    +0.000 C 
ENDBRANCH  30  31
ENDBRANCH  28  30
ENDBRANCH  26  28
ENDBRANCH   3  22
TORSDOF 8
ENDMDL
MODEL 4
REMARK VINA RESULT:      -8.4      2.179      3.563
REMARK  Name = 
REMARK  11 active torsions:
REMARK  status: ('A' for Active; 'I' for Inactive)
REMARK    1  A    between atoms: C_1  and  N_2
REMARK    2  A    between atoms: C_3  and  C_5
REMARK    3  A    between atoms: C_5  and  O_6
REMARK    4  A    between atoms: O_6  and  C_7
REMARK    5  A    between atoms: C_13  and  C_14
REMARK    6  A    between atoms: N_16  and  C_17
REMARK    7  A    between atoms: C_21  and  C_22
REMARK    8  A    between atoms: C_22  and  C_23
REMARK    9  A    between atoms: C_22  and  S_24
REMARK   10  A    between atoms: S_24  and  C_25
REMARK   11  A    between atoms: N_29  and  C_30
REMARK                            x       y       z     vdW  Elec       q    Type
REMARK                         _______ _______ _______ _____ _____    ______ ____
ROOT
ATOM      1  C   UNL     1       1.129   9.175  20.019  0.00  0.00    +0.000 C 
ATOM      2  O   UNL     1       0.742   9.009  21.176  0.00  0.00    +0.000 OA
ATOM      3  N   UNL     1       0.886  10.297  19.250  0.00  0.00    +0.000 N 
ATOM      4  H   UNL     1       1.360  10.349  18.355  0.00  0.00    +0.000 HD
ENDROOT
BRANCH   1  11
ATOM      5  C   UNL     1       4.137   5.110  17.494  0.00  0.00    +0.000 A 
ATOM      6  C   UNL     1       4.373   3.905  18.160  0.00  0.00    +0.000 A 
ATOM      7  C   UNL     1       3.859   3.710  19.435  0.00  0.00    +0.000 A 
ATOM      8  C   UNL     1       3.103   4.718  20.043  0.00  0.00    +0.000 A 
ATOM      9  C   UNL     1       2.861   5.948  19.434  0.00  0.00    +0.000 A 
ATOM     10  N   UNL     1       2.114   6.891  20.068  0.00  0.00    +0.000 NA
ATOM     11  C   UNL     1       1.910   8.067  19.412  0.00  0.00    +0.000 A 
ATOM     12  C   UNL     1       2.459   8.365  18.184  0.00  0.00    +0.000 A 
ATOM     13  C   UNL     1       3.271   7.432  17.597  0.00  0.00    +0.000 A 
ATOM     14  C   UNL     1       3.437   6.154  18.148  0.00  0.00    +0.000 A 
BRANCH   5  15
ATOM     15  O   UNL     1       4.648   5.147  16.215  0.00  0.00    +0.000 OA
BRANCH  15  16
ATOM     16  C   UNL     1       6.044   5.434  16.081  0.00  0.00    +0.000 C 
BRANCH  16  19
ATOM     17  C   UNL     1       6.235   3.546  12.848  0.00  0.00    +0.000 C 
ATOM     18  N   UNL     1       5.848   4.049  14.132  0.00  0.00    +0.000 N 
ATOM     19  C   UNL     1       6.662   4.906  14.817  0.00  0.00    +0.000 C 
ATOM     20  O   UNL     1       7.784   5.257  14.429  0.00  0.00    +0.000 OA
ATOM     21  H   UNL     1       4.945   3.839  14.535  0.00  0.00    +0.000 HD
ENDBRANCH  16  19
ENDBRANCH  15  16
ENDBRANCH   5  15
ENDBRANCH   1  11
BRANCH   3  22
ATOM     22  C   UNL     1      -0.009  11.332  19.623  0.00  0.00    +0.000 A 
ATOM     23  C   UNL     1       0.389  12.414  20.418  0.00  0.00    +0.000 A 
ATOM     24  C   UNL     1      -0.513  13.387  20.823  0.00  0.00    +0.000 A 
ATOM     25  C   UNL     1      -1.853  13.264  20.487  0.00  0.00    +0.000 A 
ATOM     26  C   UNL     1      -2.308  12.179  19.717  0.00  0.00    +0.000 A 
ATOM     27  C   UNL     1      -1.356  11.241  19.248  0.00  0.00    +0.000 A 
BRANCH  26  28
ATOM     28  C   UNL     1      -3.801  11.933  19.493  0.00  0.00    +0.000 C 
ATOM     29  C   UNL     1      -4.196  11.776  18.017  0.00  0.00    +0.000 C 
BRANCH  28  30
ATOM     30  S   UNL     1      -4.723  13.371  20.202  0.00  0.00    +0.000 S 
BRANCH  30  31
ATOM     31  C   UNL     1      -5.980  12.590  21.088  0.00  0.00    +0.000 A 
ATOM     32  N   UNL     1      -5.951  12.240  22.353  0.00  0.00    +0.000 NA
ATOM     33  N   UNL     1      -7.160  11.647  22.650  0.00  0.00    +0.000 NA
ATOM     34  C   UNL     1      -7.887  11.662  21.557  0.00  0.00    +0.000 A 
ATOM     35  N   UNL     1      -7.177  12.227  20.541  0.00  0.00    +0.000 N 
ATOM     36  C   UNL     1      -7.618  12.345  19.177  0.00  0.00    +0.000 C 
ENDBRANCH  30  31
ENDBRANCH  28  30
ENDBRANCH  26  28
ENDBRANCH   3  22
TORSDOF 8
ENDMDL
MODEL 5
REMARK VINA RESULT:      -8.4      3.112      4.558
REMARK  Name = 
REMARK  11 active torsions:
REMARK  status: ('A' for Active; 'I' for Inactive)
REMARK    1  A    between atoms: C_1  and  N_2
REMARK    2  A    between atoms: C_3  and  C_5
REMARK    3  A    between atoms: C_5  and  O_6
REMARK    4  A    between atoms: O_6  and  C_7
REMARK    5  A    between atoms: C_13  and  C_14
REMARK    6  A    between atoms: N_16  and  C_17
REMARK    7  A    between atoms: C_21  and  C_22
REMARK    8  A    between atoms: C_22  and  C_23
REMARK    9  A    between atoms: C_22  and  S_24
REMARK   10  A    between atoms: S_24  and  C_25
REMARK   11  A    between atoms: N_29  and  C_30
REMARK                            x       y       z     vdW  Elec       q    Type
REMARK                         _______ _______ _______ _____ _____    ______ ____
ROOT
ATOM      1  C   UNL     1       1.124   8.779  19.535  0.00  0.00    +0.000 C 
ATOM      2  O   UNL     1       0.830   8.730  20.730  0.00  0.00    +0.000 OA
ATOM      3  N   UNL     1       0.579   9.653  18.615  0.00  0.00    +0.000 N 
ATOM      4  H   UNL     1       0.994   9.661  17.690  0.00  0.00    +0.000 HD
ENDROOT
BRANCH   1  11
ATOM      5  C   UNL     1       5.037   5.236  17.512  0.00  0.00    +0.000 A 
ATOM      6  C   UNL     1       5.346   4.069  18.214  0.00  0.00    +0.000 A 
ATOM      7  C   UNL     1       4.684   3.782  19.400  0.00  0.00    +0.000 A 
ATOM      8  C   UNL     1       3.706   4.659  19.882  0.00  0.00    +0.000 A 
ATOM      9  C   UNL     1       3.379   5.849  19.235  0.00  0.00    +0.000 A 
ATOM     10  N   UNL     1       2.416   6.663  19.745  0.00  0.00    +0.000 NA
ATOM     11  C   UNL     1       2.141   7.807  19.058  0.00  0.00    +0.000 A 
ATOM     12  C   UNL     1       2.815   8.200  17.923  0.00  0.00    +0.000 A 
ATOM     13  C   UNL     1       3.833   7.405  17.470  0.00  0.00    +0.000 A 
ATOM     14  C   UNL     1       4.102   6.157  18.048  0.00  0.00    +0.000 A 
BRANCH   5  15
ATOM     15  O   UNL     1       5.719   5.367  16.323  0.00  0.00    +0.000 OA
BRANCH  15  16
ATOM     16  C   UNL     1       6.171   4.162  15.696  0.00  0.00    +0.000 C 
BRANCH  16  19
ATOM     17  C   UNL     1       6.639   3.570  12.024  0.00  0.00    +0.000 C 
ATOM     18  N   UNL     1       6.286   3.453  13.407  0.00  0.00    +0.000 N 
ATOM     19  C   UNL     1       6.742   4.361  14.320  0.00  0.00    +0.000 C 
ATOM     20  O   UNL     1       7.516   5.288  14.050  0.00  0.00    +0.000 OA
ATOM     21  H   UNL     1       5.646   2.742  13.733  0.00  0.00    +0.000 HD
ENDBRANCH  16  19
ENDBRANCH  15  16
ENDBRANCH   5  15
ENDBRANCH   1  11
BRANCH   3  22
ATOM     22  C   UNL     1      -0.537  10.487  18.882  0.00  0.00    +0.000 A 
ATOM     23  C   UNL     1      -1.708  10.434  18.117  0.00  0.00    +0.000 A 
ATOM     24  C   UNL     1      -2.769  11.298  18.354  0.00  0.00    +0.000 A 
ATOM     25  C   UNL     1      -2.652  12.278  19.329  0.00  0.00    +0.000 A 
ATOM     26  C   UNL     1      -1.484  12.391  20.102  0.00  0.00    +0.000 A 
ATOM     27  C   UNL     1      -0.447  11.448  19.897  0.00  0.00    +0.000 A 
BRANCH  26  28
ATOM     28  C   UNL     1      -1.269  13.573  21.051  0.00  0.00    +0.000 C 
ATOM     29  C   UNL     1      -0.685  13.182  22.417  0.00  0.00    +0.000 C 
BRANCH  28  30
ATOM     30  S   UNL     1      -2.908  14.386  21.319  0.00  0.00    +0.000 S 
BRANCH  30  31
ATOM     31  C   UNL     1      -3.506  13.544  22.699  0.00  0.00    +0.000 A 
ATOM     32  N   UNL     1      -4.034  12.342  22.720  0.00  0.00    +0.000 NA
ATOM     33  N   UNL     1      -4.377  12.059  24.026  0.00  0.00    +0.000 NA
ATOM     34  C   UNL     1      -4.041  13.096  24.757  0.00  0.00    +0.000 A 
ATOM     35  N   UNL     1      -3.508  14.066  23.961  0.00  0.00    +0.000 N 
ATOM     36  C   UNL     1      -3.099  15.373  24.397  0.00  0.00    +0.000 C 
ENDBRANCH  30  31
ENDBRANCH  28  30
ENDBRANCH  26  28
ENDBRANCH   3  22
TORSDOF 8
ENDMDL
MODEL 6
REMARK VINA RESULT:      -8.3      3.993      6.648
REMARK  Name = 
REMARK  11 active torsions:
REMARK  status: ('A' for Active; 'I' for Inactive)
REMARK    1  A    between atoms: C_1  and  N_2
REMARK    2  A    between atoms: C_3  and  C_5
REMARK    3  A    between atoms: C_5  and  O_6
REMARK    4  A    between atoms: O_6  and  C_7
REMARK    5  A    between atoms: C_13  and  C_14
REMARK    6  A    between atoms: N_16  and  C_17
REMARK    7  A    between atoms: C_21  and  C_22
REMARK    8  A    between atoms: C_22  and  C_23
REMARK    9  A    between atoms: C_22  and  S_24
REMARK   10  A    between atoms: S_24  and  C_25
REMARK   11  A    between atoms: N_29  and  C_30
REMARK                            x       y       z     vdW  Elec       q    Type
REMARK                         _______ _______ _______ _____ _____    ______ ____
ROOT
ATOM      1  C   UNL     1       1.442   8.986  19.739  0.00  0.00    +0.000 C 
ATOM      2  O   UNL     1       1.188   8.968  20.943  0.00  0.00    +0.000 OA
ATOM      3  N   UNL     1       1.113  10.007  18.869  0.00  0.00    +0.000 N 
ATOM      4  H   UNL     1       1.483   9.942  17.927  0.00  0.00    +0.000 HD
ENDROOT
BRANCH   1  11
ATOM      5  C   UNL     1       4.201   4.624  17.433  0.00  0.00    +0.000 A 
ATOM      6  C   UNL     1       4.322   3.426  18.141  0.00  0.00    +0.000 A 
ATOM      7  C   UNL     1       3.755   3.311  19.403  0.00  0.00    +0.000 A 
ATOM      8  C   UNL     1       3.061   4.393  19.956  0.00  0.00    +0.000 A 
ATOM      9  C   UNL     1       2.935   5.618  19.304  0.00  0.00    +0.000 A 
ATOM     10  N   UNL     1       2.245   6.635  19.886  0.00  0.00    +0.000 NA
ATOM     11  C   UNL     1       2.154   7.803  19.190  0.00  0.00    +0.000 A 
ATOM     12  C   UNL     1       2.762   8.018  17.973  0.00  0.00    +0.000 A 
ATOM     13  C   UNL     1       3.516   7.008  17.441  0.00  0.00    +0.000 A 
ATOM     14  C   UNL     1       3.565   5.739  18.033  0.00  0.00    +0.000 A 
BRANCH   5  15
ATOM     15  O   UNL     1       4.752   4.582  16.171  0.00  0.00    +0.000 OA
BRANCH  15  16
ATOM     16  C   UNL     1       6.131   4.207  16.076  0.00  0.00    +0.000 C 
BRANCH  16  19
ATOM     17  C   UNL     1       6.637   3.666  12.401  0.00  0.00    +0.000 C 
ATOM     18  N   UNL     1       6.258   3.536  13.777  0.00  0.00    +0.000 N 
ATOM     19  C   UNL     1       6.731   4.410  14.713  0.00  0.00    +0.000 C 
ATOM     20  O   UNL     1       7.542   5.314  14.472  0.00  0.00    +0.000 OA
ATOM     21  H   UNL     1       5.587   2.843  14.079  0.00  0.00    +0.000 HD
ENDBRANCH  16  19
ENDBRANCH  15  16
ENDBRANCH   5  15
ENDBRANCH   1  11
BRANCH   3  22
ATOM     22  C   UNL     1       0.263  11.090  19.209  0.00  0.00    +0.000 A 
ATOM     23  C   UNL     1      -1.125  10.944  19.322  0.00  0.00    +0.000 A 
ATOM     24  C   UNL     1      -1.949  12.027  19.596  0.00  0.00    +0.000 A 
ATOM     25  C   UNL     1      -1.401  13.296  19.704  0.00  0.00    +0.000 A 
ATOM     26  C   UNL     1      -0.017  13.499  19.568  0.00  0.00    +0.000 A 
ATOM     27  C   UNL     1       0.813  12.369  19.367  0.00  0.00    +0.000 A 
BRANCH  26  28
ATOM     28  C   UNL     1       0.578  14.908  19.504  0.00  0.00    +0.000 C 
ATOM     29  C   UNL     1      -0.287  15.919  18.737  0.00  0.00    +0.000 C 
BRANCH  28  30
ATOM     30  S   UNL     1       2.225  14.786  18.672  0.00  0.00    +0.000 S 
BRANCH  30  31
ATOM     31  C   UNL     1       3.117  16.036  19.456  0.00  0.00    +0.000 A 
ATOM     32  N   UNL     1       3.121  17.313  19.147  0.00  0.00    +0.000 NA
ATOM     33  N   UNL     1       3.969  17.952  20.027  0.00  0.00    +0.000 NA
ATOM     34  C   UNL     1       4.449  17.045  20.845  0.00  0.00    +0.000 A 
ATOM     35  N   UNL     1       3.957  15.819  20.510  0.00  0.00    +0.000 N 
ATOM     36  C   UNL     1       4.319  14.575  21.133  0.00  0.00    +0.000 C 
ENDBRANCH  30  31
ENDBRANCH  28  30
ENDBRANCH  26  28
ENDBRANCH   3  22
TORSDOF 8
ENDMDL
MODEL 7
REMARK VINA RESULT:      -8.2      2.733      3.493
REMARK  Name = 
REMARK  11 active torsions:
REMARK  status: ('A' for Active; 'I' for Inactive)
REMARK    1  A    between atoms: C_1  and  N_2
REMARK    2  A    between atoms: C_3  and  C_5
REMARK    3  A    between atoms: C_5  and  O_6
REMARK    4  A    between atoms: O_6  and  C_7
REMARK    5  A    between atoms: C_13  and  C_14
REMARK    6  A    between atoms: N_16  and  C_17
REMARK    7  A    between atoms: C_21  and  C_22
REMARK    8  A    between atoms: C_22  and  C_23
REMARK    9  A    between atoms: C_22  and  S_24
REMARK   10  A    between atoms: S_24  and  C_25
REMARK   11  A    between atoms: N_29  and  C_30
REMARK                            x       y       z     vdW  Elec       q    Type
REMARK                         _______ _______ _______ _____ _____    ______ ____
ROOT
ATOM      1  C   UNL     1       1.767   9.164  18.020  0.00  0.00    +0.000 C 
ATOM      2  O   UNL     1       2.212  10.176  17.478  0.00  0.00    +0.000 OA
ATOM      3  N   UNL     1       0.503   9.040  18.562  0.00  0.00    +0.000 N 
ATOM      4  H   UNL     1       0.229   8.114  18.875  0.00  0.00    +0.000 HD
ENDROOT
BRANCH   1  11
ATOM      5  C   UNL     1       5.123   4.644  18.537  0.00  0.00    +0.000 A 
ATOM      6  C   UNL     1       6.068   4.364  17.548  0.00  0.00    +0.000 A 
ATOM      7  C   UNL     1       6.184   5.203  16.448  0.00  0.00    +0.000 A 
ATOM      8  C   UNL     1       5.358   6.327  16.339  0.00  0.00    +0.000 A 
ATOM      9  C   UNL     1       4.381   6.637  17.283  0.00  0.00    +0.000 A 
ATOM     10  N   UNL     1       3.609   7.746  17.131  0.00  0.00    +0.000 NA
ATOM     11  C   UNL     1       2.679   7.994  18.095  0.00  0.00    +0.000 A 
ATOM     12  C   UNL     1       2.448   7.161  19.169  0.00  0.00    +0.000 A 
ATOM     13  C   UNL     1       3.183   6.010  19.262  0.00  0.00    +0.000 A 
ATOM     14  C   UNL     1       4.238   5.740  18.380  0.00  0.00    +0.000 A 
BRANCH   5  15
ATOM     15  O   UNL     1       5.156   3.770  19.601  0.00  0.00    +0.000 OA
BRANCH  15  16
ATOM     16  C   UNL     1       4.503   2.508  19.427  0.00  0.00    +0.000 C 
BRANCH  16  19
ATOM     17  C   UNL     1       0.804   2.287  18.858  0.00  0.00    +0.000 C 
ATOM     18  N   UNL     1       2.221   2.411  18.692  0.00  0.00    +0.000 N 
ATOM     19  C   UNL     1       3.041   2.519  19.779  0.00  0.00    +0.000 C 
ATOM     20  O   UNL     1       2.640   2.577  20.948  0.00  0.00    +0.000 OA
ATOM     21  H   UNL     1       2.655   2.358  17.781  0.00  0.00    +0.000 HD
ENDBRANCH  16  19
ENDBRANCH  15  16
ENDBRANCH   5  15
ENDBRANCH   1  11
BRANCH   3  22
ATOM     22  C   UNL     1      -0.389  10.126  18.743  0.00  0.00    +0.000 A 
ATOM     23  C   UNL     1      -1.297  10.521  17.753  0.00  0.00    +0.000 A 
ATOM     24  C   UNL     1      -2.122  11.624  17.922  0.00  0.00    +0.000 A 
ATOM     25  C   UNL     1      -2.013  12.393  19.071  0.00  0.00    +0.000 A 
ATOM     26  C   UNL     1      -1.095  12.056  20.081  0.00  0.00    +0.000 A 
ATOM     27  C   UNL     1      -0.319  10.882  19.921  0.00  0.00    +0.000 A 
BRANCH  26  28
ATOM     28  C   UNL     1      -0.835  12.992  21.264  0.00  0.00    +0.000 C 
ATOM     29  C   UNL     1       0.600  13.533  21.331  0.00  0.00    +0.000 C 
BRANCH  28  30
ATOM     30  S   UNL     1      -1.185  12.048  22.816  0.00  0.00    +0.000 S 
BRANCH  30  31
ATOM     31  C   UNL     1      -2.674  12.747  23.333  0.00  0.00    +0.000 A 
ATOM     32  N   UNL     1      -3.881  12.273  23.123  0.00  0.00    +0.000 NA
ATOM     33  N   UNL     1      -4.778  13.144  23.706  0.00  0.00    +0.000 NA
ATOM     34  C   UNL     1      -4.087  14.115  24.256  0.00  0.00    +0.000 A 
ATOM     35  N   UNL     1      -2.758  13.919  24.028  0.00  0.00    +0.000 N 
ATOM     36  C   UNL     1      -1.703  14.818  24.412  0.00  0.00    +0.000 C 
ENDBRANCH  30  31
ENDBRANCH  28  30
ENDBRANCH  26  28
ENDBRANCH   3  22
TORSDOF 8
ENDMDL
MODEL 8
REMARK VINA RESULT:      -8.2      2.235      2.455
REMARK  Name = 
REMARK  11 active torsions:
REMARK  status: ('A' for Active; 'I' for Inactive)
REMARK    1  A    between atoms: C_1  and  N_2
REMARK    2  A    between atoms: C_3  and  C_5
REMARK    3  A    between atoms: C_5  and  O_6
REMARK    4  A    between atoms: O_6  and  C_7
REMARK    5  A    between atoms: C_13  and  C_14
REMARK    6  A    between atoms: N_16  and  C_17
REMARK    7  A    between atoms: C_21  and  C_22
REMARK    8  A    between atoms: C_22  and  C_23
REMARK    9  A    between atoms: C_22  and  S_24
REMARK   10  A    between atoms: S_24  and  C_25
REMARK   11  A    between atoms: N_29  and  C_30
REMARK                            x       y       z     vdW  Elec       q    Type
REMARK                         _______ _______ _______ _____ _____    ______ ____
ROOT
ATOM      1  C   UNL     1       1.987   9.513  18.238  0.00  0.00    +0.000 C 
ATOM      2  O   UNL     1       2.450  10.474  17.624  0.00  0.00    +0.000 OA
ATOM      3  N   UNL     1       0.905   9.561  19.095  0.00  0.00    +0.000 N 
ATOM      4  H   UNL     1       0.560   8.674  19.445  0.00  0.00    +0.000 HD
ENDROOT
BRANCH   1  11
ATOM      5  C   UNL     1       4.418   4.441  17.676  0.00  0.00    +0.000 A 
ATOM      6  C   UNL     1       5.359   4.230  16.666  0.00  0.00    +0.000 A 
ATOM      7  C   UNL     1       5.698   5.270  15.812  0.00  0.00    +0.000 A 
ATOM      8  C   UNL     1       5.101   6.525  15.971  0.00  0.00    +0.000 A 
ATOM      9  C   UNL     1       4.137   6.781  16.944  0.00  0.00    +0.000 A 
ATOM     10  N   UNL     1       3.592   8.023  17.058  0.00  0.00    +0.000 NA
ATOM     11  C   UNL     1       2.662   8.206  18.036  0.00  0.00    +0.000 A 
ATOM     12  C   UNL     1       2.213   7.200  18.865  0.00  0.00    +0.000 A 
ATOM     13  C   UNL     1       2.717   5.941  18.682  0.00  0.00    +0.000 A 
ATOM     14  C   UNL     1       3.761   5.692  17.780  0.00  0.00    +0.000 A 
BRANCH   5  15
ATOM     15  O   UNL     1       4.221   3.347  18.490  0.00  0.00    +0.000 OA
BRANCH  15  16
ATOM     16  C   UNL     1       3.164   2.450  18.129  0.00  0.00    +0.000 C 
BRANCH  16  19
ATOM     17  C   UNL     1       1.529   2.718  21.492  0.00  0.00    +0.000 C 
ATOM     18  N   UNL     1       2.475   2.648  20.419  0.00  0.00    +0.000 N 
ATOM     19  C   UNL     1       2.065   2.354  19.150  0.00  0.00    +0.000 C 
ATOM     20  O   UNL     1       0.898   2.075  18.845  0.00  0.00    +0.000 OA
ATOM     21  H   UNL     1       3.451   2.874  20.555  0.00  0.00    +0.000 HD
ENDBRANCH  16  19
ENDBRANCH  15  16
ENDBRANCH   5  15
ENDBRANCH   1  11
BRANCH   3  22
ATOM     22  C   UNL     1       0.299  10.765  19.536  0.00  0.00    +0.000 A 
ATOM     23  C   UNL     1       1.034  11.798  20.129  0.00  0.00    +0.000 A 
ATOM     24  C   UNL     1       0.417  12.945  20.610  0.00  0.00    +0.000 A 
ATOM     25  C   UNL     1      -0.964  13.054  20.558  0.00  0.00    +0.000 A 
ATOM     26  C   UNL     1      -1.749  12.031  20.000  0.00  0.00    +0.000 A 
ATOM     27  C   UNL     1      -1.092  10.905  19.444  0.00  0.00    +0.000 A 
BRANCH  26  28
ATOM     28  C   UNL     1      -3.276  12.055  20.099  0.00  0.00    +0.000 C 
ATOM     29  C   UNL     1      -3.994  11.924  18.748  0.00  0.00    +0.000 C 
BRANCH  28  30
ATOM     30  S   UNL     1      -3.766  13.659  20.877  0.00  0.00    +0.000 S 
BRANCH  30  31
ATOM     31  C   UNL     1      -4.439  13.141  22.377  0.00  0.00    +0.000 A 
ATOM     32  N   UNL     1      -3.906  12.293  23.227  0.00  0.00    +0.000 NA
ATOM     33  N   UNL     1      -4.777  12.165  24.289  0.00  0.00    +0.000 NA
ATOM     34  C   UNL     1      -5.808  12.943  24.053  0.00  0.00    +0.000 A 
ATOM     35  N   UNL     1      -5.649  13.563  22.849  0.00  0.00    +0.000 N 
ATOM     36  C   UNL     1      -6.609  14.429  22.222  0.00  0.00    +0.000 C 
ENDBRANCH  30  31
ENDBRANCH  28  30
ENDBRANCH  26  28
ENDBRANCH   3  22
TORSDOF 8
ENDMDL
MODEL 9
REMARK VINA RESULT:      -8.1      2.330      2.801
REMARK  Name = 
REMARK  11 active torsions:
REMARK  status: ('A' for Active; 'I' for Inactive)
REMARK    1  A    between atoms: C_1  and  N_2
REMARK    2  A    between atoms: C_3  and  C_5
REMARK    3  A    between atoms: C_5  and  O_6
REMARK    4  A    between atoms: O_6  and  C_7
REMARK    5  A    between atoms: C_13  and  C_14
REMARK    6  A    between atoms: N_16  and  C_17
REMARK    7  A    between atoms: C_21  and  C_22
REMARK    8  A    between atoms: C_22  and  C_23
REMARK    9  A    between atoms: C_22  and  S_24
REMARK   10  A    between atoms: S_24  and  C_25
REMARK   11  A    between atoms: N_29  and  C_30
REMARK                            x       y       z     vdW  Elec       q    Type
REMARK                         _______ _______ _______ _____ _____    ______ ____
ROOT
ATOM      1  C   UNL     1       1.789   9.259  18.451  0.00  0.00    +0.000 C 
ATOM      2  O   UNL     1       1.785   9.945  17.428  0.00  0.00    +0.000 OA
ATOM      3  N   UNL     1       1.094   9.549  19.608  0.00  0.00    +0.000 N 
ATOM      4  H   UNL     1       1.096   8.839  20.333  0.00  0.00    +0.000 HD
ENDROOT
BRANCH   1  11
ATOM      5  C   UNL     1       4.864   4.517  18.593  0.00  0.00    +0.000 A 
ATOM      6  C   UNL     1       5.665   4.176  17.501  0.00  0.00    +0.000 A 
ATOM      7  C   UNL     1       5.708   5.008  16.391  0.00  0.00    +0.000 A 
ATOM      8  C   UNL     1       4.954   6.187  16.374  0.00  0.00    +0.000 A 
ATOM      9  C   UNL     1       4.119   6.560  17.425  0.00  0.00    +0.000 A 
ATOM     10  N   UNL     1       3.412   7.721  17.359  0.00  0.00    +0.000 NA
ATOM     11  C   UNL     1       2.621   8.029  18.424  0.00  0.00    +0.000 A 
ATOM     12  C   UNL     1       2.461   7.211  19.522  0.00  0.00    +0.000 A 
ATOM     13  C   UNL     1       3.121   6.012  19.534  0.00  0.00    +0.000 A 
ATOM     14  C   UNL     1       4.044   5.672  18.535  0.00  0.00    +0.000 A 
BRANCH   5  15
ATOM     15  O   UNL     1       4.962   3.640  19.650  0.00  0.00    +0.000 OA
BRANCH  15  16
ATOM     16  C   UNL     1       4.280   2.387  19.521  0.00  0.00    +0.000 C 
BRANCH  16  19
ATOM     17  C   UNL     1       0.606   2.297  18.781  0.00  0.00    +0.000 C 
ATOM     18  N   UNL     1       2.033   2.365  18.680  0.00  0.00    +0.000 N 
ATOM     19  C   UNL     1       2.805   2.458  19.803  0.00  0.00    +0.000 C 
ATOM     20  O   UNL     1       2.352   2.549  20.951  0.00  0.00    +0.000 OA
ATOM     21  H   UNL     1       2.507   2.282  17.791  0.00  0.00    +0.000 HD
ENDBRANCH  16  19
ENDBRANCH  15  16
ENDBRANCH   5  15
ENDBRANCH   1  11
BRANCH   3  22
ATOM     22  C   UNL     1       0.432  10.781  19.844  0.00  0.00    +0.000 A 
ATOM     23  C   UNL     1       1.102  11.906  20.338  0.00  0.00    +0.000 A 
ATOM     24  C   UNL     1       0.428  13.086  20.620  0.00  0.00    +0.000 A 
ATOM     25  C   UNL     1      -0.949  13.144  20.469  0.00  0.00    +0.000 A 
ATOM     26  C   UNL     1      -1.672  12.030  20.006  0.00  0.00    +0.000 A 
ATOM     27  C   UNL     1      -0.953  10.863  19.649  0.00  0.00    +0.000 A 
BRANCH  26  28
ATOM     28  C   UNL     1      -3.202  12.018  20.007  0.00  0.00    +0.000 C 
ATOM     29  C   UNL     1      -3.828  11.821  18.619  0.00  0.00    +0.000 C 
BRANCH  28  30
ATOM     30  S   UNL     1      -3.778  13.636  20.693  0.00  0.00    +0.000 S 
BRANCH  30  31
ATOM     31  C   UNL     1      -4.011  13.258  22.359  0.00  0.00    +0.000 A 
ATOM     32  N   UNL     1      -4.722  12.268  22.849  0.00  0.00    +0.000 NA
ATOM     33  N   UNL     1      -4.638  12.336  24.224  0.00  0.00    +0.000 NA
ATOM     34  C   UNL     1      -3.875  13.361  24.525  0.00  0.00    +0.000 A 
ATOM     35  N   UNL     1      -3.474  13.985  23.382  0.00  0.00    +0.000 N 
ATOM     36  C   UNL     1      -2.693  15.191  23.318  0.00  0.00    +0.000 C 
ENDBRANCH  30  31
ENDBRANCH  28  30
ENDBRANCH  26  28
ENDBRANCH   3  22
TORSDOF 8
ENDMDL
