MODEL 1
REMARK VINA RESULT:      -7.4      0.000      0.000
REMARK  Name = 
REMARK  8 active torsions:
REMARK  status: ('A' for Active; 'I' for Inactive)
REMARK    1  A    between atoms: C_1  and  C_2
REMARK    2  A    between atoms: C_2  and  S_3
REMARK    3  A    between atoms: C_2  and  C_10
REMARK    4  A    between atoms: S_3  and  C_4
REMARK    5  A    between atoms: N_8  and  C_9
REMARK    6  A    between atoms: C_14  and  N_15
REMARK    7  A    between atoms: C_20  and  O_21
REMARK    8  A    between atoms: O_21  and  C_22
REMARK                            x       y       z     vdW  Elec       q    Type
REMARK                         _______ _______ _______ _____ _____    ______ ____
ROOT
ATOM      1  C   UNL     1       1.879   8.420  18.633  0.00  0.00    +0.000 A 
ATOM      2  C   UNL     1       1.627   8.004  19.950  0.00  0.00    +0.000 A 
ATOM      3  C   UNL     1       2.169   6.818  20.441  0.00  0.00    +0.000 A 
ATOM      4  C   UNL     1       2.952   6.008  19.620  0.00  0.00    +0.000 A 
ATOM      5  C   UNL     1       3.197   6.368  18.295  0.00  0.00    +0.000 A 
ATOM      6  C   UNL     1       2.676   7.583  17.818  0.00  0.00    +0.000 A 
ENDROOT
BRANCH   5   7
ATOM      7  N   UNL     1       3.948   5.564  17.408  0.00  0.00    +0.000 N 
ATOM      8  C   UNL     1       5.322   5.593  17.242  0.00  0.00    +0.000 C 
ATOM      9  O   UNL     1       6.109   6.303  17.859  0.00  0.00    +0.000 OA
ATOM     10  N   UNL     1       5.766   4.647  16.332  0.00  0.00    +0.000 N 
ATOM     11  C   UNL     1       7.178   4.456  15.996  0.00  0.00    +0.000 C 
ATOM     12  C   UNL     1       6.796   4.523  14.515  0.00  0.00    +0.000 C 
ATOM     13  C   UNL     1       5.317   4.513  14.946  0.00  0.00    +0.000 C 
ATOM     14  H   UNL     1       3.497   4.740  17.038  0.00  0.00    +0.000 HD
BRANCH  12  15
ATOM     15  O   UNL     1       7.273   5.689  13.808  0.00  0.00    +0.000 OA
BRANCH  15  16
ATOM     16  C   UNL     1       8.032   5.446  12.644  0.00  0.00    +0.000 C 
ATOM     17  F   UNL     1       7.607   4.334  12.010  0.00  0.00    +0.000 F 
ATOM     18  F   UNL     1       7.911   6.495  11.809  0.00  0.00    +0.000 F 
ATOM     19  F   UNL     1       9.324   5.291  12.982  0.00  0.00    +0.000 F 
ENDBRANCH  15  16
ENDBRANCH  12  15
ENDBRANCH   5   7
BRANCH   1  21
ATOM     20  C   UNL     1       2.351  10.859  17.972  0.00  0.00    +0.000 C 
ATOM     21  C   UNL     1       1.314   9.728  18.064  0.00  0.00    +0.000 C 
BRANCH  21  22
ATOM     22  S   UNL     1      -0.121  10.262  19.087  0.00  0.00    +0.000 S 
BRANCH  22  23
ATOM     23  C   UNL     1       0.507  11.612  19.968  0.00  0.00    +0.000 A 
ATOM     24  N   UNL     1       1.226  11.589  21.067  0.00  0.00    +0.000 NA
ATOM     25  N   UNL     1       1.438  12.896  21.448  0.00  0.00    +0.000 NA
ATOM     26  C   UNL     1       0.859  13.671  20.563  0.00  0.00    +0.000 A 
ATOM     27  N   UNL     1       0.284  12.902  19.592  0.00  0.00    +0.000 N 
ATOM     28  C   UNL     1      -0.406  13.383  18.427  0.00  0.00    +0.000 C 
ENDBRANCH  22  23
ENDBRANCH  21  22
ENDBRANCH   1  21
TORSDOF 6
ENDMDL
MODEL 2
REMARK VINA RESULT:      -7.3      1.754      2.480
REMARK  Name = 
REMARK  8 active torsions:
REMARK  status: ('A' for Active; 'I' for Inactive)
REMARK    1  A    between atoms: C_1  and  C_2
REMARK    2  A    between atoms: C_2  and  S_3
REMARK    3  A    between atoms: C_2  and  C_10
REMARK    4  A    between atoms: S_3  and  C_4
REMARK    5  A    between atoms: N_8  and  C_9
REMARK    6  A    between atoms: C_14  and  N_15
REMARK    7  A    between atoms: C_20  and  O_21
REMARK    8  A    between atoms: O_21  and  C_22
REMARK                            x       y       z     vdW  Elec       q    Type
REMARK                         _______ _______ _______ _____ _____    ______ ____
ROOT
ATOM      1  C   UNL     1       2.129   6.974  20.014  0.00  0.00    +0.000 A 
ATOM      2  C   UNL     1       1.478   6.024  20.817  0.00  0.00    +0.000 A 
ATOM      3  C   UNL     1       1.826   4.676  20.757  0.00  0.00    +0.000 A 
ATOM      4  C   UNL     1       2.814   4.243  19.874  0.00  0.00    +0.000 A 
ATOM      5  C   UNL     1       3.461   5.148  19.034  0.00  0.00    +0.000 A 
ATOM      6  C   UNL     1       3.128   6.511  19.126  0.00  0.00    +0.000 A 
ENDROOT
BRANCH   5   7
ATOM      7  N   UNL     1       4.438   4.757  18.091  0.00  0.00    +0.000 N 
ATOM      8  C   UNL     1       4.784   5.442  16.940  0.00  0.00    +0.000 C 
ATOM      9  O   UNL     1       4.316   6.514  16.569  0.00  0.00    +0.000 OA
ATOM     10  N   UNL     1       5.815   4.828  16.247  0.00  0.00    +0.000 N 
ATOM     11  C   UNL     1       6.382   5.365  15.009  0.00  0.00    +0.000 C 
ATOM     12  C   UNL     1       6.213   3.982  14.375  0.00  0.00    +0.000 C 
ATOM     13  C   UNL     1       5.820   3.447  15.765  0.00  0.00    +0.000 C 
ATOM     14  H   UNL     1       5.107   4.061  18.383  0.00  0.00    +0.000 HD
BRANCH  12  15
ATOM     15  O   UNL     1       5.220   3.902  13.329  0.00  0.00    +0.000 OA
BRANCH  15  16
ATOM     16  C   UNL     1       5.666   3.418  12.081  0.00  0.00    +0.000 C 
ATOM     17  F   UNL     1       6.835   3.990  11.727  0.00  0.00    +0.000 F 
ATOM     18  F   UNL     1       5.842   2.085  12.159  0.00  0.00    +0.000 F 
ATOM     19  F   UNL     1       4.743   3.692  11.143  0.00  0.00    +0.000 F 
ENDBRANCH  15  16
ENDBRANCH  12  15
ENDBRANCH   5   7
BRANCH   1  21
ATOM     20  C   UNL     1       0.585   8.791  20.972  0.00  0.00    +0.000 C 
ATOM     21  C   UNL     1       1.785   8.468  20.067  0.00  0.00    +0.000 C 
BRANCH  21  22
ATOM     22  S   UNL     1       1.477   9.078  18.358  0.00  0.00    +0.000 S 
BRANCH  22  23
ATOM     23  C   UNL     1       0.892  10.685  18.615  0.00  0.00    +0.000 A 
ATOM     24  N   UNL     1       1.566  11.725  19.051  0.00  0.00    +0.000 NA
ATOM     25  N   UNL     1       0.678  12.772  19.167  0.00  0.00    +0.000 NA
ATOM     26  C   UNL     1      -0.500  12.344  18.783  0.00  0.00    +0.000 A 
ATOM     27  N   UNL     1      -0.405  11.038  18.397  0.00  0.00    +0.000 N 
ATOM     28  C   UNL     1      -1.472  10.230  17.871  0.00  0.00    +0.000 C 
ENDBRANCH  22  23
ENDBRANCH  21  22
ENDBRANCH   1  21
TORSDOF 6
ENDMDL
MODEL 3
REMARK VINA RESULT:      -7.3      6.686      9.471
REMARK  Name = 
REMARK  8 active torsions:
REMARK  status: ('A' for Active; 'I' for Inactive)
REMARK    1  A    between atoms: C_1  and  C_2
REMARK    2  A    between atoms: C_2  and  S_3
REMARK    3  A    between atoms: C_2  and  C_10
REMARK    4  A    between atoms: S_3  and  C_4
REMARK    5  A    between atoms: N_8  and  C_9
REMARK    6  A    between atoms: C_14  and  N_15
REMARK    7  A    between atoms: C_20  and  O_21
REMARK    8  A    between atoms: O_21  and  C_22
REMARK                            x       y       z     vdW  Elec       q    Type
REMARK                         _______ _______ _______ _____ _____    ______ ____
ROOT
ATOM      1  C   UNL     1       6.357   6.094  17.338  0.00  0.00    +0.000 A 
ATOM      2  C   UNL     1       7.026   5.352  18.324  0.00  0.00    +0.000 A 
ATOM      3  C   UNL     1       8.021   5.935  19.106  0.00  0.00    +0.000 A 
ATOM      4  C   UNL     1       8.389   7.264  18.903  0.00  0.00    +0.000 A 
ATOM      5  C   UNL     1       7.773   8.026  17.911  0.00  0.00    +0.000 A 
ATOM      6  C   UNL     1       6.746   7.441  17.150  0.00  0.00    +0.000 A 
ENDROOT
BRANCH   5   7
ATOM      7  N   UNL     1       8.136   9.364  17.634  0.00  0.00    +0.000 N 
ATOM      8  C   UNL     1       8.877  10.195  18.454  0.00  0.00    +0.000 C 
ATOM      9  O   UNL     1       9.362   9.894  19.541  0.00  0.00    +0.000 OA
ATOM     10  N   UNL     1       9.110  11.436  17.881  0.00  0.00    +0.000 N 
ATOM     11  C   UNL     1       9.890  12.489  18.534  0.00  0.00    +0.000 C 
ATOM     12  C   UNL     1       8.748  13.465  18.239  0.00  0.00    +0.000 C 
ATOM     13  C   UNL     1       8.087  12.360  17.393  0.00  0.00    +0.000 C 
ATOM     14  H   UNL     1       8.065   9.672  16.676  0.00  0.00    +0.000 HD
BRANCH  12  15
ATOM     15  O   UNL     1       8.025  13.936  19.398  0.00  0.00    +0.000 OA
BRANCH  15  16
ATOM     16  C   UNL     1       8.116  15.317  19.670  0.00  0.00    +0.000 C 
ATOM     17  F   UNL     1       7.174  15.700  20.558  0.00  0.00    +0.000 F 
ATOM     18  F   UNL     1       9.331  15.590  20.182  0.00  0.00    +0.000 F 
ATOM     19  F   UNL     1       7.947  16.007  18.529  0.00  0.00    +0.000 F 
ENDBRANCH  15  16
ENDBRANCH  12  15
ENDBRANCH   5   7
BRANCH   1  21
ATOM     20  C   UNL     1       3.960   5.170  17.251  0.00  0.00    +0.000 C 
ATOM     21  C   UNL     1       5.245   5.491  16.471  0.00  0.00    +0.000 C 
BRANCH  21  22
ATOM     22  S   UNL     1       5.881   3.975  15.641  0.00  0.00    +0.000 S 
BRANCH  22  23
ATOM     23  C   UNL     1       6.873   4.610  14.374  0.00  0.00    +0.000 A 
ATOM     24  N   UNL     1       7.859   5.471  14.482  0.00  0.00    +0.000 NA
ATOM     25  N   UNL     1       8.311   5.740  13.208  0.00  0.00    +0.000 NA
ATOM     26  C   UNL     1       7.602   5.024  12.370  0.00  0.00    +0.000 A 
ATOM     27  N   UNL     1       6.700   4.271  13.067  0.00  0.00    +0.000 N 
ATOM     28  C   UNL     1       5.774   3.324  12.507  0.00  0.00    +0.000 C 
ENDBRANCH  22  23
ENDBRANCH  21  22
ENDBRANCH   1  21
TORSDOF 6
ENDMDL
MODEL 4
REMARK VINA RESULT:      -7.2      1.832      2.536
REMARK  Name = 
REMARK  8 active torsions:
REMARK  status: ('A' for Active; 'I' for Inactive)
REMARK    1  A    between atoms: C_1  and  C_2
REMARK    2  A    between atoms: C_2  and  S_3
REMARK    3  A    between atoms: C_2  and  C_10
REMARK    4  A    between atoms: S_3  and  C_4
REMARK    5  A    between atoms: N_8  and  C_9
REMARK    6  A    between atoms: C_14  and  N_15
REMARK    7  A    between atoms: C_20  and  O_21
REMARK    8  A    between atoms: O_21  and  C_22
REMARK                            x       y       z     vdW  Elec       q    Type
REMARK                         _______ _______ _______ _____ _____    ______ ____
ROOT
ATOM      1  C   UNL     1       2.109   7.066  19.974  0.00  0.00    +0.000 A 
ATOM      2  C   UNL     1       1.483   6.137  20.819  0.00  0.00    +0.000 A 
ATOM      3  C   UNL     1       1.850   4.793  20.804  0.00  0.00    +0.000 A 
ATOM      4  C   UNL     1       2.833   4.341  19.924  0.00  0.00    +0.000 A 
ATOM      5  C   UNL     1       3.455   5.225  19.043  0.00  0.00    +0.000 A 
ATOM      6  C   UNL     1       3.103   6.585  19.089  0.00  0.00    +0.000 A 
ENDROOT
BRANCH   5   7
ATOM      7  N   UNL     1       4.426   4.813  18.102  0.00  0.00    +0.000 N 
ATOM      8  C   UNL     1       4.771   5.479  16.939  0.00  0.00    +0.000 C 
ATOM      9  O   UNL     1       4.306   6.547  16.553  0.00  0.00    +0.000 OA
ATOM     10  N   UNL     1       5.795   4.848  16.251  0.00  0.00    +0.000 N 
ATOM     11  C   UNL     1       6.360   5.362  15.002  0.00  0.00    +0.000 C 
ATOM     12  C   UNL     1       6.179   3.971  14.391  0.00  0.00    +0.000 C 
ATOM     13  C   UNL     1       5.791   3.459  15.791  0.00  0.00    +0.000 C 
ATOM     14  H   UNL     1       5.093   4.118  18.402  0.00  0.00    +0.000 HD
BRANCH  12  15
ATOM     15  O   UNL     1       5.182   3.879  13.350  0.00  0.00    +0.000 OA
BRANCH  15  16
ATOM     16  C   UNL     1       5.631   3.424  12.093  0.00  0.00    +0.000 C 
ATOM     17  F   UNL     1       4.750   3.734  11.120  0.00  0.00    +0.000 F 
ATOM     18  F   UNL     1       6.813   4.002  11.808  0.00  0.00    +0.000 F 
ATOM     19  F   UNL     1       5.786   2.089  12.133  0.00  0.00    +0.000 F 
ENDBRANCH  15  16
ENDBRANCH  12  15
ENDBRANCH   5   7
BRANCH   1  21
ATOM     20  C   UNL     1       0.506   8.884  20.826  0.00  0.00    +0.000 C 
ATOM     21  C   UNL     1       1.743   8.555  19.976  0.00  0.00    +0.000 C 
BRANCH  21  22
ATOM     22  S   UNL     1       1.493   9.119  18.242  0.00  0.00    +0.000 S 
BRANCH  22  23
ATOM     23  C   UNL     1       0.240  10.302  18.392  0.00  0.00    +0.000 A 
ATOM     24  N   UNL     1      -1.050  10.133  18.212  0.00  0.00    +0.000 NA
ATOM     25  N   UNL     1      -1.653  11.363  18.368  0.00  0.00    +0.000 NA
ATOM     26  C   UNL     1      -0.717  12.235  18.655  0.00  0.00    +0.000 A 
ATOM     27  N   UNL     1       0.492  11.603  18.710  0.00  0.00    +0.000 N 
ATOM     28  C   UNL     1       1.752  12.210  19.040  0.00  0.00    +0.000 C 
ENDBRANCH  22  23
ENDBRANCH  21  22
ENDBRANCH   1  21
TORSDOF 6
ENDMDL
MODEL 5
REMARK VINA RESULT:      -7.1      4.484      5.528
REMARK  Name = 
REMARK  8 active torsions:
REMARK  status: ('A' for Active; 'I' for Inactive)
REMARK    1  A    between atoms: C_1  and  C_2
REMARK    2  A    between atoms: C_2  and  S_3
REMARK    3  A    between atoms: C_2  and  C_10
REMARK    4  A    between atoms: S_3  and  C_4
REMARK    5  A    between atoms: N_8  and  C_9
REMARK    6  A    between atoms: C_14  and  N_15
REMARK    7  A    between atoms: C_20  and  O_21
REMARK    8  A    between atoms: O_21  and  C_22
REMARK                            x       y       z     vdW  Elec       q    Type
REMARK                         _______ _______ _______ _____ _____    ______ ____
ROOT
ATOM      1  C   UNL     1      -0.500  10.861  20.631  0.00  0.00    +0.000 A 
ATOM      2  C   UNL     1      -0.939  11.188  21.924  0.00  0.00    +0.000 A 
ATOM      3  C   UNL     1      -0.566  10.418  23.023  0.00  0.00    +0.000 A 
ATOM      4  C   UNL     1       0.233   9.288  22.853  0.00  0.00    +0.000 A 
ATOM      5  C   UNL     1       0.662   8.908  21.581  0.00  0.00    +0.000 A 
ATOM      6  C   UNL     1       0.309   9.710  20.482  0.00  0.00    +0.000 A 
ENDROOT
BRANCH   5   7
ATOM      7  N   UNL     1       1.437   7.750  21.348  0.00  0.00    +0.000 N 
ATOM      8  C   UNL     1       2.002   7.374  20.142  0.00  0.00    +0.000 C 
ATOM      9  O   UNL     1       1.943   8.002  19.090  0.00  0.00    +0.000 OA
ATOM     10  N   UNL     1       2.748   6.211  20.245  0.00  0.00    +0.000 N 
ATOM     11  C   UNL     1       3.468   5.615  19.118  0.00  0.00    +0.000 C 
ATOM     12  C   UNL     1       2.819   4.272  19.462  0.00  0.00    +0.000 C 
ATOM     13  C   UNL     1       2.264   4.923  20.743  0.00  0.00    +0.000 C 
ATOM     14  H   UNL     1       1.816   7.278  22.155  0.00  0.00    +0.000 HD
BRANCH  12  15
ATOM     15  O   UNL     1       1.862   3.786  18.496  0.00  0.00    +0.000 OA
BRANCH  15  16
ATOM     16  C   UNL     1       1.678   2.388  18.449  0.00  0.00    +0.000 C 
ATOM     17  F   UNL     1       2.270   1.784  19.501  0.00  0.00    +0.000 F 
ATOM     18  F   UNL     1       0.361   2.112  18.476  0.00  0.00    +0.000 F 
ATOM     19  F   UNL     1       2.212   1.908  17.312  0.00  0.00    +0.000 F 
ENDBRANCH  15  16
ENDBRANCH  12  15
ENDBRANCH   5   7
BRANCH   1  21
ATOM     20  C   UNL     1      -1.477  10.867  18.254  0.00  0.00    +0.000 C 
ATOM     21  C   UNL     1      -0.877  11.695  19.400  0.00  0.00    +0.000 C 
BRANCH  21  22
ATOM     22  S   UNL     1       0.608  12.612  18.814  0.00  0.00    +0.000 S 
BRANCH  22  23
ATOM     23  C   UNL     1       1.065  13.543  20.199  0.00  0.00    +0.000 A 
ATOM     24  N   UNL     1       2.063  13.319  21.023  0.00  0.00    +0.000 NA
ATOM     25  N   UNL     1       2.000  14.273  22.016  0.00  0.00    +0.000 NA
ATOM     26  C   UNL     1       0.980  15.055  21.757  0.00  0.00    +0.000 A 
ATOM     27  N   UNL     1       0.378  14.648  20.600  0.00  0.00    +0.000 N 
ATOM     28  C   UNL     1      -0.746  15.278  19.963  0.00  0.00    +0.000 C 
ENDBRANCH  22  23
ENDBRANCH  21  22
ENDBRANCH   1  21
TORSDOF 6
ENDMDL
MODEL 6
REMARK VINA RESULT:      -7.1      6.330      8.656
REMARK  Name = 
REMARK  8 active torsions:
REMARK  status: ('A' for Active; 'I' for Inactive)
REMARK    1  A    between atoms: C_1  and  C_2
REMARK    2  A    between atoms: C_2  and  S_3
REMARK    3  A    between atoms: C_2  and  C_10
REMARK    4  A    between atoms: S_3  and  C_4
REMARK    5  A    between atoms: N_8  and  C_9
REMARK    6  A    between atoms: C_14  and  N_15
REMARK    7  A    between atoms: C_20  and  O_21
REMARK    8  A    between atoms: O_21  and  C_22
REMARK                            x       y       z     vdW  Elec       q    Type
REMARK                         _______ _______ _______ _____ _____    ______ ____
ROOT
ATOM      1  C   UNL     1       5.898   6.249  17.595  0.00  0.00    +0.000 A 
ATOM      2  C   UNL     1       6.686   5.388  18.376  0.00  0.00    +0.000 A 
ATOM      3  C   UNL     1       7.883   5.826  18.939  0.00  0.00    +0.000 A 
ATOM      4  C   UNL     1       8.334   7.125  18.712  0.00  0.00    +0.000 A 
ATOM      5  C   UNL     1       7.599   8.001  17.913  0.00  0.00    +0.000 A 
ATOM      6  C   UNL     1       6.375   7.562  17.378  0.00  0.00    +0.000 A 
ENDROOT
BRANCH   5   7
ATOM      7  N   UNL     1       8.030   9.314  17.616  0.00  0.00    +0.000 N 
ATOM      8  C   UNL     1       8.802  10.124  18.430  0.00  0.00    +0.000 C 
ATOM      9  O   UNL     1       9.257   9.822  19.528  0.00  0.00    +0.000 OA
ATOM     10  N   UNL     1       9.102  11.340  17.836  0.00  0.00    +0.000 N 
ATOM     11  C   UNL     1       9.924  12.367  18.478  0.00  0.00    +0.000 C 
ATOM     12  C   UNL     1       8.836  13.391  18.149  0.00  0.00    +0.000 C 
ATOM     13  C   UNL     1       8.131  12.304  17.316  0.00  0.00    +0.000 C 
ATOM     14  H   UNL     1       7.987   9.606  16.651  0.00  0.00    +0.000 HD
BRANCH  12  15
ATOM     15  O   UNL     1       8.122  13.920  19.288  0.00  0.00    +0.000 OA
BRANCH  15  16
ATOM     16  C   UNL     1       7.703  15.264  19.194  0.00  0.00    +0.000 C 
ATOM     17  F   UNL     1       6.680  15.515  20.036  0.00  0.00    +0.000 F 
ATOM     18  F   UNL     1       8.733  16.073  19.508  0.00  0.00    +0.000 F 
ATOM     19  F   UNL     1       7.306  15.517  17.934  0.00  0.00    +0.000 F 
ENDBRANCH  15  16
ENDBRANCH  12  15
ENDBRANCH   5   7
BRANCH   1  21
ATOM     20  C   UNL     1       3.337   6.205  17.807  0.00  0.00    +0.000 C 
ATOM     21  C   UNL     1       4.566   5.806  16.976  0.00  0.00    +0.000 C 
BRANCH  21  22
ATOM     22  S   UNL     1       4.596   3.983  16.717  0.00  0.00    +0.000 S 
BRANCH  22  23
ATOM     23  C   UNL     1       3.186   3.445  17.563  0.00  0.00    +0.000 A 
ATOM     24  N   UNL     1       1.947   3.429  17.129  0.00  0.00    +0.000 NA
ATOM     25  N   UNL     1       1.153   2.988  18.165  0.00  0.00    +0.000 NA
ATOM     26  C   UNL     1       1.933   2.734  19.188  0.00  0.00    +0.000 A 
ATOM     27  N   UNL     1       3.231   2.980  18.842  0.00  0.00    +0.000 N 
ATOM     28  C   UNL     1       4.383   2.778  19.677  0.00  0.00    +0.000 C 
ENDBRANCH  22  23
ENDBRANCH  21  22
ENDBRANCH   1  21
TORSDOF 6
ENDMDL
MODEL 7
REMARK VINA RESULT:      -7.1      4.257      5.463
REMARK  Name = 
REMARK  8 active torsions:
REMARK  status: ('A' for Active; 'I' for Inactive)
REMARK    1  A    between atoms: C_1  and  C_2
REMARK    2  A    between atoms: C_2  and  S_3
REMARK    3  A    between atoms: C_2  and  C_10
REMARK    4  A    between atoms: S_3  and  C_4
REMARK    5  A    between atoms: N_8  and  C_9
REMARK    6  A    between atoms: C_14  and  N_15
REMARK    7  A    between atoms: C_20  and  O_21
REMARK    8  A    between atoms: O_21  and  C_22
REMARK                            x       y       z     vdW  Elec       q    Type
REMARK                         _______ _______ _______ _____ _____    ______ ____
ROOT
ATOM      1  C   UNL     1      -0.022  10.361  19.767  0.00  0.00    +0.000 A 
ATOM      2  C   UNL     1      -0.672  10.294  21.010  0.00  0.00    +0.000 A 
ATOM      3  C   UNL     1      -0.291   9.357  21.968  0.00  0.00    +0.000 A 
ATOM      4  C   UNL     1       0.732   8.449  21.697  0.00  0.00    +0.000 A 
ATOM      5  C   UNL     1       1.381   8.460  20.463  0.00  0.00    +0.000 A 
ATOM      6  C   UNL     1       1.013   9.430  19.515  0.00  0.00    +0.000 A 
ENDROOT
BRANCH   5   7
ATOM      7  N   UNL     1       2.394   7.536  20.121  0.00  0.00    +0.000 N 
ATOM      8  C   UNL     1       2.601   6.975  18.873  0.00  0.00    +0.000 C 
ATOM      9  O   UNL     1       1.954   7.212  17.858  0.00  0.00    +0.000 OA
ATOM     10  N   UNL     1       3.708   6.141  18.843  0.00  0.00    +0.000 N 
ATOM     11  C   UNL     1       4.157   5.444  17.636  0.00  0.00    +0.000 C 
ATOM     12  C   UNL     1       4.210   4.149  18.450  0.00  0.00    +0.000 C 
ATOM     13  C   UNL     1       3.936   4.987  19.712  0.00  0.00    +0.000 C 
ATOM     14  H   UNL     1       3.175   7.452  20.754  0.00  0.00    +0.000 HD
BRANCH  12  15
ATOM     15  O   UNL     1       3.227   3.154  18.088  0.00  0.00    +0.000 OA
BRANCH  15  16
ATOM     16  C   UNL     1       3.420   1.863  18.623  0.00  0.00    +0.000 C 
ATOM     17  F   UNL     1       3.778   0.987  17.662  0.00  0.00    +0.000 F 
ATOM     18  F   UNL     1       4.392   1.909  19.553  0.00  0.00    +0.000 F 
ATOM     19  F   UNL     1       2.276   1.444  19.193  0.00  0.00    +0.000 F 
ENDBRANCH  15  16
ENDBRANCH  12  15
ENDBRANCH   5   7
BRANCH   1  21
ATOM     20  C   UNL     1       0.300  12.746  18.865  0.00  0.00    +0.000 C 
ATOM     21  C   UNL     1      -0.404  11.390  18.696  0.00  0.00    +0.000 C 
BRANCH  21  22
ATOM     22  S   UNL     1      -2.231  11.616  18.699  0.00  0.00    +0.000 S 
BRANCH  22  23
ATOM     23  C   UNL     1      -2.716  10.904  17.200  0.00  0.00    +0.000 A 
ATOM     24  N   UNL     1      -2.030  10.078  16.444  0.00  0.00    +0.000 NA
ATOM     25  N   UNL     1      -2.781   9.829  15.316  0.00  0.00    +0.000 NA
ATOM     26  C   UNL     1      -3.905  10.496  15.428  0.00  0.00    +0.000 A 
ATOM     27  N   UNL     1      -3.920  11.165  16.618  0.00  0.00    +0.000 N 
ATOM     28  C   UNL     1      -4.998  11.970  17.125  0.00  0.00    +0.000 C 
ENDBRANCH  22  23
ENDBRANCH  21  22
ENDBRANCH   1  21
TORSDOF 6
ENDMDL
MODEL 8
REMARK VINA RESULT:      -7.1      4.348      5.723
REMARK  Name = 
REMARK  8 active torsions:
REMARK  status: ('A' for Active; 'I' for Inactive)
REMARK    1  A    between atoms: C_1  and  C_2
REMARK    2  A    between atoms: C_2  and  S_3
REMARK    3  A    between atoms: C_2  and  C_10
REMARK    4  A    between atoms: S_3  and  C_4
REMARK    5  A    between atoms: N_8  and  C_9
REMARK    6  A    between atoms: C_14  and  N_15
REMARK    7  A    between atoms: C_20  and  O_21
REMARK    8  A    between atoms: O_21  and  C_22
REMARK                            x       y       z     vdW  Elec       q    Type
REMARK                         _______ _______ _______ _____ _____    ______ ____
ROOT
ATOM      1  C   UNL     1      -0.397  10.819  20.266  0.00  0.00    +0.000 A 
ATOM      2  C   UNL     1      -0.898  11.202  21.520  0.00  0.00    +0.000 A 
ATOM      3  C   UNL     1      -0.569  10.490  22.671  0.00  0.00    +0.000 A 
ATOM      4  C   UNL     1       0.247   9.362  22.593  0.00  0.00    +0.000 A 
ATOM      5  C   UNL     1       0.738   8.927  21.362  0.00  0.00    +0.000 A 
ATOM      6  C   UNL     1       0.429   9.672  20.210  0.00  0.00    +0.000 A 
ENDROOT
BRANCH   5   7
ATOM      7  N   UNL     1       1.534   7.768  21.220  0.00  0.00    +0.000 N 
ATOM      8  C   UNL     1       2.155   7.340  20.060  0.00  0.00    +0.000 C 
ATOM      9  O   UNL     1       2.137   7.915  18.977  0.00  0.00    +0.000 OA
ATOM     10  N   UNL     1       2.907   6.192  20.254  0.00  0.00    +0.000 N 
ATOM     11  C   UNL     1       3.682   5.550  19.190  0.00  0.00    +0.000 C 
ATOM     12  C   UNL     1       3.032   4.219  19.571  0.00  0.00    +0.000 C 
ATOM     13  C   UNL     1       2.414   4.925  20.793  0.00  0.00    +0.000 C 
ATOM     14  H   UNL     1       1.881   7.341  22.066  0.00  0.00    +0.000 HD
BRANCH  12  15
ATOM     15  O   UNL     1       2.122   3.674  18.590  0.00  0.00    +0.000 OA
BRANCH  15  16
ATOM     16  C   UNL     1       2.680   2.781  17.651  0.00  0.00    +0.000 C 
ATOM     17  F   UNL     1       1.893   1.697  17.484  0.00  0.00    +0.000 F 
ATOM     18  F   UNL     1       2.812   3.407  16.467  0.00  0.00    +0.000 F 
ATOM     19  F   UNL     1       3.889   2.381  18.082  0.00  0.00    +0.000 F 
ENDBRANCH  15  16
ENDBRANCH  12  15
ENDBRANCH   5   7
BRANCH   1  21
ATOM     20  C   UNL     1      -0.061  12.975  18.908  0.00  0.00    +0.000 C 
ATOM     21  C   UNL     1      -0.723  11.590  18.981  0.00  0.00    +0.000 C 
BRANCH  21  22
ATOM     22  S   UNL     1      -2.551  11.748  18.819  0.00  0.00    +0.000 S 
BRANCH  22  23
ATOM     23  C   UNL     1      -2.864  11.074  17.257  0.00  0.00    +0.000 A 
ATOM     24  N   UNL     1      -2.060  10.340  16.522  0.00  0.00    +0.000 NA
ATOM     25  N   UNL     1      -2.703  10.091  15.329  0.00  0.00    +0.000 NA
ATOM     26  C   UNL     1      -3.882  10.663  15.382  0.00  0.00    +0.000 A 
ATOM     27  N   UNL     1      -4.038  11.271  16.594  0.00  0.00    +0.000 N 
ATOM     28  C   UNL     1      -5.211  11.966  17.049  0.00  0.00    +0.000 C 
ENDBRANCH  22  23
ENDBRANCH  21  22
ENDBRANCH   1  21
TORSDOF 6
ENDMDL
MODEL 9
REMARK VINA RESULT:      -7.0      6.511      7.297
REMARK  Name = 
REMARK  8 active torsions:
REMARK  status: ('A' for Active; 'I' for Inactive)
REMARK    1  A    between atoms: C_1  and  C_2
REMARK    2  A    between atoms: C_2  and  S_3
REMARK    3  A    between atoms: C_2  and  C_10
REMARK    4  A    between atoms: S_3  and  C_4
REMARK    5  A    between atoms: N_8  and  C_9
REMARK    6  A    between atoms: C_14  and  N_15
REMARK    7  A    between atoms: C_20  and  O_21
REMARK    8  A    between atoms: O_21  and  C_22
REMARK                            x       y       z     vdW  Elec       q    Type
REMARK                         _______ _______ _______ _____ _____    ______ ____
ROOT
ATOM      1  C   UNL     1       9.776  12.515  18.598  0.00  0.00    +0.000 A 
ATOM      2  C   UNL     1       9.810  12.936  19.937  0.00  0.00    +0.000 A 
ATOM      3  C   UNL     1       9.623  12.030  20.978  0.00  0.00    +0.000 A 
ATOM      4  C   UNL     1       9.371  10.686  20.705  0.00  0.00    +0.000 A 
ATOM      5  C   UNL     1       9.294  10.233  19.388  0.00  0.00    +0.000 A 
ATOM      6  C   UNL     1       9.518  11.147  18.345  0.00  0.00    +0.000 A 
ENDROOT
BRANCH   5   7
ATOM      7  N   UNL     1       8.999   8.891  19.055  0.00  0.00    +0.000 N 
ATOM      8  C   UNL     1       8.046   8.465  18.146  0.00  0.00    +0.000 C 
ATOM      9  O   UNL     1       7.325   9.186  17.465  0.00  0.00    +0.000 OA
ATOM     10  N   UNL     1       8.030   7.087  18.002  0.00  0.00    +0.000 N 
ATOM     11  C   UNL     1       7.131   6.386  17.083  0.00  0.00    +0.000 C 
ATOM     12  C   UNL     1       6.735   5.461  18.237  0.00  0.00    +0.000 C 
ATOM     13  C   UNL     1       7.848   6.114  19.078  0.00  0.00    +0.000 C 
ATOM     14  H   UNL     1       9.683   8.193  19.306  0.00  0.00    +0.000 HD
BRANCH  12  15
ATOM     15  O   UNL     1       5.376   5.608  18.705  0.00  0.00    +0.000 OA
BRANCH  15  16
ATOM     16  C   UNL     1       4.522   4.505  18.497  0.00  0.00    +0.000 C 
ATOM     17  F   UNL     1       3.292   4.908  18.114  0.00  0.00    +0.000 F 
ATOM     18  F   UNL     1       5.040   3.718  17.535  0.00  0.00    +0.000 F 
ATOM     19  F   UNL     1       4.416   3.803  19.639  0.00  0.00    +0.000 F 
ENDBRANCH  15  16
ENDBRANCH  12  15
ENDBRANCH   5   7
BRANCH   1  21
ATOM     20  C   UNL     1      11.420  13.438  16.852  0.00  0.00    +0.000 C 
ATOM     21  C   UNL     1       9.996  13.482  17.428  0.00  0.00    +0.000 C 
BRANCH  21  22
ATOM     22  S   UNL     1       9.579  15.191  17.970  0.00  0.00    +0.000 S 
BRANCH  22  23
ATOM     23  C   UNL     1       7.851  15.168  18.046  0.00  0.00    +0.000 A 
ATOM     24  N   UNL     1       7.038  14.269  17.540  0.00  0.00    +0.000 NA
ATOM     25  N   UNL     1       5.750  14.696  17.783  0.00  0.00    +0.000 NA
ATOM     26  C   UNL     1       5.820  15.828  18.441  0.00  0.00    +0.000 A 
ATOM     27  N   UNL     1       7.130  16.148  18.656  0.00  0.00    +0.000 N 
ATOM     28  C   UNL     1       7.615  17.291  19.381  0.00  0.00    +0.000 C 
ENDBRANCH  22  23
ENDBRANCH  21  22
ENDBRANCH   1  21
TORSDOF 6
ENDMDL
