MODEL 1
REMARK VINA RESULT:      -8.7      0.000      0.000
REMARK  Name = 
REMARK  7 active torsions:
REMARK  status: ('A' for Active; 'I' for Inactive)
REMARK    1  A    between atoms: C_1  and  C_2
REMARK    2  A    between atoms: C_2  and  C_3
REMARK    3  A    between atoms: C_2  and  C_10
REMARK    4  A    between atoms: C_3  and  C_4
REMARK    5  A    between atoms: N_8  and  C_9
REMARK    6  A    between atoms: C_14  and  N_15
REMARK    7  A    between atoms: C_16  and  C_18
REMARK                            x       y       z     vdW  Elec       q    Type
REMARK                         _______ _______ _______ _____ _____    ______ ____
ROOT
ATOM      1  C   UNL     1       4.224   5.692  17.316  0.00  0.00    +0.000 A 
ATOM      2  C   UNL     1       4.849   4.633  16.637  0.00  0.00    +0.000 A 
ATOM      3  C   UNL     1       6.171   4.731  16.219  0.00  0.00    +0.000 A 
ATOM      4  C   UNL     1       6.888   5.900  16.454  0.00  0.00    +0.000 A 
ATOM      5  C   UNL     1       6.294   7.001  17.078  0.00  0.00    +0.000 A 
ATOM      6  C   UNL     1       4.968   6.882  17.520  0.00  0.00    +0.000 A 
ENDROOT
BRANCH   5   7
ATOM      7  N   UNL     1       7.001   8.213  17.291  0.00  0.00    +0.000 N 
ATOM      8  C   UNL     1       8.055   8.362  18.170  0.00  0.00    +0.000 C 
ATOM      9  O   UNL     1       8.581   7.454  18.812  0.00  0.00    +0.000 OA
ATOM     10  H   UNL     1       6.763   9.027  16.730  0.00  0.00    +0.000 HD
BRANCH   8  11
ATOM     11  C   UNL     1       8.578   9.774  18.307  0.00  0.00    +0.000 A 
ATOM     12  C   UNL     1       9.388   9.952  19.370  0.00  0.00    +0.000 A 
ATOM     13  C   UNL     1       9.832  11.249  19.683  0.00  0.00    +0.000 A 
ATOM     14  C   UNL     1      10.604  11.799  20.679  0.00  0.00    +0.000 A 
ATOM     15  C   UNL     1      10.612  13.200  20.462  0.00  0.00    +0.000 A 
ATOM     16  C   UNL     1       9.867  13.451  19.323  0.00  0.00    +0.000 A 
ATOM     17  N   UNL     1       9.394  12.247  18.849  0.00  0.00    +0.000 N 
ATOM     18  C   UNL     1       8.589  11.993  17.733  0.00  0.00    +0.000 A 
ATOM     19  N   UNL     1       8.181  10.787  17.432  0.00  0.00    +0.000 NA
ENDBRANCH   8  11
ENDBRANCH   5   7
BRANCH   1  21
ATOM     20  C   UNL     1       2.615   6.208  19.265  0.00  0.00    +0.000 C 
ATOM     21  C   UNL     1       2.801   5.563  17.876  0.00  0.00    +0.000 C 
BRANCH  21  22
ATOM     22  C   UNL     1       2.352   4.085  17.912  0.00  0.00    +0.000 C 
BRANCH  22  23
ATOM     23  C   UNL     1       2.092   3.586  19.297  0.00  0.00    +0.000 A 
ATOM     24  N   UNL     1       0.965   3.686  19.973  0.00  0.00    +0.000 NA
ATOM     25  N   UNL     1       1.154   3.110  21.209  0.00  0.00    +0.000 NA
ATOM     26  C   UNL     1       2.389   2.671  21.259  0.00  0.00    +0.000 A 
ATOM     27  N   UNL     1       3.019   2.962  20.089  0.00  0.00    +0.000 N 
ATOM     28  C   UNL     1       4.392   2.686  19.769  0.00  0.00    +0.000 C 
ENDBRANCH  22  23
ENDBRANCH  21  22
ENDBRANCH   1  21
TORSDOF 5
ENDMDL
MODEL 2
REMARK VINA RESULT:      -8.6      3.863      7.248
REMARK  Name = 
REMARK  7 active torsions:
REMARK  status: ('A' for Active; 'I' for Inactive)
REMARK    1  A    between atoms: C_1  and  C_2
REMARK    2  A    between atoms: C_2  and  C_3
REMARK    3  A    between atoms: C_2  and  C_10
REMARK    4  A    between atoms: C_3  and  C_4
REMARK    5  A    between atoms: N_8  and  C_9
REMARK    6  A    between atoms: C_14  and  N_15
REMARK    7  A    between atoms: C_16  and  C_18
REMARK                            x       y       z     vdW  Elec       q    Type
REMARK                         _______ _______ _______ _____ _____    ______ ____
ROOT
ATOM      1  C   UNL     1       4.423   5.161  16.885  0.00  0.00    +0.000 A 
ATOM      2  C   UNL     1       3.804   3.900  16.926  0.00  0.00    +0.000 A 
ATOM      3  C   UNL     1       2.602   3.713  17.597  0.00  0.00    +0.000 A 
ATOM      4  C   UNL     1       2.005   4.780  18.261  0.00  0.00    +0.000 A 
ATOM      5  C   UNL     1       2.609   6.041  18.295  0.00  0.00    +0.000 A 
ATOM      6  C   UNL     1       3.808   6.226  17.591  0.00  0.00    +0.000 A 
ENDROOT
BRANCH   5   7
ATOM      7  N   UNL     1       2.032   7.129  19.000  0.00  0.00    +0.000 N 
ATOM      8  C   UNL     1       1.859   8.397  18.480  0.00  0.00    +0.000 C 
ATOM      9  O   UNL     1       2.092   8.728  17.318  0.00  0.00    +0.000 OA
ATOM     10  H   UNL     1       1.668   6.972  19.936  0.00  0.00    +0.000 HD
BRANCH   8  11
ATOM     11  C   UNL     1       1.324   9.420  19.456  0.00  0.00    +0.000 A 
ATOM     12  C   UNL     1       0.824   8.882  20.586  0.00  0.00    +0.000 A 
ATOM     13  C   UNL     1       0.176   9.717  21.515  0.00  0.00    +0.000 A 
ATOM     14  C   UNL     1      -0.470   9.523  22.712  0.00  0.00    +0.000 A 
ATOM     15  C   UNL     1      -0.975  10.785  23.113  0.00  0.00    +0.000 A 
ATOM     16  C   UNL     1      -0.592  11.711  22.157  0.00  0.00    +0.000 A 
ATOM     17  N   UNL     1       0.117  11.047  21.180  0.00  0.00    +0.000 N 
ATOM     18  C   UNL     1       0.697  11.554  20.012  0.00  0.00    +0.000 A 
ATOM     19  N   UNL     1       1.308  10.783  19.149  0.00  0.00    +0.000 NA
ENDBRANCH   8  11
ENDBRANCH   5   7
BRANCH   1  21
ATOM     20  C   UNL     1       5.792   4.546  14.787  0.00  0.00    +0.000 C 
ATOM     21  C   UNL     1       5.694   5.409  16.062  0.00  0.00    +0.000 C 
BRANCH  21  22
ATOM     22  C   UNL     1       6.960   5.225  16.928  0.00  0.00    +0.000 C 
BRANCH  22  23
ATOM     23  C   UNL     1       7.483   6.510  17.481  0.00  0.00    +0.000 A 
ATOM     24  N   UNL     1       7.535   7.673  16.862  0.00  0.00    +0.000 NA
ATOM     25  N   UNL     1       8.098   8.591  17.720  0.00  0.00    +0.000 NA
ATOM     26  C   UNL     1       8.373   7.970  18.842  0.00  0.00    +0.000 A 
ATOM     27  N   UNL     1       8.021   6.661  18.732  0.00  0.00    +0.000 N 
ATOM     28  C   UNL     1       8.203   5.642  19.729  0.00  0.00    +0.000 C 
ENDBRANCH  22  23
ENDBRANCH  21  22
ENDBRANCH   1  21
TORSDOF 5
ENDMDL
MODEL 3
REMARK VINA RESULT:      -8.4      0.821      1.204
REMARK  Name = 
REMARK  7 active torsions:
REMARK  status: ('A' for Active; 'I' for Inactive)
REMARK    1  A    between atoms: C_1  and  C_2
REMARK    2  A    between atoms: C_2  and  C_3
REMARK    3  A    between atoms: C_2  and  C_10
REMARK    4  A    between atoms: C_3  and  C_4
REMARK    5  A    between atoms: N_8  and  C_9
REMARK    6  A    between atoms: C_14  and  N_15
REMARK    7  A    between atoms: C_16  and  C_18
REMARK                            x       y       z     vdW  Elec       q    Type
REMARK                         _______ _______ _______ _____ _____    ______ ____
ROOT
ATOM      1  C   UNL     1       4.764   5.072  17.300  0.00  0.00    +0.000 A 
ATOM      2  C   UNL     1       5.386   4.164  16.427  0.00  0.00    +0.000 A 
ATOM      3  C   UNL     1       6.611   4.459  15.840  0.00  0.00    +0.000 A 
ATOM      4  C   UNL     1       7.227   5.680  16.097  0.00  0.00    +0.000 A 
ATOM      5  C   UNL     1       6.622   6.639  16.916  0.00  0.00    +0.000 A 
ATOM      6  C   UNL     1       5.399   6.319  17.525  0.00  0.00    +0.000 A 
ENDROOT
BRANCH   5   7
ATOM      7  N   UNL     1       7.220   7.902  17.157  0.00  0.00    +0.000 N 
ATOM      8  C   UNL     1       8.117   8.164  18.175  0.00  0.00    +0.000 C 
ATOM      9  O   UNL     1       8.587   7.326  18.943  0.00  0.00    +0.000 OA
ATOM     10  H   UNL     1       7.027   8.669  16.518  0.00  0.00    +0.000 HD
BRANCH   8  11
ATOM     11  C   UNL     1       8.534   9.612  18.302  0.00  0.00    +0.000 A 
ATOM     12  C   UNL     1       9.333   9.856  19.360  0.00  0.00    +0.000 A 
ATOM     13  C   UNL     1       9.680  11.184  19.664  0.00  0.00    +0.000 A 
ATOM     14  C   UNL     1      10.412  11.796  20.654  0.00  0.00    +0.000 A 
ATOM     15  C   UNL     1      10.316  13.192  20.429  0.00  0.00    +0.000 A 
ATOM     16  C   UNL     1       9.550  13.380  19.291  0.00  0.00    +0.000 A 
ATOM     17  N   UNL     1       9.166  12.142  18.826  0.00  0.00    +0.000 N 
ATOM     18  C   UNL     1       8.379  11.822  17.714  0.00  0.00    +0.000 A 
ATOM     19  N   UNL     1       8.059  10.587  17.422  0.00  0.00    +0.000 NA
ENDBRANCH   8  11
ENDBRANCH   5   7
BRANCH   1  21
ATOM     20  C   UNL     1       3.216   5.567  19.303  0.00  0.00    +0.000 C 
ATOM     21  C   UNL     1       3.465   4.720  18.038  0.00  0.00    +0.000 C 
BRANCH  21  22
ATOM     22  C   UNL     1       3.417   3.216  18.387  0.00  0.00    +0.000 C 
BRANCH  22  23
ATOM     23  C   UNL     1       2.870   2.949  19.752  0.00  0.00    +0.000 A 
ATOM     24  N   UNL     1       3.558   2.838  20.871  0.00  0.00    +0.000 NA
ATOM     25  N   UNL     1       2.674   2.580  21.894  0.00  0.00    +0.000 NA
ATOM     26  C   UNL     1       1.468   2.543  21.379  0.00  0.00    +0.000 A 
ATOM     27  N   UNL     1       1.544   2.751  20.037  0.00  0.00    +0.000 N 
ATOM     28  C   UNL     1       0.447   2.741  19.109  0.00  0.00    +0.000 C 
ENDBRANCH  22  23
ENDBRANCH  21  22
ENDBRANCH   1  21
TORSDOF 5
ENDMDL
MODEL 4
REMARK VINA RESULT:      -8.4      5.083      7.555
REMARK  Name = 
REMARK  7 active torsions:
REMARK  status: ('A' for Active; 'I' for Inactive)
REMARK    1  A    between atoms: C_1  and  C_2
REMARK    2  A    between atoms: C_2  and  C_3
REMARK    3  A    between atoms: C_2  and  C_10
REMARK    4  A    between atoms: C_3  and  C_4
REMARK    5  A    between atoms: N_8  and  C_9
REMARK    6  A    between atoms: C_14  and  N_15
REMARK    7  A    between atoms: C_16  and  C_18
REMARK                            x       y       z     vdW  Elec       q    Type
REMARK                         _______ _______ _______ _____ _____    ______ ____
ROOT
ATOM      1  C   UNL     1       5.082   4.441  17.116  0.00  0.00    +0.000 A 
ATOM      2  C   UNL     1       4.245   3.330  16.915  0.00  0.00    +0.000 A 
ATOM      3  C   UNL     1       2.894   3.384  17.235  0.00  0.00    +0.000 A 
ATOM      4  C   UNL     1       2.357   4.544  17.784  0.00  0.00    +0.000 A 
ATOM      5  C   UNL     1       3.159   5.657  18.053  0.00  0.00    +0.000 A 
ATOM      6  C   UNL     1       4.516   5.602  17.700  0.00  0.00    +0.000 A 
ENDROOT
BRANCH   5   7
ATOM      7  N   UNL     1       2.633   6.833  18.647  0.00  0.00    +0.000 N 
ATOM      8  C   UNL     1       2.051   6.886  19.899  0.00  0.00    +0.000 C 
ATOM      9  O   UNL     1       1.995   5.954  20.698  0.00  0.00    +0.000 OA
ATOM     10  H   UNL     1       2.727   7.718  18.155  0.00  0.00    +0.000 HD
BRANCH   8  11
ATOM     11  C   UNL     1       1.464   8.229  20.273  0.00  0.00    +0.000 A 
ATOM     12  C   UNL     1       1.001   8.284  21.538  0.00  0.00    +0.000 A 
ATOM     13  C   UNL     1       0.311   9.433  21.966  0.00  0.00    +0.000 A 
ATOM     14  C   UNL     1      -0.317   9.815  23.126  0.00  0.00    +0.000 A 
ATOM     15  C   UNL     1      -0.891  11.088  22.881  0.00  0.00    +0.000 A 
ATOM     16  C   UNL     1      -0.567  11.449  21.584  0.00  0.00    +0.000 A 
ATOM     17  N   UNL     1       0.175  10.429  21.030  0.00  0.00    +0.000 N 
ATOM     18  C   UNL     1       0.718  10.331  19.744  0.00  0.00    +0.000 A 
ATOM     19  N   UNL     1       1.369   9.268  19.345  0.00  0.00    +0.000 NA
ENDBRANCH   8  11
ENDBRANCH   5   7
BRANCH   1  21
ATOM     20  C   UNL     1       7.545   4.795  17.795  0.00  0.00    +0.000 C 
ATOM     21  C   UNL     1       6.551   4.435  16.672  0.00  0.00    +0.000 C 
BRANCH  21  22
ATOM     22  C   UNL     1       6.765   5.362  15.455  0.00  0.00    +0.000 C 
BRANCH  22  23
ATOM     23  C   UNL     1       6.637   4.649  14.147  0.00  0.00    +0.000 A 
ATOM     24  N   UNL     1       5.781   3.693  13.849  0.00  0.00    +0.000 NA
ATOM     25  N   UNL     1       6.007   3.304  12.548  0.00  0.00    +0.000 NA
ATOM     26  C   UNL     1       6.993   4.033  12.081  0.00  0.00    +0.000 A 
ATOM     27  N   UNL     1       7.430   4.877  13.053  0.00  0.00    +0.000 N 
ATOM     28  C   UNL     1       8.523   5.805  12.948  0.00  0.00    +0.000 C 
ENDBRANCH  22  23
ENDBRANCH  21  22
ENDBRANCH   1  21
TORSDOF 5
ENDMDL
MODEL 5
REMARK VINA RESULT:      -8.4      4.415      7.283
REMARK  Name = 
REMARK  7 active torsions:
REMARK  status: ('A' for Active; 'I' for Inactive)
REMARK    1  A    between atoms: C_1  and  C_2
REMARK    2  A    between atoms: C_2  and  C_3
REMARK    3  A    between atoms: C_2  and  C_10
REMARK    4  A    between atoms: C_3  and  C_4
REMARK    5  A    between atoms: N_8  and  C_9
REMARK    6  A    between atoms: C_14  and  N_15
REMARK    7  A    between atoms: C_16  and  C_18
REMARK                            x       y       z     vdW  Elec       q    Type
REMARK                         _______ _______ _______ _____ _____    ______ ____
ROOT
ATOM      1  C   UNL     1       5.588   4.813  18.934  0.00  0.00    +0.000 A 
ATOM      2  C   UNL     1       5.001   3.555  18.724  0.00  0.00    +0.000 A 
ATOM      3  C   UNL     1       3.632   3.369  18.873  0.00  0.00    +0.000 A 
ATOM      4  C   UNL     1       2.825   4.436  19.257  0.00  0.00    +0.000 A 
ATOM      5  C   UNL     1       3.369   5.694  19.529  0.00  0.00    +0.000 A 
ATOM      6  C   UNL     1       4.749   5.878  19.349  0.00  0.00    +0.000 A 
ENDROOT
BRANCH   5   7
ATOM      7  N   UNL     1       2.565   6.781  19.958  0.00  0.00    +0.000 N 
ATOM      8  C   UNL     1       2.091   7.780  19.130  0.00  0.00    +0.000 C 
ATOM      9  O   UNL     1       2.220   7.813  17.907  0.00  0.00    +0.000 OA
ATOM     10  H   UNL     1       2.264   6.819  20.928  0.00  0.00    +0.000 HD
BRANCH   8  11
ATOM     11  C   UNL     1       1.347   8.893  19.833  0.00  0.00    +0.000 A 
ATOM     12  C   UNL     1       1.042   8.616  21.117  0.00  0.00    +0.000 A 
ATOM     13  C   UNL     1       0.236   9.513  21.839  0.00  0.00    +0.000 A 
ATOM     14  C   UNL     1      -0.296   9.539  23.106  0.00  0.00    +0.000 A 
ATOM     15  C   UNL     1      -1.092  10.709  23.191  0.00  0.00    +0.000 A 
ATOM     16  C   UNL     1      -0.994  11.370  21.978  0.00  0.00    +0.000 A 
ATOM     17  N   UNL     1      -0.174  10.630  21.154  0.00  0.00    +0.000 N 
ATOM     18  C   UNL     1       0.214  10.886  19.835  0.00  0.00    +0.000 A 
ATOM     19  N   UNL     1       0.971  10.058  19.161  0.00  0.00    +0.000 NA
ENDBRANCH   8  11
ENDBRANCH   5   7
BRANCH   1  21
ATOM     20  C   UNL     1       7.842   5.629  19.888  0.00  0.00    +0.000 C 
ATOM     21  C   UNL     1       7.081   5.061  18.672  0.00  0.00    +0.000 C 
BRANCH  21  22
ATOM     22  C   UNL     1       7.283   5.975  17.443  0.00  0.00    +0.000 C 
BRANCH  22  23
ATOM     23  C   UNL     1       6.810   5.354  16.169  0.00  0.00    +0.000 A 
ATOM     24  N   UNL     1       7.387   4.370  15.507  0.00  0.00    +0.000 NA
ATOM     25  N   UNL     1       6.636   4.111  14.383  0.00  0.00    +0.000 NA
ATOM     26  C   UNL     1       5.618   4.939  14.385  0.00  0.00    +0.000 A 
ATOM     27  N   UNL     1       5.696   5.747  15.476  0.00  0.00    +0.000 N 
ATOM     28  C   UNL     1       4.793   6.814  15.812  0.00  0.00    +0.000 C 
ENDBRANCH  22  23
ENDBRANCH  21  22
ENDBRANCH   1  21
TORSDOF 5
ENDMDL
MODEL 6
REMARK VINA RESULT:      -8.2      0.874      1.043
REMARK  Name = 
REMARK  7 active torsions:
REMARK  status: ('A' for Active; 'I' for Inactive)
REMARK    1  A    between atoms: C_1  and  C_2
REMARK    2  A    between atoms: C_2  and  C_3
REMARK    3  A    between atoms: C_2  and  C_10
REMARK    4  A    between atoms: C_3  and  C_4
REMARK    5  A    between atoms: N_8  and  C_9
REMARK    6  A    between atoms: C_14  and  N_15
REMARK    7  A    between atoms: C_16  and  C_18
REMARK                            x       y       z     vdW  Elec       q    Type
REMARK                         _______ _______ _______ _____ _____    ______ ____
ROOT
ATOM      1  C   UNL     1       4.373   6.033  17.347  0.00  0.00    +0.000 A 
ATOM      2  C   UNL     1       5.005   4.902  16.804  0.00  0.00    +0.000 A 
ATOM      3  C   UNL     1       6.355   4.926  16.474  0.00  0.00    +0.000 A 
ATOM      4  C   UNL     1       7.094   6.089  16.660  0.00  0.00    +0.000 A 
ATOM      5  C   UNL     1       6.499   7.256  17.148  0.00  0.00    +0.000 A 
ATOM      6  C   UNL     1       5.142   7.214  17.504  0.00  0.00    +0.000 A 
ENDROOT
BRANCH   5   7
ATOM      7  N   UNL     1       7.231   8.461  17.307  0.00  0.00    +0.000 N 
ATOM      8  C   UNL     1       8.228   8.654  18.244  0.00  0.00    +0.000 C 
ATOM      9  O   UNL     1       8.677   7.790  18.994  0.00  0.00    +0.000 OA
ATOM     10  H   UNL     1       7.060   9.230  16.665  0.00  0.00    +0.000 HD
BRANCH   8  11
ATOM     11  C   UNL     1       8.789  10.057  18.299  0.00  0.00    +0.000 A 
ATOM     12  C   UNL     1       9.756  10.219  19.223  0.00  0.00    +0.000 A 
ATOM     13  C   UNL     1      10.265  11.508  19.465  0.00  0.00    +0.000 A 
ATOM     14  C   UNL     1      11.190  12.042  20.330  0.00  0.00    +0.000 A 
ATOM     15  C   UNL     1      11.188  13.443  20.115  0.00  0.00    +0.000 A 
ATOM     16  C   UNL     1      10.280  13.710  19.104  0.00  0.00    +0.000 A 
ATOM     17  N   UNL     1       9.720  12.515  18.708  0.00  0.00    +0.000 N 
ATOM     18  C   UNL     1       8.748  12.277  17.730  0.00  0.00    +0.000 A 
ATOM     19  N   UNL     1       8.278  11.079  17.495  0.00  0.00    +0.000 NA
ENDBRANCH   8  11
ENDBRANCH   5   7
BRANCH   1  21
ATOM     20  C   UNL     1       2.270   7.387  17.980  0.00  0.00    +0.000 C 
ATOM     21  C   UNL     1       2.912   5.993  17.815  0.00  0.00    +0.000 C 
BRANCH  21  22
ATOM     22  C   UNL     1       2.771   5.184  19.123  0.00  0.00    +0.000 C 
BRANCH  22  23
ATOM     23  C   UNL     1       2.165   3.834  18.914  0.00  0.00    +0.000 A 
ATOM     24  N   UNL     1       1.011   3.567  18.337  0.00  0.00    +0.000 NA
ATOM     25  N   UNL     1       0.825   2.203  18.360  0.00  0.00    +0.000 NA
ATOM     26  C   UNL     1       1.869   1.669  18.947  0.00  0.00    +0.000 A 
ATOM     27  N   UNL     1       2.727   2.654  19.326  0.00  0.00    +0.000 N 
ATOM     28  C   UNL     1       3.963   2.481  20.037  0.00  0.00    +0.000 C 
ENDBRANCH  22  23
ENDBRANCH  21  22
ENDBRANCH   1  21
TORSDOF 5
ENDMDL
MODEL 7
REMARK VINA RESULT:      -8.1      4.862      7.725
REMARK  Name = 
REMARK  7 active torsions:
REMARK  status: ('A' for Active; 'I' for Inactive)
REMARK    1  A    between atoms: C_1  and  C_2
REMARK    2  A    between atoms: C_2  and  C_3
REMARK    3  A    between atoms: C_2  and  C_10
REMARK    4  A    between atoms: C_3  and  C_4
REMARK    5  A    between atoms: N_8  and  C_9
REMARK    6  A    between atoms: C_14  and  N_15
REMARK    7  A    between atoms: C_16  and  C_18
REMARK                            x       y       z     vdW  Elec       q    Type
REMARK                         _______ _______ _______ _____ _____    ______ ____
ROOT
ATOM      1  C   UNL     1       4.498   4.763  17.266  0.00  0.00    +0.000 A 
ATOM      2  C   UNL     1       3.632   3.667  17.123  0.00  0.00    +0.000 A 
ATOM      3  C   UNL     1       2.294   3.759  17.484  0.00  0.00    +0.000 A 
ATOM      4  C   UNL     1       1.800   4.945  18.019  0.00  0.00    +0.000 A 
ATOM      5  C   UNL     1       2.634   6.046  18.232  0.00  0.00    +0.000 A 
ATOM      6  C   UNL     1       3.977   5.952  17.837  0.00  0.00    +0.000 A 
ENDROOT
BRANCH   5   7
ATOM      7  N   UNL     1       2.153   7.249  18.811  0.00  0.00    +0.000 N 
ATOM      8  C   UNL     1       1.743   7.378  20.123  0.00  0.00    +0.000 C 
ATOM      9  O   UNL     1       1.825   6.504  20.984  0.00  0.00    +0.000 OA
ATOM     10  H   UNL     1       2.151   8.098  18.252  0.00  0.00    +0.000 HD
BRANCH   8  11
ATOM     11  C   UNL     1       1.166   8.729  20.482  0.00  0.00    +0.000 A 
ATOM     12  C   UNL     1       0.567   8.760  21.689  0.00  0.00    +0.000 A 
ATOM     13  C   UNL     1      -0.124   9.920  22.082  0.00  0.00    +0.000 A 
ATOM     14  C   UNL     1      -0.864  10.287  23.180  0.00  0.00    +0.000 A 
ATOM     15  C   UNL     1      -1.360  11.589  22.923  0.00  0.00    +0.000 A 
ATOM     16  C   UNL     1      -0.880  11.982  21.685  0.00  0.00    +0.000 A 
ATOM     17  N   UNL     1      -0.119  10.952  21.177  0.00  0.00    +0.000 N 
ATOM     18  C   UNL     1       0.562  10.877  19.956  0.00  0.00    +0.000 A 
ATOM     19  N   UNL     1       1.213   9.802  19.590  0.00  0.00    +0.000 NA
ENDBRANCH   8  11
ENDBRANCH   5   7
BRANCH   1  21
ATOM     20  C   UNL     1       6.570   6.101  16.509  0.00  0.00    +0.000 C 
ATOM     21  C   UNL     1       5.951   4.712  16.775  0.00  0.00    +0.000 C 
BRANCH  21  22
ATOM     22  C   UNL     1       6.081   3.823  15.519  0.00  0.00    +0.000 C 
BRANCH  22  23
ATOM     23  C   UNL     1       6.868   4.467  14.424  0.00  0.00    +0.000 A 
ATOM     24  N   UNL     1       7.833   5.354  14.562  0.00  0.00    +0.000 NA
ATOM     25  N   UNL     1       8.282   5.698  13.307  0.00  0.00    +0.000 NA
ATOM     26  C   UNL     1       7.583   5.014  12.433  0.00  0.00    +0.000 A 
ATOM     27  N   UNL     1       6.674   4.242  13.086  0.00  0.00    +0.000 N 
ATOM     28  C   UNL     1       5.694   3.382  12.482  0.00  0.00    +0.000 C 
ENDBRANCH  22  23
ENDBRANCH  21  22
ENDBRANCH   1  21
TORSDOF 5
ENDMDL
MODEL 8
REMARK VINA RESULT:      -8.1      5.003      7.239
REMARK  Name = 
REMARK  7 active torsions:
REMARK  status: ('A' for Active; 'I' for Inactive)
REMARK    1  A    between atoms: C_1  and  C_2
REMARK    2  A    between atoms: C_2  and  C_3
REMARK    3  A    between atoms: C_2  and  C_10
REMARK    4  A    between atoms: C_3  and  C_4
REMARK    5  A    between atoms: N_8  and  C_9
REMARK    6  A    between atoms: C_14  and  N_15
REMARK    7  A    between atoms: C_16  and  C_18
REMARK                            x       y       z     vdW  Elec       q    Type
REMARK                         _______ _______ _______ _____ _____    ______ ____
ROOT
ATOM      1  C   UNL     1       2.908   3.425  19.084  0.00  0.00    +0.000 A 
ATOM      2  C   UNL     1       3.026   2.573  20.195  0.00  0.00    +0.000 A 
ATOM      3  C   UNL     1       2.589   2.972  21.452  0.00  0.00    +0.000 A 
ATOM      4  C   UNL     1       2.045   4.240  21.628  0.00  0.00    +0.000 A 
ATOM      5  C   UNL     1       1.955   5.143  20.565  0.00  0.00    +0.000 A 
ATOM      6  C   UNL     1       2.373   4.721  19.294  0.00  0.00    +0.000 A 
ENDROOT
BRANCH   5   7
ATOM      7  N   UNL     1       1.437   6.453  20.736  0.00  0.00    +0.000 N 
ATOM      8  C   UNL     1       1.833   7.555  20.002  0.00  0.00    +0.000 C 
ATOM      9  O   UNL     1       2.609   7.534  19.048  0.00  0.00    +0.000 OA
ATOM     10  H   UNL     1       0.687   6.603  21.405  0.00  0.00    +0.000 HD
BRANCH   8  11
ATOM     11  C   UNL     1       1.221   8.867  20.440  0.00  0.00    +0.000 A 
ATOM     12  C   UNL     1       0.627   8.812  21.648  0.00  0.00    +0.000 A 
ATOM     13  C   UNL     1      -0.094   9.928  22.109  0.00  0.00    +0.000 A 
ATOM     14  C   UNL     1      -0.839  10.210  23.229  0.00  0.00    +0.000 A 
ATOM     15  C   UNL     1      -1.372  11.511  23.048  0.00  0.00    +0.000 A 
ATOM     16  C   UNL     1      -0.908  11.987  21.833  0.00  0.00    +0.000 A 
ATOM     17  N   UNL     1      -0.121  11.010  21.264  0.00  0.00    +0.000 N 
ATOM     18  C   UNL     1       0.555  11.023  20.040  0.00  0.00    +0.000 A 
ATOM     19  N   UNL     1       1.235   9.990  19.610  0.00  0.00    +0.000 NA
ENDBRANCH   8  11
ENDBRANCH   5   7
BRANCH   1  21
ATOM     20  C   UNL     1       4.107   1.656  17.638  0.00  0.00    +0.000 C 
ATOM     21  C   UNL     1       3.287   2.963  17.670  0.00  0.00    +0.000 C 
BRANCH  21  22
ATOM     22  C   UNL     1       4.035   4.079  16.906  0.00  0.00    +0.000 C 
BRANCH  22  23
ATOM     23  C   UNL     1       5.446   4.256  17.363  0.00  0.00    +0.000 A 
ATOM     24  N   UNL     1       5.863   4.387  18.606  0.00  0.00    +0.000 NA
ATOM     25  N   UNL     1       7.231   4.540  18.586  0.00  0.00    +0.000 NA
ATOM     26  C   UNL     1       7.618   4.497  17.333  0.00  0.00    +0.000 A 
ATOM     27  N   UNL     1       6.532   4.337  16.531  0.00  0.00    +0.000 N 
ATOM     28  C   UNL     1       6.533   4.288  15.094  0.00  0.00    +0.000 C 
ENDBRANCH  22  23
ENDBRANCH  21  22
ENDBRANCH   1  21
TORSDOF 5
ENDMDL
MODEL 9
REMARK VINA RESULT:      -8.0      1.150      1.953
REMARK  Name = 
REMARK  7 active torsions:
REMARK  status: ('A' for Active; 'I' for Inactive)
REMARK    1  A    between atoms: C_1  and  C_2
REMARK    2  A    between atoms: C_2  and  C_3
REMARK    3  A    between atoms: C_2  and  C_10
REMARK    4  A    between atoms: C_3  and  C_4
REMARK    5  A    between atoms: N_8  and  C_9
REMARK    6  A    between atoms: C_14  and  N_15
REMARK    7  A    between atoms: C_16  and  C_18
REMARK                            x       y       z     vdW  Elec       q    Type
REMARK                         _______ _______ _______ _____ _____    ______ ____
ROOT
ATOM      1  C   UNL     1       4.651   4.805  16.950  0.00  0.00    +0.000 A 
ATOM      2  C   UNL     1       5.265   4.005  15.972  0.00  0.00    +0.000 A 
ATOM      3  C   UNL     1       6.481   4.371  15.407  0.00  0.00    +0.000 A 
ATOM      4  C   UNL     1       7.096   5.557  15.795  0.00  0.00    +0.000 A 
ATOM      5  C   UNL     1       6.499   6.413  16.725  0.00  0.00    +0.000 A 
ATOM      6  C   UNL     1       5.285   6.021  17.309  0.00  0.00    +0.000 A 
ENDROOT
BRANCH   5   7
ATOM      7  N   UNL     1       7.096   7.644  17.102  0.00  0.00    +0.000 N 
ATOM      8  C   UNL     1       7.980   7.797  18.153  0.00  0.00    +0.000 C 
ATOM      9  O   UNL     1       8.437   6.884  18.838  0.00  0.00    +0.000 OA
ATOM     10  H   UNL     1       6.914   8.472  16.541  0.00  0.00    +0.000 HD
BRANCH   8  11
ATOM     11  C   UNL     1       8.398   9.224  18.432  0.00  0.00    +0.000 A 
ATOM     12  C   UNL     1       7.757  10.135  17.674  0.00  0.00    +0.000 A 
ATOM     13  C   UNL     1       8.150  11.484  17.743  0.00  0.00    +0.000 A 
ATOM     14  C   UNL     1       7.770  12.642  17.109  0.00  0.00    +0.000 A 
ATOM     15  C   UNL     1       8.624  13.668  17.587  0.00  0.00    +0.000 A 
ATOM     16  C   UNL     1       9.478  13.101  18.518  0.00  0.00    +0.000 A 
ATOM     17  N   UNL     1       9.178  11.760  18.611  0.00  0.00    +0.000 N 
ATOM     18  C   UNL     1       9.774  10.776  19.407  0.00  0.00    +0.000 A 
ATOM     19  N   UNL     1       9.405   9.521  19.352  0.00  0.00    +0.000 NA
ENDBRANCH   8  11
ENDBRANCH   5   7
BRANCH   1  21
ATOM     20  C   UNL     1       2.883   5.346  18.749  0.00  0.00    +0.000 C 
ATOM     21  C   UNL     1       3.362   4.365  17.659  0.00  0.00    +0.000 C 
BRANCH  21  22
ATOM     22  C   UNL     1       3.513   2.946  18.250  0.00  0.00    +0.000 C 
BRANCH  22  23
ATOM     23  C   UNL     1       2.936   2.820  19.623  0.00  0.00    +0.000 A 
ATOM     24  N   UNL     1       3.597   2.854  20.763  0.00  0.00    +0.000 NA
ATOM     25  N   UNL     1       2.692   2.689  21.788  0.00  0.00    +0.000 NA
ATOM     26  C   UNL     1       1.502   2.561  21.251  0.00  0.00    +0.000 A 
ATOM     27  N   UNL     1       1.609   2.619  19.897  0.00  0.00    +0.000 N 
ATOM     28  C   UNL     1       0.537   2.475  18.950  0.00  0.00    +0.000 C 
ENDBRANCH  22  23
ENDBRANCH  21  22
ENDBRANCH   1  21
TORSDOF 5
ENDMDL
