MODEL 1
REMARK VINA RESULT:      -8.0      0.000      0.000
REMARK  Name = 
REMARK  7 active torsions:
REMARK  status: ('A' for Active; 'I' for Inactive)
REMARK    1  A    between atoms: C_1  and  C_2
REMARK    2  A    between atoms: N_8  and  C_9
REMARK    3  A    between atoms: C_13  and  C_14
REMARK    4  A    between atoms: C_14  and  C_15
REMARK    5  A    between atoms: C_14  and  S_16
REMARK    6  A    between atoms: S_16  and  C_17
REMARK    7  A    between atoms: N_21  and  C_22
REMARK                            x       y       z     vdW  Elec       q    Type
REMARK                         _______ _______ _______ _____ _____    ______ ____
ROOT
ATOM      1  C   UNL     1       6.390   6.610  16.914  0.00  0.00    +0.000 A 
ATOM      2  C   UNL     1       6.881   5.532  16.172  0.00  0.00    +0.000 A 
ATOM      3  C   UNL     1       6.133   4.364  16.027  0.00  0.00    +0.000 A 
ATOM      4  C   UNL     1       4.874   4.265  16.609  0.00  0.00    +0.000 A 
ATOM      5  C   UNL     1       4.334   5.342  17.331  0.00  0.00    +0.000 A 
ATOM      6  C   UNL     1       5.125   6.497  17.511  0.00  0.00    +0.000 A 
ENDROOT
BRANCH   1  14
ATOM      7  C   UNL     1       8.345  13.012  17.889  0.00  0.00    +0.000 C 
ATOM      8  C   UNL     1       8.998  11.641  17.943  0.00  0.00    +0.000 C 
ATOM      9  C   UNL     1       9.317  11.205  19.372  0.00  0.00    +0.000 C 
ATOM     10  C   UNL     1       9.437   9.697  19.246  0.00  0.00    +0.000 C 
ATOM     11  N   UNL     1       8.495   9.340  18.196  0.00  0.00    +0.000 N 
ATOM     12  C   UNL     1       8.009   8.047  18.123  0.00  0.00    +0.000 C 
ATOM     13  O   UNL     1       8.383   7.204  18.936  0.00  0.00    +0.000 OA
ATOM     14  N   UNL     1       7.125   7.808  17.095  0.00  0.00    +0.000 N 
ATOM     15  C   UNL     1       8.103  10.510  17.421  0.00  0.00    +0.000 C 
ATOM     16  H   UNL     1       7.195   8.421  16.300  0.00  0.00    +0.000 HD
ENDBRANCH   1  14
BRANCH   5  17
ATOM     17  C   UNL     1       2.899   5.300  17.844  0.00  0.00    +0.000 C 
ATOM     18  C   UNL     1       2.794   5.767  19.299  0.00  0.00    +0.000 C 
BRANCH  17  19
ATOM     19  S   UNL     1       2.193   3.604  17.765  0.00  0.00    +0.000 S 
BRANCH  19  20
ATOM     20  C   UNL     1       2.014   3.221  19.437  0.00  0.00    +0.000 A 
ATOM     21  N   UNL     1       0.935   3.375  20.171  0.00  0.00    +0.000 NA
ATOM     22  N   UNL     1       1.265   3.038  21.467  0.00  0.00    +0.000 NA
ATOM     23  C   UNL     1       2.531   2.682  21.478  0.00  0.00    +0.000 A 
ATOM     24  N   UNL     1       3.039   2.765  20.215  0.00  0.00    +0.000 N 
ATOM     25  C   UNL     1       4.375   2.422  19.817  0.00  0.00    +0.000 C 
ENDBRANCH  19  20
ENDBRANCH  17  19
ENDBRANCH   5  17
TORSDOF 4
ENDMDL
MODEL 2
REMARK VINA RESULT:      -7.7      0.670      1.290
REMARK  Name = 
REMARK  7 active torsions:
REMARK  status: ('A' for Active; 'I' for Inactive)
REMARK    1  A    between atoms: C_1  and  C_2
REMARK    2  A    between atoms: N_8  and  C_9
REMARK    3  A    between atoms: C_13  and  C_14
REMARK    4  A    between atoms: C_14  and  C_15
REMARK    5  A    between atoms: C_14  and  S_16
REMARK    6  A    between atoms: S_16  and  C_17
REMARK    7  A    between atoms: N_21  and  C_22
REMARK                            x       y       z     vdW  Elec       q    Type
REMARK                         _______ _______ _______ _____ _____    ______ ____
ROOT
ATOM      1  C   UNL     1       6.529   6.701  16.861  0.00  0.00    +0.000 A 
ATOM      2  C   UNL     1       7.053   5.651  16.102  0.00  0.00    +0.000 A 
ATOM      3  C   UNL     1       6.338   4.465  15.932  0.00  0.00    +0.000 A 
ATOM      4  C   UNL     1       5.079   4.321  16.506  0.00  0.00    +0.000 A 
ATOM      5  C   UNL     1       4.507   5.369  17.245  0.00  0.00    +0.000 A 
ATOM      6  C   UNL     1       5.265   6.542  17.449  0.00  0.00    +0.000 A 
ENDROOT
BRANCH   1  14
ATOM      7  C   UNL     1       8.303  13.139  17.933  0.00  0.00    +0.000 C 
ATOM      8  C   UNL     1       8.990  11.785  17.986  0.00  0.00    +0.000 C 
ATOM      9  C   UNL     1       9.293  11.342  19.417  0.00  0.00    +0.000 C 
ATOM     10  C   UNL     1       9.454   9.840  19.279  0.00  0.00    +0.000 C 
ATOM     11  N   UNL     1       8.541   9.469  18.207  0.00  0.00    +0.000 N 
ATOM     12  C   UNL     1       8.089   8.166  18.114  0.00  0.00    +0.000 C 
ATOM     13  O   UNL     1       8.470   7.324  18.925  0.00  0.00    +0.000 OA
ATOM     14  N   UNL     1       7.230   7.915  17.067  0.00  0.00    +0.000 N 
ATOM     15  C   UNL     1       8.134  10.637  17.437  0.00  0.00    +0.000 C 
ATOM     16  H   UNL     1       7.299   8.538  16.279  0.00  0.00    +0.000 HD
ENDBRANCH   1  14
BRANCH   5  17
ATOM     17  C   UNL     1       3.072   5.279  17.750  0.00  0.00    +0.000 C 
ATOM     18  C   UNL     1       2.917   5.870  19.155  0.00  0.00    +0.000 C 
BRANCH  17  19
ATOM     19  S   UNL     1       2.480   3.540  17.825  0.00  0.00    +0.000 S 
BRANCH  19  20
ATOM     20  C   UNL     1       3.155   3.003  19.318  0.00  0.00    +0.000 A 
ATOM     21  N   UNL     1       4.405   2.663  19.541  0.00  0.00    +0.000 NA
ATOM     22  N   UNL     1       4.482   2.203  20.839  0.00  0.00    +0.000 NA
ATOM     23  C   UNL     1       3.280   2.287  21.366  0.00  0.00    +0.000 A 
ATOM     24  N   UNL     1       2.415   2.803  20.446  0.00  0.00    +0.000 N 
ATOM     25  C   UNL     1       1.023   3.081  20.659  0.00  0.00    +0.000 C 
ENDBRANCH  19  20
ENDBRANCH  17  19
ENDBRANCH   5  17
TORSDOF 4
ENDMDL
MODEL 3
REMARK VINA RESULT:      -7.7      3.529      6.582
REMARK  Name = 
REMARK  7 active torsions:
REMARK  status: ('A' for Active; 'I' for Inactive)
REMARK    1  A    between atoms: C_1  and  C_2
REMARK    2  A    between atoms: N_8  and  C_9
REMARK    3  A    between atoms: C_13  and  C_14
REMARK    4  A    between atoms: C_14  and  C_15
REMARK    5  A    between atoms: C_14  and  S_16
REMARK    6  A    between atoms: S_16  and  C_17
REMARK    7  A    between atoms: N_21  and  C_22
REMARK                            x       y       z     vdW  Elec       q    Type
REMARK                         _______ _______ _______ _____ _____    ______ ____
ROOT
ATOM      1  C   UNL     1       2.702   6.043  18.214  0.00  0.00    +0.000 A 
ATOM      2  C   UNL     1       2.065   4.816  18.420  0.00  0.00    +0.000 A 
ATOM      3  C   UNL     1       2.505   3.664  17.767  0.00  0.00    +0.000 A 
ATOM      4  C   UNL     1       3.600   3.721  16.913  0.00  0.00    +0.000 A 
ATOM      5  C   UNL     1       4.287   4.930  16.710  0.00  0.00    +0.000 A 
ATOM      6  C   UNL     1       3.798   6.095  17.338  0.00  0.00    +0.000 A 
ENDROOT
BRANCH   1  14
ATOM      7  C   UNL     1      -0.501  11.721  20.017  0.00  0.00    +0.000 C 
ATOM      8  C   UNL     1       0.507  10.778  20.651  0.00  0.00    +0.000 C 
ATOM      9  C   UNL     1      -0.106   9.939  21.772  0.00  0.00    +0.000 C 
ATOM     10  C   UNL     1       0.849   8.764  21.876  0.00  0.00    +0.000 C 
ATOM     11  N   UNL     1       1.332   8.560  20.519  0.00  0.00    +0.000 N 
ATOM     12  C   UNL     1       1.848   7.330  20.154  0.00  0.00    +0.000 C 
ATOM     13  O   UNL     1       1.911   6.421  20.979  0.00  0.00    +0.000 OA
ATOM     14  N   UNL     1       2.278   7.237  18.848  0.00  0.00    +0.000 N 
ATOM     15  C   UNL     1       1.058   9.723  19.684  0.00  0.00    +0.000 C 
ATOM     16  H   UNL     1       2.536   8.103  18.405  0.00  0.00    +0.000 HD
ENDBRANCH   1  14
BRANCH   5  17
ATOM     17  C   UNL     1       5.574   4.972  15.896  0.00  0.00    +0.000 C 
ATOM     18  C   UNL     1       5.583   3.927  14.777  0.00  0.00    +0.000 C 
BRANCH  17  19
ATOM     19  S   UNL     1       7.056   4.662  16.940  0.00  0.00    +0.000 S 
BRANCH  19  20
ATOM     20  C   UNL     1       7.468   6.258  17.447  0.00  0.00    +0.000 A 
ATOM     21  N   UNL     1       7.446   7.349  16.714  0.00  0.00    +0.000 NA
ATOM     22  N   UNL     1       7.946   8.376  17.487  0.00  0.00    +0.000 NA
ATOM     23  C   UNL     1       8.247   7.879  18.667  0.00  0.00    +0.000 A 
ATOM     24  N   UNL     1       7.945   6.549  18.692  0.00  0.00    +0.000 N 
ATOM     25  C   UNL     1       8.096   5.670  19.817  0.00  0.00    +0.000 C 
ENDBRANCH  19  20
ENDBRANCH  17  19
ENDBRANCH   5  17
TORSDOF 4
ENDMDL
MODEL 4
REMARK VINA RESULT:      -7.6      4.975      7.346
REMARK  Name = 
REMARK  7 active torsions:
REMARK  status: ('A' for Active; 'I' for Inactive)
REMARK    1  A    between atoms: C_1  and  C_2
REMARK    2  A    between atoms: N_8  and  C_9
REMARK    3  A    between atoms: C_13  and  C_14
REMARK    4  A    between atoms: C_14  and  C_15
REMARK    5  A    between atoms: C_14  and  S_16
REMARK    6  A    between atoms: S_16  and  C_17
REMARK    7  A    between atoms: N_21  and  C_22
REMARK                            x       y       z     vdW  Elec       q    Type
REMARK                         _______ _______ _______ _____ _____    ______ ____
ROOT
ATOM      1  C   UNL     1       3.033   6.615  18.347  0.00  0.00    +0.000 A 
ATOM      2  C   UNL     1       2.730   6.184  19.641  0.00  0.00    +0.000 A 
ATOM      3  C   UNL     1       1.977   6.981  20.502  0.00  0.00    +0.000 A 
ATOM      4  C   UNL     1       1.501   8.216  20.074  0.00  0.00    +0.000 A 
ATOM      5  C   UNL     1       1.755   8.665  18.768  0.00  0.00    +0.000 A 
ATOM      6  C   UNL     1       2.562   7.869  17.927  0.00  0.00    +0.000 A 
ENDROOT
BRANCH   1  14
ATOM      7  C   UNL     1       5.704   3.635  12.894  0.00  0.00    +0.000 C 
ATOM      8  C   UNL     1       6.102   3.830  14.347  0.00  0.00    +0.000 C 
ATOM      9  C   UNL     1       7.249   4.827  14.507  0.00  0.00    +0.000 C 
ATOM     10  C   UNL     1       7.119   5.261  15.955  0.00  0.00    +0.000 C 
ATOM     11  N   UNL     1       5.691   5.211  16.228  0.00  0.00    +0.000 N 
ATOM     12  C   UNL     1       5.166   5.955  17.269  0.00  0.00    +0.000 C 
ATOM     13  O   UNL     1       5.908   6.642  17.968  0.00  0.00    +0.000 OA
ATOM     14  N   UNL     1       3.805   5.840  17.447  0.00  0.00    +0.000 N 
ATOM     15  C   UNL     1       4.990   4.432  15.216  0.00  0.00    +0.000 C 
ATOM     16  H   UNL     1       3.384   4.995  17.099  0.00  0.00    +0.000 HD
ENDBRANCH   1  14
BRANCH   5  17
ATOM     17  C   UNL     1       1.115   9.943  18.241  0.00  0.00    +0.000 C 
ATOM     18  C   UNL     1       2.126  11.088  18.124  0.00  0.00    +0.000 C 
BRANCH  17  19
ATOM     19  S   UNL     1      -0.245  10.529  19.331  0.00  0.00    +0.000 S 
BRANCH  19  20
ATOM     20  C   UNL     1      -1.581  10.559  18.241  0.00  0.00    +0.000 A 
ATOM     21  N   UNL     1      -1.702   9.878  17.123  0.00  0.00    +0.000 NA
ATOM     22  N   UNL     1      -2.876  10.279  16.520  0.00  0.00    +0.000 NA
ATOM     23  C   UNL     1      -3.435  11.184  17.295  0.00  0.00    +0.000 A 
ATOM     24  N   UNL     1      -2.660  11.378  18.401  0.00  0.00    +0.000 N 
ATOM     25  C   UNL     1      -2.956  12.259  19.495  0.00  0.00    +0.000 C 
ENDBRANCH  19  20
ENDBRANCH  17  19
ENDBRANCH   5  17
TORSDOF 4
ENDMDL
MODEL 5
REMARK VINA RESULT:      -7.5      1.212      1.683
REMARK  Name = 
REMARK  7 active torsions:
REMARK  status: ('A' for Active; 'I' for Inactive)
REMARK    1  A    between atoms: C_1  and  C_2
REMARK    2  A    between atoms: N_8  and  C_9
REMARK    3  A    between atoms: C_13  and  C_14
REMARK    4  A    between atoms: C_14  and  C_15
REMARK    5  A    between atoms: C_14  and  S_16
REMARK    6  A    between atoms: S_16  and  C_17
REMARK    7  A    between atoms: N_21  and  C_22
REMARK                            x       y       z     vdW  Elec       q    Type
REMARK                         _______ _______ _______ _____ _____    ______ ____
ROOT
ATOM      1  C   UNL     1       6.430   6.924  16.985  0.00  0.00    +0.000 A 
ATOM      2  C   UNL     1       6.892   5.853  16.215  0.00  0.00    +0.000 A 
ATOM      3  C   UNL     1       6.135   4.690  16.081  0.00  0.00    +0.000 A 
ATOM      4  C   UNL     1       4.895   4.588  16.704  0.00  0.00    +0.000 A 
ATOM      5  C   UNL     1       4.384   5.657  17.456  0.00  0.00    +0.000 A 
ATOM      6  C   UNL     1       5.185   6.808  17.623  0.00  0.00    +0.000 A 
ENDROOT
BRANCH   1  14
ATOM      7  C   UNL     1       8.441  13.303  17.989  0.00  0.00    +0.000 C 
ATOM      8  C   UNL     1       9.093  11.931  17.989  0.00  0.00    +0.000 C 
ATOM      9  C   UNL     1       9.473  11.468  19.395  0.00  0.00    +0.000 C 
ATOM     10  C   UNL     1       9.584   9.963  19.237  0.00  0.00    +0.000 C 
ATOM     11  N   UNL     1       8.596   9.626  18.222  0.00  0.00    +0.000 N 
ATOM     12  C   UNL     1       8.104   8.336  18.148  0.00  0.00    +0.000 C 
ATOM     13  O   UNL     1       8.512   7.477  18.927  0.00  0.00    +0.000 OA
ATOM     14  N   UNL     1       7.175   8.117  17.155  0.00  0.00    +0.000 N 
ATOM     15  C   UNL     1       8.173  10.811  17.487  0.00  0.00    +0.000 C 
ATOM     16  H   UNL     1       7.211   8.745  16.370  0.00  0.00    +0.000 HD
ENDBRANCH   1  14
BRANCH   5  17
ATOM     17  C   UNL     1       2.968   5.614  18.017  0.00  0.00    +0.000 C 
ATOM     18  C   UNL     1       2.298   6.992  17.998  0.00  0.00    +0.000 C 
BRANCH  17  19
ATOM     19  S   UNL     1       2.937   5.020  19.757  0.00  0.00    +0.000 S 
BRANCH  19  20
ATOM     20  C   UNL     1       3.530   3.410  19.588  0.00  0.00    +0.000 A 
ATOM     21  N   UNL     1       4.713   2.964  19.948  0.00  0.00    +0.000 NA
ATOM     22  N   UNL     1       4.800   1.649  19.539  0.00  0.00    +0.000 NA
ATOM     23  C   UNL     1       3.666   1.337  18.951  0.00  0.00    +0.000 A 
ATOM     24  N   UNL     1       2.829   2.413  18.975  0.00  0.00    +0.000 N 
ATOM     25  C   UNL     1       1.487   2.451  18.466  0.00  0.00    +0.000 C 
ENDBRANCH  19  20
ENDBRANCH  17  19
ENDBRANCH   5  17
TORSDOF 4
ENDMDL
MODEL 6
REMARK VINA RESULT:      -7.3      4.564      6.931
REMARK  Name = 
REMARK  7 active torsions:
REMARK  status: ('A' for Active; 'I' for Inactive)
REMARK    1  A    between atoms: C_1  and  C_2
REMARK    2  A    between atoms: N_8  and  C_9
REMARK    3  A    between atoms: C_13  and  C_14
REMARK    4  A    between atoms: C_14  and  C_15
REMARK    5  A    between atoms: C_14  and  S_16
REMARK    6  A    between atoms: S_16  and  C_17
REMARK    7  A    between atoms: N_21  and  C_22
REMARK                            x       y       z     vdW  Elec       q    Type
REMARK                         _______ _______ _______ _____ _____    ______ ____
ROOT
ATOM      1  C   UNL     1       2.850   5.848  18.101  0.00  0.00    +0.000 A 
ATOM      2  C   UNL     1       2.013   4.739  17.948  0.00  0.00    +0.000 A 
ATOM      3  C   UNL     1       2.486   3.562  17.368  0.00  0.00    +0.000 A 
ATOM      4  C   UNL     1       3.809   3.472  16.948  0.00  0.00    +0.000 A 
ATOM      5  C   UNL     1       4.687   4.555  17.119  0.00  0.00    +0.000 A 
ATOM      6  C   UNL     1       4.179   5.755  17.661  0.00  0.00    +0.000 A 
ENDROOT
BRANCH   1  14
ATOM      7  C   UNL     1      -0.424  11.578  19.584  0.00  0.00    +0.000 C 
ATOM      8  C   UNL     1       0.571  10.667  20.282  0.00  0.00    +0.000 C 
ATOM      9  C   UNL     1      -0.069   9.872  21.420  0.00  0.00    +0.000 C 
ATOM     10  C   UNL     1       0.889   8.708  21.598  0.00  0.00    +0.000 C 
ATOM     11  N   UNL     1       1.408   8.450  20.263  0.00  0.00    +0.000 N 
ATOM     12  C   UNL     1       1.939   7.209  19.963  0.00  0.00    +0.000 C 
ATOM     13  O   UNL     1       1.983   6.335  20.826  0.00  0.00    +0.000 OA
ATOM     14  N   UNL     1       2.404   7.064  18.674  0.00  0.00    +0.000 N 
ATOM     15  C   UNL     1       1.152   9.576  19.374  0.00  0.00    +0.000 C 
ATOM     16  H   UNL     1       2.670   7.913  18.203  0.00  0.00    +0.000 HD
ENDBRANCH   1  14
BRANCH   5  17
ATOM     17  C   UNL     1       6.171   4.417  16.801  0.00  0.00    +0.000 C 
ATOM     18  C   UNL     1       7.048   4.637  18.038  0.00  0.00    +0.000 C 
BRANCH  17  19
ATOM     19  S   UNL     1       6.714   5.628  15.529  0.00  0.00    +0.000 S 
BRANCH  19  20
ATOM     20  C   UNL     1       6.541   4.713  14.077  0.00  0.00    +0.000 A 
ATOM     21  N   UNL     1       5.663   3.762  13.844  0.00  0.00    +0.000 NA
ATOM     22  N   UNL     1       5.946   3.235  12.601  0.00  0.00    +0.000 NA
ATOM     23  C   UNL     1       6.979   3.888  12.115  0.00  0.00    +0.000 A 
ATOM     24  N   UNL     1       7.376   4.841  13.006  0.00  0.00    +0.000 N 
ATOM     25  C   UNL     1       8.446   5.780  12.818  0.00  0.00    +0.000 C 
ENDBRANCH  19  20
ENDBRANCH  17  19
ENDBRANCH   5  17
TORSDOF 4
ENDMDL
MODEL 7
REMARK VINA RESULT:      -7.3      1.142      1.274
REMARK  Name = 
REMARK  7 active torsions:
REMARK  status: ('A' for Active; 'I' for Inactive)
REMARK    1  A    between atoms: C_1  and  C_2
REMARK    2  A    between atoms: N_8  and  C_9
REMARK    3  A    between atoms: C_13  and  C_14
REMARK    4  A    between atoms: C_14  and  C_15
REMARK    5  A    between atoms: C_14  and  S_16
REMARK    6  A    between atoms: S_16  and  C_17
REMARK    7  A    between atoms: N_21  and  C_22
REMARK                            x       y       z     vdW  Elec       q    Type
REMARK                         _______ _______ _______ _____ _____    ______ ____
ROOT
ATOM      1  C   UNL     1       6.482   7.193  17.108  0.00  0.00    +0.000 A 
ATOM      2  C   UNL     1       6.955   6.044  16.467  0.00  0.00    +0.000 A 
ATOM      3  C   UNL     1       6.156   4.907  16.357  0.00  0.00    +0.000 A 
ATOM      4  C   UNL     1       4.864   4.908  16.873  0.00  0.00    +0.000 A 
ATOM      5  C   UNL     1       4.344   6.057  17.492  0.00  0.00    +0.000 A 
ATOM      6  C   UNL     1       5.183   7.182  17.639  0.00  0.00    +0.000 A 
ENDROOT
BRANCH   1  14
ATOM      7  C   UNL     1       8.713  13.516  17.994  0.00  0.00    +0.000 C 
ATOM      8  C   UNL     1       9.320  12.124  18.003  0.00  0.00    +0.000 C 
ATOM      9  C   UNL     1       9.707  11.667  19.409  0.00  0.00    +0.000 C 
ATOM     10  C   UNL     1       9.767  10.157  19.270  0.00  0.00    +0.000 C 
ATOM     11  N   UNL     1       8.753   9.840  18.275  0.00  0.00    +0.000 N 
ATOM     12  C   UNL     1       8.219   8.565  18.226  0.00  0.00    +0.000 C 
ATOM     13  O   UNL     1       8.611   7.704  19.011  0.00  0.00    +0.000 OA
ATOM     14  N   UNL     1       7.268   8.363  17.250  0.00  0.00    +0.000 N 
ATOM     15  C   UNL     1       8.358  11.028  17.530  0.00  0.00    +0.000 C 
ATOM     16  H   UNL     1       7.312   8.979  16.455  0.00  0.00    +0.000 HD
ENDBRANCH   1  14
BRANCH   5  17
ATOM     17  C   UNL     1       2.884   6.119  17.925  0.00  0.00    +0.000 C 
ATOM     18  C   UNL     1       2.372   7.560  18.016  0.00  0.00    +0.000 C 
BRANCH  17  19
ATOM     19  S   UNL     1       2.626   5.347  19.574  0.00  0.00    +0.000 S 
BRANCH  19  20
ATOM     20  C   UNL     1       2.043   3.782  19.140  0.00  0.00    +0.000 A 
ATOM     21  N   UNL     1       0.847   3.485  18.683  0.00  0.00    +0.000 NA
ATOM     22  N   UNL     1       0.780   2.112  18.566  0.00  0.00    +0.000 NA
ATOM     23  C   UNL     1       1.939   1.620  18.947  0.00  0.00    +0.000 A 
ATOM     24  N   UNL     1       2.772   2.640  19.301  0.00  0.00    +0.000 N 
ATOM     25  C   UNL     1       4.134   2.506  19.735  0.00  0.00    +0.000 C 
ENDBRANCH  19  20
ENDBRANCH  17  19
ENDBRANCH   5  17
TORSDOF 4
ENDMDL
MODEL 8
REMARK VINA RESULT:      -7.3      5.195      7.538
REMARK  Name = 
REMARK  7 active torsions:
REMARK  status: ('A' for Active; 'I' for Inactive)
REMARK    1  A    between atoms: C_1  and  C_2
REMARK    2  A    between atoms: N_8  and  C_9
REMARK    3  A    between atoms: C_13  and  C_14
REMARK    4  A    between atoms: C_14  and  C_15
REMARK    5  A    between atoms: C_14  and  S_16
REMARK    6  A    between atoms: S_16  and  C_17
REMARK    7  A    between atoms: N_21  and  C_22
REMARK                            x       y       z     vdW  Elec       q    Type
REMARK                         _______ _______ _______ _____ _____    ______ ____
ROOT
ATOM      1  C   UNL     1       2.546   7.027  18.875  0.00  0.00    +0.000 A 
ATOM      2  C   UNL     1       2.096   6.681  20.152  0.00  0.00    +0.000 A 
ATOM      3  C   UNL     1       1.343   7.575  20.912  0.00  0.00    +0.000 A 
ATOM      4  C   UNL     1       1.014   8.824  20.396  0.00  0.00    +0.000 A 
ATOM      5  C   UNL     1       1.417   9.192  19.102  0.00  0.00    +0.000 A 
ATOM      6  C   UNL     1       2.222   8.295  18.367  0.00  0.00    +0.000 A 
ENDROOT
BRANCH   1  14
ATOM      7  C   UNL     1       6.095   4.090  13.922  0.00  0.00    +0.000 C 
ATOM      8  C   UNL     1       5.904   3.877  15.414  0.00  0.00    +0.000 C 
ATOM      9  C   UNL     1       7.139   4.273  16.222  0.00  0.00    +0.000 C 
ATOM     10  C   UNL     1       6.576   4.494  17.614  0.00  0.00    +0.000 C 
ATOM     11  N   UNL     1       5.229   4.996  17.390  0.00  0.00    +0.000 N 
ATOM     12  C   UNL     1       4.595   5.719  18.384  0.00  0.00    +0.000 C 
ATOM     13  O   UNL     1       5.164   5.923  19.454  0.00  0.00    +0.000 OA
ATOM     14  N   UNL     1       3.323   6.151  18.077  0.00  0.00    +0.000 N 
ATOM     15  C   UNL     1       4.793   4.742  16.023  0.00  0.00    +0.000 C 
ATOM     16  H   UNL     1       2.833   5.620  17.377  0.00  0.00    +0.000 HD
ENDBRANCH   1  14
BRANCH   5  17
ATOM     17  C   UNL     1       0.937  10.494  18.472  0.00  0.00    +0.000 C 
ATOM     18  C   UNL     1       2.065  11.523  18.347  0.00  0.00    +0.000 C 
BRANCH  17  19
ATOM     19  S   UNL     1      -0.406  11.276  19.455  0.00  0.00    +0.000 S 
BRANCH  19  20
ATOM     20  C   UNL     1      -1.798  10.897  18.511  0.00  0.00    +0.000 A 
ATOM     21  N   UNL     1      -1.855  10.080  17.482  0.00  0.00    +0.000 NA
ATOM     22  N   UNL     1      -3.133  10.153  16.968  0.00  0.00    +0.000 NA
ATOM     23  C   UNL     1      -3.814  11.003  17.705  0.00  0.00    +0.000 A 
ATOM     24  N   UNL     1      -3.015  11.484  18.701  0.00  0.00    +0.000 N 
ATOM     25  C   UNL     1      -3.409  12.404  19.730  0.00  0.00    +0.000 C 
ENDBRANCH  19  20
ENDBRANCH  17  19
ENDBRANCH   5  17
TORSDOF 4
ENDMDL
MODEL 9
REMARK VINA RESULT:      -7.3      4.314      7.035
REMARK  Name = 
REMARK  7 active torsions:
REMARK  status: ('A' for Active; 'I' for Inactive)
REMARK    1  A    between atoms: C_1  and  C_2
REMARK    2  A    between atoms: N_8  and  C_9
REMARK    3  A    between atoms: C_13  and  C_14
REMARK    4  A    between atoms: C_14  and  C_15
REMARK    5  A    between atoms: C_14  and  S_16
REMARK    6  A    between atoms: S_16  and  C_17
REMARK    7  A    between atoms: N_21  and  C_22
REMARK                            x       y       z     vdW  Elec       q    Type
REMARK                         _______ _______ _______ _____ _____    ______ ____
ROOT
ATOM      1  C   UNL     1       3.147   5.190  18.706  0.00  0.00    +0.000 A 
ATOM      2  C   UNL     1       2.566   4.313  19.626  0.00  0.00    +0.000 A 
ATOM      3  C   UNL     1       1.786   4.795  20.678  0.00  0.00    +0.000 A 
ATOM      4  C   UNL     1       1.563   6.161  20.813  0.00  0.00    +0.000 A 
ATOM      5  C   UNL     1       2.102   7.068  19.886  0.00  0.00    +0.000 A 
ATOM      6  C   UNL     1       2.930   6.568  18.858  0.00  0.00    +0.000 A 
ENDROOT
BRANCH   1  14
ATOM      7  C   UNL     1       5.741   3.691  12.642  0.00  0.00    +0.000 C 
ATOM      8  C   UNL     1       6.251   3.754  14.071  0.00  0.00    +0.000 C 
ATOM      9  C   UNL     1       7.183   4.943  14.305  0.00  0.00    +0.000 C 
ATOM     10  C   UNL     1       7.130   5.123  15.811  0.00  0.00    +0.000 C 
ATOM     11  N   UNL     1       5.781   4.723  16.182  0.00  0.00    +0.000 N 
ATOM     12  C   UNL     1       5.236   5.175  17.370  0.00  0.00    +0.000 C 
ATOM     13  O   UNL     1       5.897   5.899  18.113  0.00  0.00    +0.000 OA
ATOM     14  N   UNL     1       3.955   4.741  17.633  0.00  0.00    +0.000 N 
ATOM     15  C   UNL     1       5.144   3.966  15.112  0.00  0.00    +0.000 C 
ATOM     16  H   UNL     1       3.678   3.885  17.183  0.00  0.00    +0.000 HD
ENDBRANCH   1  14
BRANCH   5  17
ATOM     17  C   UNL     1       1.741   8.547  19.938  0.00  0.00    +0.000 C 
ATOM     18  C   UNL     1       0.510   8.810  20.811  0.00  0.00    +0.000 C 
BRANCH  17  19
ATOM     19  S   UNL     1       1.377   9.223  18.267  0.00  0.00    +0.000 S 
BRANCH  19  20
ATOM     20  C   UNL     1       0.793  10.801  18.647  0.00  0.00    +0.000 A 
ATOM     21  N   UNL     1       1.483  11.794  19.161  0.00  0.00    +0.000 NA
ATOM     22  N   UNL     1       0.603  12.832  19.393  0.00  0.00    +0.000 NA
ATOM     23  C   UNL     1      -0.590  12.438  19.005  0.00  0.00    +0.000 A 
ATOM     24  N   UNL     1      -0.514  11.169  18.511  0.00  0.00    +0.000 N 
ATOM     25  C   UNL     1      -1.600  10.412  17.957  0.00  0.00    +0.000 C 
ENDBRANCH  19  20
ENDBRANCH  17  19
ENDBRANCH   5  17
TORSDOF 4
ENDMDL
