MODEL 1
REMARK VINA RESULT:      -9.6      0.000      0.000
REMARK  Name = 
REMARK  9 active torsions:
REMARK  status: ('A' for Active; 'I' for Inactive)
REMARK    1  A    between atoms: C_1  and  N_2
REMARK    2  A    between atoms: C_6  and  C_7
REMARK    3  A    between atoms: C_7  and  C_8
REMARK    4  A    between atoms: C_8  and  C_9
REMARK    5  A    between atoms: C_13  and  N_14
REMARK    6  A    between atoms: C_15  and  C_17
REMARK    7  A    between atoms: C_19  and  C_20
REMARK    8  A    between atoms: C_20  and  N_21
REMARK    9  A    between atoms: C_30  and  C_31
REMARK                            x       y       z     vdW  Elec       q    Type
REMARK                         _______ _______ _______ _____ _____    ______ ____
ROOT
ATOM      1  N   UNL     1       1.713   8.633  17.651  0.00  0.00    +0.000 N 
ATOM      2  C   UNL     1       2.308   7.807  18.584  0.00  0.00    +0.000 C 
ATOM      3  O   UNL     1       2.059   7.762  19.780  0.00  0.00    +0.000 OA
ATOM      4  H   UNL     1       1.970   8.457  16.682  0.00  0.00    +0.000 HD
ENDROOT
BRANCH   1   9
ATOM      5  C   UNL     1       0.410  11.821  19.030  0.00  0.00    +0.000 A 
ATOM      6  C   UNL     1      -0.950  11.711  18.675  0.00  0.00    +0.000 A 
ATOM      7  C   UNL     1      -1.431  10.616  17.965  0.00  0.00    +0.000 A 
ATOM      8  C   UNL     1      -0.562   9.591  17.604  0.00  0.00    +0.000 A 
ATOM      9  C   UNL     1       0.791   9.657  17.933  0.00  0.00    +0.000 A 
ATOM     10  C   UNL     1       1.262  10.772  18.625  0.00  0.00    +0.000 A 
BRANCH   5  11
ATOM     11  C   UNL     1       0.969  13.038  19.898  0.00  0.00    +0.000 C 
ATOM     12  C   UNL     1       1.014  14.422  19.182  0.00  0.00    +0.000 C 
ATOM     13  O   UNL     1       2.443  14.518  19.316  0.00  0.00    +0.000 OA
ATOM     14  C   UNL     1       2.510  13.231  19.963  0.00  0.00    +0.000 C 
BRANCH  11  15
ATOM     15  C   UNL     1       0.233  13.086  21.254  0.00  0.00    +0.000 C 
BRANCH  15  21
ATOM     16  C   UNL     1      -2.336  12.010  22.919  0.00  0.00    +0.000 C 
ATOM     17  N   UNL     1      -1.083  11.352  22.661  0.00  0.00    +0.000 N 
ATOM     18  C   UNL     1      -0.754  10.129  23.174  0.00  0.00    +0.000 A 
ATOM     19  N   UNL     1       0.442   9.787  22.766  0.00  0.00    +0.000 NA
ATOM     20  N   UNL     1       0.916  10.804  21.978  0.00  0.00    +0.000 NA
ATOM     21  C   UNL     1       0.008  11.762  21.925  0.00  0.00    +0.000 A 
ENDBRANCH  15  21
ENDBRANCH  11  15
ENDBRANCH   5  11
ENDBRANCH   1   9
BRANCH   2  22
ATOM     22  C   UNL     1       3.349   6.892  18.034  0.00  0.00    +0.000 A 
ATOM     23  C   UNL     1       3.000   5.571  17.810  0.00  0.00    +0.000 A 
ATOM     24  C   UNL     1       3.973   4.693  17.349  0.00  0.00    +0.000 A 
ATOM     25  C   UNL     1       5.255   5.207  17.109  0.00  0.00    +0.000 A 
ATOM     26  C   UNL     1       5.536   6.564  17.335  0.00  0.00    +0.000 A 
ATOM     27  N   UNL     1       4.585   7.410  17.812  0.00  0.00    +0.000 NA
BRANCH  26  28
ATOM     28  C   UNL     1       6.911   7.134  17.066  0.00  0.00    +0.000 C 
ATOM     29  C   UNL     1       7.363   8.422  17.716  0.00  0.00    +0.000 C 
ATOM     30  C   UNL     1       7.937   7.118  18.180  0.00  0.00    +0.000 C 
ENDBRANCH  26  28
BRANCH  24  31
ATOM     31  C   UNL     1       3.614   3.249  17.096  0.00  0.00    +0.000 C 
BRANCH  31  32
ATOM     32  N   UNL     1       3.339   2.488  18.318  0.00  0.00    +0.000 NA
ATOM     33  C   UNL     1       3.934   3.085  19.528  0.00  0.00    +0.000 C 
ATOM     34  C   UNL     1       3.043   2.604  20.624  0.00  0.00    +0.000 C 
ATOM     35  C   UNL     1       1.780   2.112  19.994  0.00  0.00    +0.000 C 
ATOM     36  C   UNL     1       1.888   2.331  18.527  0.00  0.00    +0.000 C 
ATOM     37  C   UNL     1       1.750   3.258  20.929  0.00  0.00    +0.000 C 
ATOM     38  F   UNL     1       1.458   4.526  20.486  0.00  0.00    +0.000 F 
ATOM     39  F   UNL     1       1.173   3.113  22.170  0.00  0.00    +0.000 F 
ENDBRANCH  31  32
ENDBRANCH  24  31
ENDBRANCH   2  22
TORSDOF 8
ENDMDL
MODEL 2
REMARK VINA RESULT:      -9.6      1.875      2.762
REMARK  Name = 
REMARK  9 active torsions:
REMARK  status: ('A' for Active; 'I' for Inactive)
REMARK    1  A    between atoms: C_1  and  N_2
REMARK    2  A    between atoms: C_6  and  C_7
REMARK    3  A    between atoms: C_7  and  C_8
REMARK    4  A    between atoms: C_8  and  C_9
REMARK    5  A    between atoms: C_13  and  N_14
REMARK    6  A    between atoms: C_15  and  C_17
REMARK    7  A    between atoms: C_19  and  C_20
REMARK    8  A    between atoms: C_20  and  N_21
REMARK    9  A    between atoms: C_30  and  C_31
REMARK                            x       y       z     vdW  Elec       q    Type
REMARK                         _______ _______ _______ _____ _____    ______ ____
ROOT
ATOM      1  N   UNL     1       2.180   7.768  19.800  0.00  0.00    +0.000 N 
ATOM      2  C   UNL     1       2.479   7.839  18.454  0.00  0.00    +0.000 C 
ATOM      3  O   UNL     1       2.082   8.683  17.663  0.00  0.00    +0.000 OA
ATOM      4  H   UNL     1       2.687   7.060  20.326  0.00  0.00    +0.000 HD
ENDROOT
BRANCH   1   9
ATOM      5  C   UNL     1      -0.226  10.539  20.347  0.00  0.00    +0.000 A 
ATOM      6  C   UNL     1      -0.474  10.387  21.726  0.00  0.00    +0.000 A 
ATOM      7  C   UNL     1       0.120   9.370  22.465  0.00  0.00    +0.000 A 
ATOM      8  C   UNL     1       0.992   8.482  21.843  0.00  0.00    +0.000 A 
ATOM      9  C   UNL     1       1.266   8.593  20.480  0.00  0.00    +0.000 A 
ATOM     10  C   UNL     1       0.646   9.604  19.749  0.00  0.00    +0.000 A 
BRANCH   5  11
ATOM     11  C   UNL     1      -0.848  11.736  19.495  0.00  0.00    +0.000 C 
ATOM     12  C   UNL     1      -2.133  12.396  20.081  0.00  0.00    +0.000 C 
ATOM     13  O   UNL     1      -2.921  12.032  18.934  0.00  0.00    +0.000 OA
ATOM     14  C   UNL     1      -1.797  11.370  18.320  0.00  0.00    +0.000 C 
BRANCH  11  15
ATOM     15  C   UNL     1       0.258  12.762  19.164  0.00  0.00    +0.000 C 
BRANCH  15  21
ATOM     16  C   UNL     1      -0.654  15.805  19.826  0.00  0.00    +0.000 C 
ATOM     17  N   UNL     1       0.295  14.973  20.517  0.00  0.00    +0.000 N 
ATOM     18  C   UNL     1       1.042  15.400  21.577  0.00  0.00    +0.000 A 
ATOM     19  N   UNL     1       1.808  14.427  21.999  0.00  0.00    +0.000 NA
ATOM     20  N   UNL     1       1.572  13.339  21.198  0.00  0.00    +0.000 NA
ATOM     21  C   UNL     1       0.671  13.667  20.288  0.00  0.00    +0.000 A 
ENDBRANCH  15  21
ENDBRANCH  11  15
ENDBRANCH   5  11
ENDBRANCH   1   9
BRANCH   2  22
ATOM     22  C   UNL     1       3.383   6.761  17.957  0.00  0.00    +0.000 A 
ATOM     23  C   UNL     1       2.834   5.514  17.713  0.00  0.00    +0.000 A 
ATOM     24  C   UNL     1       3.672   4.485  17.303  0.00  0.00    +0.000 A 
ATOM     25  C   UNL     1       5.031   4.780  17.130  0.00  0.00    +0.000 A 
ATOM     26  C   UNL     1       5.519   6.074  17.371  0.00  0.00    +0.000 A 
ATOM     27  N   UNL     1       4.696   7.068  17.800  0.00  0.00    +0.000 NA
BRANCH  26  28
ATOM     28  C   UNL     1       6.981   6.410  17.175  0.00  0.00    +0.000 C 
ATOM     29  C   UNL     1       7.516   7.787  17.496  0.00  0.00    +0.000 C 
ATOM     30  C   UNL     1       7.847   6.636  18.396  0.00  0.00    +0.000 C 
ENDBRANCH  26  28
BRANCH  24  31
ATOM     31  C   UNL     1       3.095   3.118  17.029  0.00  0.00    +0.000 C 
BRANCH  31  32
ATOM     32  N   UNL     1       2.766   2.364  18.242  0.00  0.00    +0.000 NA
ATOM     33  C   UNL     1       3.726   2.576  19.343  0.00  0.00    +0.000 C 
ATOM     34  C   UNL     1       2.912   2.310  20.565  0.00  0.00    +0.000 C 
ATOM     35  C   UNL     1       1.472   2.361  20.167  0.00  0.00    +0.000 C 
ATOM     36  C   UNL     1       1.412   2.695  18.719  0.00  0.00    +0.000 C 
ATOM     37  C   UNL     1       2.010   3.331  21.146  0.00  0.00    +0.000 C 
ATOM     38  F   UNL     1       2.127   4.664  20.830  0.00  0.00    +0.000 F 
ATOM     39  F   UNL     1       1.630   3.254  22.466  0.00  0.00    +0.000 F 
ENDBRANCH  31  32
ENDBRANCH  24  31
ENDBRANCH   2  22
TORSDOF 8
ENDMDL
MODEL 3
REMARK VINA RESULT:      -9.5      1.993      2.942
REMARK  Name = 
REMARK  9 active torsions:
REMARK  status: ('A' for Active; 'I' for Inactive)
REMARK    1  A    between atoms: C_1  and  N_2
REMARK    2  A    between atoms: C_6  and  C_7
REMARK    3  A    between atoms: C_7  and  C_8
REMARK    4  A    between atoms: C_8  and  C_9
REMARK    5  A    between atoms: C_13  and  N_14
REMARK    6  A    between atoms: C_15  and  C_17
REMARK    7  A    between atoms: C_19  and  C_20
REMARK    8  A    between atoms: C_20  and  N_21
REMARK    9  A    between atoms: C_30  and  C_31
REMARK                            x       y       z     vdW  Elec       q    Type
REMARK                         _______ _______ _______ _____ _____    ______ ____
ROOT
ATOM      1  N   UNL     1       1.886   8.122  19.672  0.00  0.00    +0.000 N 
ATOM      2  C   UNL     1       2.349   8.218  18.374  0.00  0.00    +0.000 C 
ATOM      3  O   UNL     1       2.163   9.147  17.602  0.00  0.00    +0.000 OA
ATOM      4  H   UNL     1       2.230   7.324  20.202  0.00  0.00    +0.000 HD
ENDROOT
BRANCH   1   9
ATOM      5  C   UNL     1      -0.575  10.878  20.004  0.00  0.00    +0.000 A 
ATOM      6  C   UNL     1      -0.660  10.970  21.408  0.00  0.00    +0.000 A 
ATOM      7  C   UNL     1       0.060  10.119  22.239  0.00  0.00    +0.000 A 
ATOM      8  C   UNL     1       0.900   9.158  21.684  0.00  0.00    +0.000 A 
ATOM      9  C   UNL     1       1.015   9.029  20.300  0.00  0.00    +0.000 A 
ATOM     10  C   UNL     1       0.269   9.876  19.481  0.00  0.00    +0.000 A 
BRANCH   5  11
ATOM     11  C   UNL     1      -1.345  11.885  19.034  0.00  0.00    +0.000 C 
ATOM     12  C   UNL     1      -2.900  11.874  19.134  0.00  0.00    +0.000 C 
ATOM     13  O   UNL     1      -3.050  11.464  17.764  0.00  0.00    +0.000 OA
ATOM     14  C   UNL     1      -1.621  11.416  17.578  0.00  0.00    +0.000 C 
BRANCH  11  15
ATOM     15  C   UNL     1      -0.743  13.300  19.177  0.00  0.00    +0.000 C 
BRANCH  15  21
ATOM     16  C   UNL     1       1.240  14.241  21.566  0.00  0.00    +0.000 C 
ATOM     17  N   UNL     1       1.568  13.820  20.230  0.00  0.00    +0.000 N 
ATOM     18  C   UNL     1       2.838  13.823  19.728  0.00  0.00    +0.000 A 
ATOM     19  N   UNL     1       2.827  13.385  18.495  0.00  0.00    +0.000 NA
ATOM     20  N   UNL     1       1.526  13.096  18.171  0.00  0.00    +0.000 NA
ATOM     21  C   UNL     1       0.756  13.374  19.209  0.00  0.00    +0.000 A 
ENDBRANCH  15  21
ENDBRANCH  11  15
ENDBRANCH   5  11
ENDBRANCH   1   9
BRANCH   2  22
ATOM     22  C   UNL     1       3.155   7.052  17.911  0.00  0.00    +0.000 A 
ATOM     23  C   UNL     1       2.508   5.840  17.743  0.00  0.00    +0.000 A 
ATOM     24  C   UNL     1       3.255   4.732  17.365  0.00  0.00    +0.000 A 
ATOM     25  C   UNL     1       4.627   4.913  17.143  0.00  0.00    +0.000 A 
ATOM     26  C   UNL     1       5.216   6.177  17.307  0.00  0.00    +0.000 A 
ATOM     27  N   UNL     1       4.483   7.250  17.706  0.00  0.00    +0.000 NA
BRANCH  26  28
ATOM     28  C   UNL     1       6.693   6.390  17.058  0.00  0.00    +0.000 C 
ATOM     29  C   UNL     1       7.393   7.643  17.535  0.00  0.00    +0.000 C 
ATOM     30  C   UNL     1       7.645   6.343  18.235  0.00  0.00    +0.000 C 
ENDBRANCH  26  28
BRANCH  24  31
ATOM     31  C   UNL     1       2.569   3.400  17.175  0.00  0.00    +0.000 C 
BRANCH  31  32
ATOM     32  N   UNL     1       2.420   2.633  18.414  0.00  0.00    +0.000 NA
ATOM     33  C   UNL     1       3.572   2.762  19.327  0.00  0.00    +0.000 C 
ATOM     34  C   UNL     1       2.977   2.508  20.671  0.00  0.00    +0.000 C 
ATOM     35  C   UNL     1       1.494   2.649  20.541  0.00  0.00    +0.000 C 
ATOM     36  C   UNL     1       1.195   3.025  19.134  0.00  0.00    +0.000 C 
ATOM     37  C   UNL     1       2.256   3.561  21.423  0.00  0.00    +0.000 C 
ATOM     38  F   UNL     1       2.393   4.893  21.114  0.00  0.00    +0.000 F 
ATOM     39  F   UNL     1       2.115   3.468  22.789  0.00  0.00    +0.000 F 
ENDBRANCH  31  32
ENDBRANCH  24  31
ENDBRANCH   2  22
TORSDOF 8
ENDMDL
MODEL 4
REMARK VINA RESULT:      -9.4      1.878      2.806
REMARK  Name = 
REMARK  9 active torsions:
REMARK  status: ('A' for Active; 'I' for Inactive)
REMARK    1  A    between atoms: C_1  and  N_2
REMARK    2  A    between atoms: C_6  and  C_7
REMARK    3  A    between atoms: C_7  and  C_8
REMARK    4  A    between atoms: C_8  and  C_9
REMARK    5  A    between atoms: C_13  and  N_14
REMARK    6  A    between atoms: C_15  and  C_17
REMARK    7  A    between atoms: C_19  and  C_20
REMARK    8  A    between atoms: C_20  and  N_21
REMARK    9  A    between atoms: C_30  and  C_31
REMARK                            x       y       z     vdW  Elec       q    Type
REMARK                         _______ _______ _______ _____ _____    ______ ____
ROOT
ATOM      1  N   UNL     1       2.238   7.908  19.550  0.00  0.00    +0.000 N 
ATOM      2  C   UNL     1       2.567   7.898  18.209  0.00  0.00    +0.000 C 
ATOM      3  O   UNL     1       2.167   8.676  17.355  0.00  0.00    +0.000 OA
ATOM      4  H   UNL     1       2.752   7.251  20.133  0.00  0.00    +0.000 HD
ENDROOT
BRANCH   1   9
ATOM      5  C   UNL     1       0.060  10.873  20.026  0.00  0.00    +0.000 A 
ATOM      6  C   UNL     1      -0.493  10.579  21.288  0.00  0.00    +0.000 A 
ATOM      7  C   UNL     1      -0.176   9.407  21.967  0.00  0.00    +0.000 A 
ATOM      8  C   UNL     1       0.716   8.501  21.402  0.00  0.00    +0.000 A 
ATOM      9  C   UNL     1       1.286   8.749  20.154  0.00  0.00    +0.000 A 
ATOM     10  C   UNL     1       0.941   9.919  19.477  0.00  0.00    +0.000 A 
BRANCH   5  11
ATOM     11  C   UNL     1      -0.242  12.241  19.260  0.00  0.00    +0.000 C 
ATOM     12  C   UNL     1       1.004  13.048  18.787  0.00  0.00    +0.000 C 
ATOM     13  O   UNL     1       0.660  14.182  19.602  0.00  0.00    +0.000 OA
ATOM     14  C   UNL     1      -0.504  13.508  20.122  0.00  0.00    +0.000 C 
BRANCH  11  15
ATOM     15  C   UNL     1      -1.259  11.984  18.126  0.00  0.00    +0.000 C 
BRANCH  15  21
ATOM     16  C   UNL     1      -3.847  10.927  16.480  0.00  0.00    +0.000 C 
ATOM     17  N   UNL     1      -3.784  11.499  17.798  0.00  0.00    +0.000 N 
ATOM     18  C   UNL     1      -4.886  11.755  18.563  0.00  0.00    +0.000 A 
ATOM     19  N   UNL     1      -4.518  12.269  19.710  0.00  0.00    +0.000 NA
ATOM     20  N   UNL     1      -3.150  12.362  19.700  0.00  0.00    +0.000 NA
ATOM     21  C   UNL     1      -2.700  11.916  18.541  0.00  0.00    +0.000 A 
ENDBRANCH  15  21
ENDBRANCH  11  15
ENDBRANCH   5  11
ENDBRANCH   1   9
BRANCH   2  22
ATOM     22  C   UNL     1       3.512   6.816  17.806  0.00  0.00    +0.000 A 
ATOM     23  C   UNL     1       2.995   5.550  17.592  0.00  0.00    +0.000 A 
ATOM     24  C   UNL     1       3.869   4.519  17.269  0.00  0.00    +0.000 A 
ATOM     25  C   UNL     1       5.230   4.830  17.149  0.00  0.00    +0.000 A 
ATOM     26  C   UNL     1       5.684   6.142  17.356  0.00  0.00    +0.000 A 
ATOM     27  N   UNL     1       4.826   7.139  17.699  0.00  0.00    +0.000 NA
BRANCH  26  28
ATOM     28  C   UNL     1       7.149   6.496  17.215  0.00  0.00    +0.000 C 
ATOM     29  C   UNL     1       7.650   7.888  17.527  0.00  0.00    +0.000 C 
ATOM     30  C   UNL     1       7.956   6.764  18.468  0.00  0.00    +0.000 C 
ENDBRANCH  26  28
BRANCH  24  31
ATOM     31  C   UNL     1       3.327   3.130  17.029  0.00  0.00    +0.000 C 
BRANCH  31  32
ATOM     32  N   UNL     1       3.052   2.385  18.261  0.00  0.00    +0.000 NA
ATOM     33  C   UNL     1       3.950   2.742  19.375  0.00  0.00    +0.000 C 
ATOM     34  C   UNL     1       3.138   2.426  20.586  0.00  0.00    +0.000 C 
ATOM     35  C   UNL     1       1.713   2.300  20.153  0.00  0.00    +0.000 C 
ATOM     36  C   UNL     1       1.656   2.576  18.692  0.00  0.00    +0.000 C 
ATOM     37  C   UNL     1       2.110   3.357  21.108  0.00  0.00    +0.000 C 
ATOM     38  F   UNL     1       2.085   4.683  20.747  0.00  0.00    +0.000 F 
ATOM     39  F   UNL     1       1.705   3.281  22.421  0.00  0.00    +0.000 F 
ENDBRANCH  31  32
ENDBRANCH  24  31
ENDBRANCH   2  22
TORSDOF 8
ENDMDL
MODEL 5
REMARK VINA RESULT:      -9.4      1.705      2.521
REMARK  Name = 
REMARK  9 active torsions:
REMARK  status: ('A' for Active; 'I' for Inactive)
REMARK    1  A    between atoms: C_1  and  N_2
REMARK    2  A    between atoms: C_6  and  C_7
REMARK    3  A    between atoms: C_7  and  C_8
REMARK    4  A    between atoms: C_8  and  C_9
REMARK    5  A    between atoms: C_13  and  N_14
REMARK    6  A    between atoms: C_15  and  C_17
REMARK    7  A    between atoms: C_19  and  C_20
REMARK    8  A    between atoms: C_20  and  N_21
REMARK    9  A    between atoms: C_30  and  C_31
REMARK                            x       y       z     vdW  Elec       q    Type
REMARK                         _______ _______ _______ _____ _____    ______ ____
ROOT
ATOM      1  N   UNL     1       2.142   7.926  19.607  0.00  0.00    +0.000 N 
ATOM      2  C   UNL     1       2.476   7.954  18.267  0.00  0.00    +0.000 C 
ATOM      3  O   UNL     1       2.069   8.750  17.433  0.00  0.00    +0.000 OA
ATOM      4  H   UNL     1       2.662   7.259  20.174  0.00  0.00    +0.000 HD
ENDROOT
BRANCH   1   9
ATOM      5  C   UNL     1       0.154  10.968  20.350  0.00  0.00    +0.000 A 
ATOM      6  C   UNL     1      -0.602  10.512  21.448  0.00  0.00    +0.000 A 
ATOM      7  C   UNL     1      -0.483   9.211  21.924  0.00  0.00    +0.000 A 
ATOM      8  C   UNL     1       0.411   8.333  21.319  0.00  0.00    +0.000 A 
ATOM      9  C   UNL     1       1.179   8.740  20.229  0.00  0.00    +0.000 A 
ATOM     10  C   UNL     1       1.031  10.041  19.750  0.00  0.00    +0.000 A 
BRANCH   5  11
ATOM     11  C   UNL     1       0.078  12.475  19.829  0.00  0.00    +0.000 C 
ATOM     12  C   UNL     1       1.389  13.308  19.953  0.00  0.00    +0.000 C 
ATOM     13  O   UNL     1       0.775  14.266  20.832  0.00  0.00    +0.000 OA
ATOM     14  C   UNL     1      -0.477  13.550  20.805  0.00  0.00    +0.000 C 
BRANCH  11  15
ATOM     15  C   UNL     1      -0.517  12.498  18.404  0.00  0.00    +0.000 C 
BRANCH  15  21
ATOM     16  C   UNL     1      -3.548  12.433  19.561  0.00  0.00    +0.000 C 
ATOM     17  N   UNL     1      -2.893  11.500  18.683  0.00  0.00    +0.000 N 
ATOM     18  C   UNL     1      -3.474  10.346  18.241  0.00  0.00    +0.000 A 
ATOM     19  N   UNL     1      -2.643   9.706  17.457  0.00  0.00    +0.000 NA
ATOM     20  N   UNL     1      -1.490  10.444  17.386  0.00  0.00    +0.000 NA
ATOM     21  C   UNL     1      -1.626  11.521  18.140  0.00  0.00    +0.000 A 
ENDBRANCH  15  21
ENDBRANCH  11  15
ENDBRANCH   5  11
ENDBRANCH   1   9
BRANCH   2  22
ATOM     22  C   UNL     1       3.433   6.894  17.839  0.00  0.00    +0.000 A 
ATOM     23  C   UNL     1       2.937   5.621  17.619  0.00  0.00    +0.000 A 
ATOM     24  C   UNL     1       3.824   4.610  17.273  0.00  0.00    +0.000 A 
ATOM     25  C   UNL     1       5.178   4.948  17.135  0.00  0.00    +0.000 A 
ATOM     26  C   UNL     1       5.611   6.266  17.348  0.00  0.00    +0.000 A 
ATOM     27  N   UNL     1       4.740   7.243  17.715  0.00  0.00    +0.000 NA
BRANCH  26  28
ATOM     28  C   UNL     1       7.066   6.648  17.189  0.00  0.00    +0.000 C 
ATOM     29  C   UNL     1       7.560   8.023  17.577  0.00  0.00    +0.000 C 
ATOM     30  C   UNL     1       7.908   6.844  18.433  0.00  0.00    +0.000 C 
ENDBRANCH  26  28
BRANCH  24  31
ATOM     31  C   UNL     1       3.305   3.214  17.028  0.00  0.00    +0.000 C 
BRANCH  31  32
ATOM     32  N   UNL     1       3.039   2.461  18.256  0.00  0.00    +0.000 NA
ATOM     33  C   UNL     1       3.967   2.785  19.356  0.00  0.00    +0.000 C 
ATOM     34  C   UNL     1       3.173   2.472  20.579  0.00  0.00    +0.000 C 
ATOM     35  C   UNL     1       1.737   2.381  20.174  0.00  0.00    +0.000 C 
ATOM     36  C   UNL     1       1.656   2.676  18.718  0.00  0.00    +0.000 C 
ATOM     37  C   UNL     1       2.176   3.419  21.133  0.00  0.00    +0.000 C 
ATOM     38  F   UNL     1       2.173   4.749  20.787  0.00  0.00    +0.000 F 
ATOM     39  F   UNL     1       1.796   3.336  22.452  0.00  0.00    +0.000 F 
ENDBRANCH  31  32
ENDBRANCH  24  31
ENDBRANCH   2  22
TORSDOF 8
ENDMDL
MODEL 6
REMARK VINA RESULT:      -9.3      2.732      4.936
REMARK  Name = 
REMARK  9 active torsions:
REMARK  status: ('A' for Active; 'I' for Inactive)
REMARK    1  A    between atoms: C_1  and  N_2
REMARK    2  A    between atoms: C_6  and  C_7
REMARK    3  A    between atoms: C_7  and  C_8
REMARK    4  A    between atoms: C_8  and  C_9
REMARK    5  A    between atoms: C_13  and  N_14
REMARK    6  A    between atoms: C_15  and  C_17
REMARK    7  A    between atoms: C_19  and  C_20
REMARK    8  A    between atoms: C_20  and  N_21
REMARK    9  A    between atoms: C_30  and  C_31
REMARK                            x       y       z     vdW  Elec       q    Type
REMARK                         _______ _______ _______ _____ _____    ______ ____
ROOT
ATOM      1  N   UNL     1       1.231   8.260  20.428  0.00  0.00    +0.000 N 
ATOM      2  C   UNL     1       1.837   8.443  19.200  0.00  0.00    +0.000 C 
ATOM      3  O   UNL     1       1.881   9.483  18.558  0.00  0.00    +0.000 OA
ATOM      4  H   UNL     1       1.389   7.354  20.863  0.00  0.00    +0.000 HD
ENDROOT
BRANCH   1   9
ATOM      5  C   UNL     1      -0.937  11.230  20.917  0.00  0.00    +0.000 A 
ATOM      6  C   UNL     1      -1.029  11.244  22.323  0.00  0.00    +0.000 A 
ATOM      7  C   UNL     1      -0.410  10.274  23.104  0.00  0.00    +0.000 A 
ATOM      8  C   UNL     1       0.333   9.267  22.495  0.00  0.00    +0.000 A 
ATOM      9  C   UNL     1       0.450   9.212  21.106  0.00  0.00    +0.000 A 
ATOM     10  C   UNL     1      -0.195  10.180  20.337  0.00  0.00    +0.000 A 
BRANCH   5  11
ATOM     11  C   UNL     1      -1.588  12.368  20.008  0.00  0.00    +0.000 C 
ATOM     12  C   UNL     1      -2.135  13.617  20.764  0.00  0.00    +0.000 C 
ATOM     13  O   UNL     1      -3.478  13.388  20.305  0.00  0.00    +0.000 OA
ATOM     14  C   UNL     1      -3.077  12.199  19.594  0.00  0.00    +0.000 C 
BRANCH  11  15
ATOM     15  C   UNL     1      -0.616  12.735  18.866  0.00  0.00    +0.000 C 
BRANCH  15  21
ATOM     16  C   UNL     1       2.141  13.145  20.527  0.00  0.00    +0.000 C 
ATOM     17  N   UNL     1       1.353  14.122  19.825  0.00  0.00    +0.000 N 
ATOM     18  C   UNL     1       1.639  15.458  19.817  0.00  0.00    +0.000 A 
ATOM     19  N   UNL     1       0.753  16.095  19.094  0.00  0.00    +0.000 NA
ATOM     20  N   UNL     1      -0.140  15.167  18.623  0.00  0.00    +0.000 NA
ATOM     21  C   UNL     1       0.205  13.975  19.076  0.00  0.00    +0.000 A 
ENDBRANCH  15  21
ENDBRANCH  11  15
ENDBRANCH   5  11
ENDBRANCH   1   9
BRANCH   2  22
ATOM     22  C   UNL     1       2.497   7.228  18.641  0.00  0.00    +0.000 A 
ATOM     23  C   UNL     1       3.434   7.401  17.637  0.00  0.00    +0.000 A 
ATOM     24  C   UNL     1       4.017   6.277  17.068  0.00  0.00    +0.000 A 
ATOM     25  C   UNL     1       3.643   5.022  17.569  0.00  0.00    +0.000 A 
ATOM     26  C   UNL     1       2.704   4.918  18.608  0.00  0.00    +0.000 A 
ATOM     27  N   UNL     1       2.116   6.023  19.139  0.00  0.00    +0.000 NA
BRANCH  26  28
ATOM     28  C   UNL     1       2.301   3.572  19.168  0.00  0.00    +0.000 C 
ATOM     29  C   UNL     1       1.055   3.417  20.010  0.00  0.00    +0.000 C 
ATOM     30  C   UNL     1       1.070   2.889  18.608  0.00  0.00    +0.000 C 
ENDBRANCH  26  28
BRANCH  24  31
ATOM     31  C   UNL     1       5.042   6.442  15.972  0.00  0.00    +0.000 C 
BRANCH  31  32
ATOM     32  N   UNL     1       6.426   6.305  16.434  0.00  0.00    +0.000 NA
ATOM     33  C   UNL     1       6.806   7.300  17.455  0.00  0.00    +0.000 C 
ATOM     34  C   UNL     1       7.894   6.617  18.214  0.00  0.00    +0.000 C 
ATOM     35  C   UNL     1       7.822   5.159  17.889  0.00  0.00    +0.000 C 
ATOM     36  C   UNL     1       6.672   4.954  16.969  0.00  0.00    +0.000 C 
ATOM     37  C   UNL     1       7.607   5.626  19.277  0.00  0.00    +0.000 C 
ATOM     38  F   UNL     1       6.370   5.538  19.870  0.00  0.00    +0.000 F 
ATOM     39  F   UNL     1       8.547   5.353  20.244  0.00  0.00    +0.000 F 
ENDBRANCH  31  32
ENDBRANCH  24  31
ENDBRANCH   2  22
TORSDOF 8
ENDMDL
MODEL 7
REMARK VINA RESULT:      -9.3      2.632      4.879
REMARK  Name = 
REMARK  9 active torsions:
REMARK  status: ('A' for Active; 'I' for Inactive)
REMARK    1  A    between atoms: C_1  and  N_2
REMARK    2  A    between atoms: C_6  and  C_7
REMARK    3  A    between atoms: C_7  and  C_8
REMARK    4  A    between atoms: C_8  and  C_9
REMARK    5  A    between atoms: C_13  and  N_14
REMARK    6  A    between atoms: C_15  and  C_17
REMARK    7  A    between atoms: C_19  and  C_20
REMARK    8  A    between atoms: C_20  and  N_21
REMARK    9  A    between atoms: C_30  and  C_31
REMARK                            x       y       z     vdW  Elec       q    Type
REMARK                         _______ _______ _______ _____ _____    ______ ____
ROOT
ATOM      1  N   UNL     1       1.163   8.094  20.749  0.00  0.00    +0.000 N 
ATOM      2  C   UNL     1       1.827   8.178  19.541  0.00  0.00    +0.000 C 
ATOM      3  O   UNL     1       1.928   9.171  18.834  0.00  0.00    +0.000 OA
ATOM      4  H   UNL     1       1.275   7.215  21.250  0.00  0.00    +0.000 HD
ENDROOT
BRANCH   1   9
ATOM      5  C   UNL     1      -0.886  11.180  20.953  0.00  0.00    +0.000 A 
ATOM      6  C   UNL     1      -1.081  11.260  22.346  0.00  0.00    +0.000 A 
ATOM      7  C   UNL     1      -0.571  10.296  23.210  0.00  0.00    +0.000 A 
ATOM      8  C   UNL     1       0.165   9.231  22.700  0.00  0.00    +0.000 A 
ATOM      9  C   UNL     1       0.382   9.110  21.328  0.00  0.00    +0.000 A 
ATOM     10  C   UNL     1      -0.156  10.072  20.474  0.00  0.00    +0.000 A 
BRANCH   5  11
ATOM     11  C   UNL     1      -1.410  12.307  19.952  0.00  0.00    +0.000 C 
ATOM     12  C   UNL     1      -2.927  12.255  19.599  0.00  0.00    +0.000 C 
ATOM     13  O   UNL     1      -2.662  12.052  18.200  0.00  0.00    +0.000 OA
ATOM     14  C   UNL     1      -1.238  12.056  18.428  0.00  0.00    +0.000 C 
BRANCH  11  15
ATOM     15  C   UNL     1      -0.956  13.695  20.455  0.00  0.00    +0.000 C 
BRANCH  15  21
ATOM     16  C   UNL     1      -0.355  16.259  18.560  0.00  0.00    +0.000 C 
ATOM     17  N   UNL     1       0.561  15.271  19.064  0.00  0.00    +0.000 N 
ATOM     18  C   UNL     1       1.886  15.235  18.738  0.00  0.00    +0.000 A 
ATOM     19  N   UNL     1       2.465  14.232  19.349  0.00  0.00    +0.000 NA
ATOM     20  N   UNL     1       1.504  13.588  20.085  0.00  0.00    +0.000 NA
ATOM     21  C   UNL     1       0.346  14.198  19.903  0.00  0.00    +0.000 A 
ENDBRANCH  15  21
ENDBRANCH  11  15
ENDBRANCH   5  11
ENDBRANCH   1   9
BRANCH   2  22
ATOM     22  C   UNL     1       2.474   6.911  19.094  0.00  0.00    +0.000 A 
ATOM     23  C   UNL     1       3.252   6.948  17.950  0.00  0.00    +0.000 A 
ATOM     24  C   UNL     1       3.818   5.766  17.489  0.00  0.00    +0.000 A 
ATOM     25  C   UNL     1       3.589   4.600  18.232  0.00  0.00    +0.000 A 
ATOM     26  C   UNL     1       2.809   4.637  19.399  0.00  0.00    +0.000 A 
ATOM     27  N   UNL     1       2.236   5.793  19.827  0.00  0.00    +0.000 NA
BRANCH  26  28
ATOM     28  C   UNL     1       2.566   3.389  20.219  0.00  0.00    +0.000 C 
ATOM     29  C   UNL     1       1.727   3.431  21.476  0.00  0.00    +0.000 C 
ATOM     30  C   UNL     1       1.175   2.791  20.240  0.00  0.00    +0.000 C 
ENDBRANCH  26  28
BRANCH  24  31
ATOM     31  C   UNL     1       4.671   5.784  16.244  0.00  0.00    +0.000 C 
BRANCH  31  32
ATOM     32  N   UNL     1       6.110   5.816  16.517  0.00  0.00    +0.000 NA
ATOM     33  C   UNL     1       6.517   6.931  17.392  0.00  0.00    +0.000 C 
ATOM     34  C   UNL     1       7.759   6.424  18.044  0.00  0.00    +0.000 C 
ATOM     35  C   UNL     1       7.796   4.942  17.849  0.00  0.00    +0.000 C 
ATOM     36  C   UNL     1       6.562   4.548  17.118  0.00  0.00    +0.000 C 
ATOM     37  C   UNL     1       7.719   5.514  19.212  0.00  0.00    +0.000 C 
ATOM     38  F   UNL     1       6.586   5.369  19.977  0.00  0.00    +0.000 F 
ATOM     39  F   UNL     1       8.801   5.418  20.057  0.00  0.00    +0.000 F 
ENDBRANCH  31  32
ENDBRANCH  24  31
ENDBRANCH   2  22
TORSDOF 8
ENDMDL
MODEL 8
REMARK VINA RESULT:      -9.3      2.187      3.441
REMARK  Name = 
REMARK  9 active torsions:
REMARK  status: ('A' for Active; 'I' for Inactive)
REMARK    1  A    between atoms: C_1  and  N_2
REMARK    2  A    between atoms: C_6  and  C_7
REMARK    3  A    between atoms: C_7  and  C_8
REMARK    4  A    between atoms: C_8  and  C_9
REMARK    5  A    between atoms: C_13  and  N_14
REMARK    6  A    between atoms: C_15  and  C_17
REMARK    7  A    between atoms: C_19  and  C_20
REMARK    8  A    between atoms: C_20  and  N_21
REMARK    9  A    between atoms: C_30  and  C_31
REMARK                            x       y       z     vdW  Elec       q    Type
REMARK                         _______ _______ _______ _____ _____    ______ ____
ROOT
ATOM      1  N   UNL     1       1.854   7.826  19.790  0.00  0.00    +0.000 N 
ATOM      2  C   UNL     1       2.438   8.018  18.553  0.00  0.00    +0.000 C 
ATOM      3  O   UNL     1       2.465   9.061  17.915  0.00  0.00    +0.000 OA
ATOM      4  H   UNL     1       2.024   6.919  20.218  0.00  0.00    +0.000 HD
ENDROOT
BRANCH   1   9
ATOM      5  C   UNL     1      -0.418  10.710  20.322  0.00  0.00    +0.000 A 
ATOM      6  C   UNL     1      -0.400  10.788  21.729  0.00  0.00    +0.000 A 
ATOM      7  C   UNL     1       0.328   9.886  22.499  0.00  0.00    +0.000 A 
ATOM      8  C   UNL     1       1.071   8.888  21.876  0.00  0.00    +0.000 A 
ATOM      9  C   UNL     1       1.082   8.772  20.486  0.00  0.00    +0.000 A 
ATOM     10  C   UNL     1       0.329   9.670  19.730  0.00  0.00    +0.000 A 
BRANCH   5  11
ATOM     11  C   UNL     1      -1.196  11.771  19.419  0.00  0.00    +0.000 C 
ATOM     12  C   UNL     1      -0.414  12.326  18.190  0.00  0.00    +0.000 C 
ATOM     13  O   UNL     1      -0.469  13.677  18.683  0.00  0.00    +0.000 OA
ATOM     14  C   UNL     1      -1.172  13.258  19.870  0.00  0.00    +0.000 C 
BRANCH  11  15
ATOM     15  C   UNL     1      -2.585  11.210  19.044  0.00  0.00    +0.000 C 
BRANCH  15  21
ATOM     16  C   UNL     1      -4.995  11.990  17.017  0.00  0.00    +0.000 C 
ATOM     17  N   UNL     1      -3.840  11.167  16.777  0.00  0.00    +0.000 N 
ATOM     18  C   UNL     1      -3.619  10.501  15.605  0.00  0.00    +0.000 A 
ATOM     19  N   UNL     1      -2.490   9.841  15.678  0.00  0.00    +0.000 NA
ATOM     20  N   UNL     1      -1.960  10.067  16.923  0.00  0.00    +0.000 NA
ATOM     21  C   UNL     1      -2.780  10.852  17.600  0.00  0.00    +0.000 A 
ENDBRANCH  15  21
ENDBRANCH  11  15
ENDBRANCH   5  11
ENDBRANCH   1   9
BRANCH   2  22
ATOM     22  C   UNL     1       3.093   6.808  17.976  0.00  0.00    +0.000 A 
ATOM     23  C   UNL     1       2.353   5.640  17.906  0.00  0.00    +0.000 A 
ATOM     24  C   UNL     1       2.965   4.491  17.422  0.00  0.00    +0.000 A 
ATOM     25  C   UNL     1       4.298   4.589  17.002  0.00  0.00    +0.000 A 
ATOM     26  C   UNL     1       4.984   5.812  17.077  0.00  0.00    +0.000 A 
ATOM     27  N   UNL     1       4.385   6.925  17.579  0.00  0.00    +0.000 NA
BRANCH  26  28
ATOM     28  C   UNL     1       6.418   5.936  16.614  0.00  0.00    +0.000 C 
ATOM     29  C   UNL     1       7.384   4.780  16.744  0.00  0.00    +0.000 C 
ATOM     30  C   UNL     1       6.859   5.155  15.392  0.00  0.00    +0.000 C 
ENDBRANCH  26  28
BRANCH  24  31
ATOM     31  C   UNL     1       2.176   3.207  17.336  0.00  0.00    +0.000 C 
BRANCH  31  32
ATOM     32  N   UNL     1       2.053   2.504  18.616  0.00  0.00    +0.000 NA
ATOM     33  C   UNL     1       3.281   2.552  19.432  0.00  0.00    +0.000 C 
ATOM     34  C   UNL     1       2.774   2.408  20.827  0.00  0.00    +0.000 C 
ATOM     35  C   UNL     1       1.306   2.689  20.804  0.00  0.00    +0.000 C 
ATOM     36  C   UNL     1       0.933   3.041  19.408  0.00  0.00    +0.000 C 
ATOM     37  C   UNL     1       2.219   3.554  21.584  0.00  0.00    +0.000 C 
ATOM     38  F   UNL     1       2.457   4.854  21.207  0.00  0.00    +0.000 F 
ATOM     39  F   UNL     1       2.179   3.526  22.959  0.00  0.00    +0.000 F 
ENDBRANCH  31  32
ENDBRANCH  24  31
ENDBRANCH   2  22
TORSDOF 8
ENDMDL
MODEL 9
REMARK VINA RESULT:      -9.3      0.747      1.155
REMARK  Name = 
REMARK  9 active torsions:
REMARK  status: ('A' for Active; 'I' for Inactive)
REMARK    1  A    between atoms: C_1  and  N_2
REMARK    2  A    between atoms: C_6  and  C_7
REMARK    3  A    between atoms: C_7  and  C_8
REMARK    4  A    between atoms: C_8  and  C_9
REMARK    5  A    between atoms: C_13  and  N_14
REMARK    6  A    between atoms: C_15  and  C_17
REMARK    7  A    between atoms: C_19  and  C_20
REMARK    8  A    between atoms: C_20  and  N_21
REMARK    9  A    between atoms: C_30  and  C_31
REMARK                            x       y       z     vdW  Elec       q    Type
REMARK                         _______ _______ _______ _____ _____    ______ ____
ROOT
ATOM      1  N   UNL     1       1.739   8.601  17.638  0.00  0.00    +0.000 N 
ATOM      2  C   UNL     1       2.353   7.802  18.583  0.00  0.00    +0.000 C 
ATOM      3  O   UNL     1       2.174   7.837  19.792  0.00  0.00    +0.000 OA
ATOM      4  H   UNL     1       1.929   8.357  16.668  0.00  0.00    +0.000 HD
ENDROOT
BRANCH   1   9
ATOM      5  C   UNL     1       0.683  11.963  18.796  0.00  0.00    +0.000 A 
ATOM      6  C   UNL     1      -0.712  11.862  18.620  0.00  0.00    +0.000 A 
ATOM      7  C   UNL     1      -1.300  10.714  18.100  0.00  0.00    +0.000 A 
ATOM      8  C   UNL     1      -0.504   9.626  17.755  0.00  0.00    +0.000 A 
ATOM      9  C   UNL     1       0.881   9.681  17.910  0.00  0.00    +0.000 A 
ATOM     10  C   UNL     1       1.456  10.847  18.412  0.00  0.00    +0.000 A 
BRANCH   5  11
ATOM     11  C   UNL     1       1.369  13.247  19.449  0.00  0.00    +0.000 C 
ATOM     12  C   UNL     1       0.736  14.622  19.080  0.00  0.00    +0.000 C 
ATOM     13  O   UNL     1       1.949  15.089  18.464  0.00  0.00    +0.000 OA
ATOM     14  C   UNL     1       2.616  13.840  18.735  0.00  0.00    +0.000 C 
BRANCH  11  15
ATOM     15  C   UNL     1       1.510  13.039  20.973  0.00  0.00    +0.000 C 
BRANCH  15  21
ATOM     16  C   UNL     1       0.201  10.234  21.946  0.00  0.00    +0.000 C 
ATOM     17  N   UNL     1      -0.315  11.569  22.081  0.00  0.00    +0.000 N 
ATOM     18  C   UNL     1      -1.541  11.853  22.614  0.00  0.00    +0.000 A 
ATOM     19  N   UNL     1      -1.734  13.148  22.611  0.00  0.00    +0.000 NA
ATOM     20  N   UNL     1      -0.621  13.730  22.059  0.00  0.00    +0.000 NA
ATOM     21  C   UNL     1       0.233  12.781  21.719  0.00  0.00    +0.000 A 
ENDBRANCH  15  21
ENDBRANCH  11  15
ENDBRANCH   5  11
ENDBRANCH   1   9
BRANCH   2  22
ATOM     22  C   UNL     1       3.319   6.810  18.030  0.00  0.00    +0.000 A 
ATOM     23  C   UNL     1       2.861   5.527  17.779  0.00  0.00    +0.000 A 
ATOM     24  C   UNL     1       3.760   4.577  17.315  0.00  0.00    +0.000 A 
ATOM     25  C   UNL     1       5.084   4.982  17.097  0.00  0.00    +0.000 A 
ATOM     26  C   UNL     1       5.477   6.306  17.349  0.00  0.00    +0.000 A 
ATOM     27  N   UNL     1       4.596   7.223  17.830  0.00  0.00    +0.000 NA
BRANCH  26  28
ATOM     28  C   UNL     1       6.899   6.761  17.105  0.00  0.00    +0.000 C 
ATOM     29  C   UNL     1       7.393   8.094  17.619  0.00  0.00    +0.000 C 
ATOM     30  C   UNL     1       7.853   6.831  18.279  0.00  0.00    +0.000 C 
ENDBRANCH  26  28
BRANCH  24  31
ATOM     31  C   UNL     1       3.282   3.172  17.034  0.00  0.00    +0.000 C 
BRANCH  31  32
ATOM     32  N   UNL     1       2.996   2.395  18.242  0.00  0.00    +0.000 NA
ATOM     33  C   UNL     1       3.775   2.829  19.418  0.00  0.00    +0.000 C 
ATOM     34  C   UNL     1       2.916   2.427  20.569  0.00  0.00    +0.000 C 
ATOM     35  C   UNL     1       1.544   2.165  20.036  0.00  0.00    +0.000 C 
ATOM     36  C   UNL     1       1.562   2.445  18.576  0.00  0.00    +0.000 C 
ATOM     37  C   UNL     1       1.769   3.249  21.018  0.00  0.00    +0.000 C 
ATOM     38  F   UNL     1       1.639   4.569  20.657  0.00  0.00    +0.000 F 
ATOM     39  F   UNL     1       1.282   3.124  22.299  0.00  0.00    +0.000 F 
ENDBRANCH  31  32
ENDBRANCH  24  31
ENDBRANCH   2  22
TORSDOF 8
ENDMDL
