MODEL 1
REMARK VINA RESULT:      -8.5      0.000      0.000
REMARK  Name = 
REMARK  6 active torsions:
REMARK  status: ('A' for Active; 'I' for Inactive)
REMARK    1  A    between atoms: C_1  and  C_2
REMARK    2  A    between atoms: C_2  and  S_3
REMARK    3  A    between atoms: C_2  and  C_10
REMARK    4  A    between atoms: S_3  and  C_4
REMARK    5  A    between atoms: N_8  and  C_9
REMARK    6  A    between atoms: C_16  and  C_18
REMARK                            x       y       z     vdW  Elec       q    Type
REMARK                         _______ _______ _______ _____ _____    ______ ____
ROOT
ATOM      1  C   UNL     1       2.172   6.845  19.920  0.00  0.00    +0.000 A 
ATOM      2  C   UNL     1       1.606   5.614  20.272  0.00  0.00    +0.000 A 
ATOM      3  C   UNL     1       2.090   4.463  19.682  0.00  0.00    +0.000 A 
ATOM      4  N   UNL     1       3.078   4.447  18.771  0.00  0.00    +0.000 NA
ATOM      5  C   UNL     1       3.641   5.613  18.419  0.00  0.00    +0.000 A 
ATOM      6  N   UNL     1       4.640   5.626  17.439  0.00  0.00    +0.000 N 
ATOM      7  C   UNL     1       5.106   4.503  16.775  0.00  0.00    +0.000 C 
ATOM      8  O   UNL     1       4.754   3.344  16.960  0.00  0.00    +0.000 OA
ATOM      9  C   UNL     1       3.233   6.820  18.985  0.00  0.00    +0.000 A 
ATOM     10  H   UNL     1       5.033   6.515  17.156  0.00  0.00    +0.000 HD
ENDROOT
BRANCH   7  11
ATOM     11  C   UNL     1       6.107   4.810  15.744  0.00  0.00    +0.000 A 
ATOM     12  N   UNL     1       7.142   5.640  15.984  0.00  0.00    +0.000 NA
ATOM     13  O   UNL     1       7.848   5.716  14.793  0.00  0.00    +0.000 OA
ATOM     14  C   UNL     1       7.243   4.948  13.850  0.00  0.00    +0.000 A 
ATOM     15  C   UNL     1       7.651   4.795  12.525  0.00  0.00    +0.000 A 
ATOM     16  C   UNL     1       6.868   3.954  11.726  0.00  0.00    +0.000 A 
ATOM     17  C   UNL     1       5.748   3.299  12.247  0.00  0.00    +0.000 A 
ATOM     18  C   UNL     1       5.367   3.477  13.586  0.00  0.00    +0.000 A 
ATOM     19  C   UNL     1       6.137   4.331  14.401  0.00  0.00    +0.000 A 
ENDBRANCH   7  11
BRANCH   1  21
ATOM     20  C   UNL     1       0.373   8.054  21.311  0.00  0.00    +0.000 C 
ATOM     21  C   UNL     1       1.659   8.178  20.475  0.00  0.00    +0.000 C 
BRANCH  21  22
ATOM     22  S   UNL     1       1.376   9.316  19.052  0.00  0.00    +0.000 S 
BRANCH  22  23
ATOM     23  C   UNL     1       0.560  10.654  19.764  0.00  0.00    +0.000 A 
ATOM     24  N   UNL     1       1.001  11.478  20.682  0.00  0.00    +0.000 NA
ATOM     25  N   UNL     1      -0.029  12.340  20.997  0.00  0.00    +0.000 NA
ATOM     26  C   UNL     1      -1.058  12.020  20.248  0.00  0.00    +0.000 A 
ATOM     27  N   UNL     1      -0.723  10.984  19.430  0.00  0.00    +0.000 N 
ATOM     28  C   UNL     1      -1.565  10.369  18.440  0.00  0.00    +0.000 C 
ENDBRANCH  22  23
ENDBRANCH  21  22
ENDBRANCH   1  21
TORSDOF 4
ENDMDL
MODEL 2
REMARK VINA RESULT:      -8.4      1.227      1.780
REMARK  Name = 
REMARK  6 active torsions:
REMARK  status: ('A' for Active; 'I' for Inactive)
REMARK    1  A    between atoms: C_1  and  C_2
REMARK    2  A    between atoms: C_2  and  S_3
REMARK    3  A    between atoms: C_2  and  C_10
REMARK    4  A    between atoms: S_3  and  C_4
REMARK    5  A    between atoms: N_8  and  C_9
REMARK    6  A    between atoms: C_16  and  C_18
REMARK                            x       y       z     vdW  Elec       q    Type
REMARK                         _______ _______ _______ _____ _____    ______ ____
ROOT
ATOM      1  C   UNL     1       2.238   7.957  18.696  0.00  0.00    +0.000 A 
ATOM      2  C   UNL     1       2.084   6.990  19.697  0.00  0.00    +0.000 A 
ATOM      3  C   UNL     1       2.880   5.862  19.664  0.00  0.00    +0.000 A 
ATOM      4  N   UNL     1       3.801   5.623  18.715  0.00  0.00    +0.000 NA
ATOM      5  C   UNL     1       3.971   6.535  17.746  0.00  0.00    +0.000 A 
ATOM      6  N   UNL     1       4.891   6.286  16.721  0.00  0.00    +0.000 N 
ATOM      7  C   UNL     1       5.660   5.138  16.615  0.00  0.00    +0.000 C 
ATOM      8  O   UNL     1       5.684   4.197  17.400  0.00  0.00    +0.000 OA
ATOM      9  C   UNL     1       3.230   7.715  17.717  0.00  0.00    +0.000 A 
ATOM     10  H   UNL     1       4.987   6.965  15.977  0.00  0.00    +0.000 HD
ENDROOT
BRANCH   7  11
ATOM     11  C   UNL     1       6.491   5.104  15.404  0.00  0.00    +0.000 A 
ATOM     12  N   UNL     1       7.669   5.756  15.333  0.00  0.00    +0.000 NA
ATOM     13  O   UNL     1       8.149   5.528  14.052  0.00  0.00    +0.000 OA
ATOM     14  C   UNL     1       7.269   4.757  13.362  0.00  0.00    +0.000 A 
ATOM     15  C   UNL     1       7.399   4.342  12.037  0.00  0.00    +0.000 A 
ATOM     16  C   UNL     1       6.362   3.553  11.527  0.00  0.00    +0.000 A 
ATOM     17  C   UNL     1       5.268   3.197  12.321  0.00  0.00    +0.000 A 
ATOM     18  C   UNL     1       5.170   3.633  13.651  0.00  0.00    +0.000 A 
ATOM     19  C   UNL     1       6.200   4.439  14.177  0.00  0.00    +0.000 A 
ENDBRANCH   7  11
BRANCH   1  21
ATOM     20  C   UNL     1       2.091  10.458  18.101  0.00  0.00    +0.000 C 
ATOM     21  C   UNL     1       1.357   9.208  18.616  0.00  0.00    +0.000 C 
BRANCH  21  22
ATOM     22  S   UNL     1       0.670   9.530  20.296  0.00  0.00    +0.000 S 
BRANCH  22  23
ATOM     23  C   UNL     1      -0.610  10.644  20.000  0.00  0.00    +0.000 A 
ATOM     24  N   UNL     1      -1.232  10.881  18.873  0.00  0.00    +0.000 NA
ATOM     25  N   UNL     1      -2.127  11.908  19.100  0.00  0.00    +0.000 NA
ATOM     26  C   UNL     1      -2.029  12.248  20.364  0.00  0.00    +0.000 A 
ATOM     27  N   UNL     1      -1.108  11.455  20.980  0.00  0.00    +0.000 N 
ATOM     28  C   UNL     1      -0.741  11.492  22.369  0.00  0.00    +0.000 C 
ENDBRANCH  22  23
ENDBRANCH  21  22
ENDBRANCH   1  21
TORSDOF 4
ENDMDL
MODEL 3
REMARK VINA RESULT:      -8.3      1.111      1.345
REMARK  Name = 
REMARK  6 active torsions:
REMARK  status: ('A' for Active; 'I' for Inactive)
REMARK    1  A    between atoms: C_1  and  C_2
REMARK    2  A    between atoms: C_2  and  S_3
REMARK    3  A    between atoms: C_2  and  C_10
REMARK    4  A    between atoms: S_3  and  C_4
REMARK    5  A    between atoms: N_8  and  C_9
REMARK    6  A    between atoms: C_16  and  C_18
REMARK                            x       y       z     vdW  Elec       q    Type
REMARK                         _______ _______ _______ _____ _____    ______ ____
ROOT
ATOM      1  C   UNL     1       2.209   7.857  18.814  0.00  0.00    +0.000 A 
ATOM      2  C   UNL     1       2.047   6.858  19.782  0.00  0.00    +0.000 A 
ATOM      3  C   UNL     1       2.839   5.729  19.716  0.00  0.00    +0.000 A 
ATOM      4  N   UNL     1       3.765   5.519  18.764  0.00  0.00    +0.000 NA
ATOM      5  C   UNL     1       3.942   6.462  17.827  0.00  0.00    +0.000 A 
ATOM      6  N   UNL     1       4.867   6.244  16.799  0.00  0.00    +0.000 N 
ATOM      7  C   UNL     1       5.633   5.097  16.659  0.00  0.00    +0.000 C 
ATOM      8  O   UNL     1       5.650   4.131  17.413  0.00  0.00    +0.000 OA
ATOM      9  C   UNL     1       3.205   7.644  17.833  0.00  0.00    +0.000 A 
ATOM     10  H   UNL     1       4.969   6.946  16.078  0.00  0.00    +0.000 HD
ENDROOT
BRANCH   7  11
ATOM     11  C   UNL     1       6.471   5.101  15.452  0.00  0.00    +0.000 A 
ATOM     12  N   UNL     1       7.628   5.789  15.393  0.00  0.00    +0.000 NA
ATOM     13  O   UNL     1       8.121   5.589  14.112  0.00  0.00    +0.000 OA
ATOM     14  C   UNL     1       7.268   4.796  13.410  0.00  0.00    +0.000 A 
ATOM     15  C   UNL     1       7.417   4.398  12.083  0.00  0.00    +0.000 A 
ATOM     16  C   UNL     1       6.408   3.582  11.560  0.00  0.00    +0.000 A 
ATOM     17  C   UNL     1       5.322   3.185  12.346  0.00  0.00    +0.000 A 
ATOM     18  C   UNL     1       5.204   3.605  13.679  0.00  0.00    +0.000 A 
ATOM     19  C   UNL     1       6.206   4.438  14.217  0.00  0.00    +0.000 A 
ENDBRANCH   7  11
BRANCH   1  21
ATOM     20  C   UNL     1       2.028  10.341  18.158  0.00  0.00    +0.000 C 
ATOM     21  C   UNL     1       1.332   9.113  18.770  0.00  0.00    +0.000 C 
BRANCH  21  22
ATOM     22  S   UNL     1       0.791   9.491  20.492  0.00  0.00    +0.000 S 
BRANCH  22  23
ATOM     23  C   UNL     1       0.627  11.204  20.495  0.00  0.00    +0.000 A 
ATOM     24  N   UNL     1       1.420  12.093  21.040  0.00  0.00    +0.000 NA
ATOM     25  N   UNL     1       0.844  13.334  20.854  0.00  0.00    +0.000 NA
ATOM     26  C   UNL     1      -0.273  13.157  20.187  0.00  0.00    +0.000 A 
ATOM     27  N   UNL     1      -0.434  11.833  19.909  0.00  0.00    +0.000 N 
ATOM     28  C   UNL     1      -1.513  11.242  19.166  0.00  0.00    +0.000 C 
ENDBRANCH  22  23
ENDBRANCH  21  22
ENDBRANCH   1  21
TORSDOF 4
ENDMDL
MODEL 4
REMARK VINA RESULT:      -8.2      2.654      4.365
REMARK  Name = 
REMARK  6 active torsions:
REMARK  status: ('A' for Active; 'I' for Inactive)
REMARK    1  A    between atoms: C_1  and  C_2
REMARK    2  A    between atoms: C_2  and  S_3
REMARK    3  A    between atoms: C_2  and  C_10
REMARK    4  A    between atoms: S_3  and  C_4
REMARK    5  A    between atoms: N_8  and  C_9
REMARK    6  A    between atoms: C_16  and  C_18
REMARK                            x       y       z     vdW  Elec       q    Type
REMARK                         _______ _______ _______ _____ _____    ______ ____
ROOT
ATOM      1  C   UNL     1       0.576  10.416  19.370  0.00  0.00    +0.000 A 
ATOM      2  C   UNL     1       0.389  10.185  20.738  0.00  0.00    +0.000 A 
ATOM      3  C   UNL     1       0.895   9.027  21.296  0.00  0.00    +0.000 A 
ATOM      4  N   UNL     1       1.558   8.089  20.598  0.00  0.00    +0.000 NA
ATOM      5  C   UNL     1       1.754   8.288  19.286  0.00  0.00    +0.000 A 
ATOM      6  N   UNL     1       2.401   7.304  18.530  0.00  0.00    +0.000 N 
ATOM      7  C   UNL     1       2.864   6.100  19.038  0.00  0.00    +0.000 C 
ATOM      8  O   UNL     1       2.816   5.729  20.205  0.00  0.00    +0.000 OA
ATOM      9  C   UNL     1       1.301   9.441  18.647  0.00  0.00    +0.000 A 
ATOM     10  H   UNL     1       2.513   7.448  17.535  0.00  0.00    +0.000 HD
ENDROOT
BRANCH   7  11
ATOM     11  C   UNL     1       3.441   5.220  18.011  0.00  0.00    +0.000 A 
ATOM     12  N   UNL     1       2.777   4.143  17.545  0.00  0.00    +0.000 NA
ATOM     13  O   UNL     1       3.628   3.545  16.627  0.00  0.00    +0.000 OA
ATOM     14  C   UNL     1       4.788   4.248  16.549  0.00  0.00    +0.000 A 
ATOM     15  C   UNL     1       5.889   3.936  15.753  0.00  0.00    +0.000 A 
ATOM     16  C   UNL     1       6.984   4.803  15.837  0.00  0.00    +0.000 A 
ATOM     17  C   UNL     1       6.954   5.925  16.671  0.00  0.00    +0.000 A 
ATOM     18  C   UNL     1       5.829   6.208  17.459  0.00  0.00    +0.000 A 
ATOM     19  C   UNL     1       4.722   5.338  17.395  0.00  0.00    +0.000 A 
ENDBRANCH   7  11
BRANCH   1  21
ATOM     20  C   UNL     1       0.816  12.927  18.847  0.00  0.00    +0.000 C 
ATOM     21  C   UNL     1      -0.005  11.641  18.654  0.00  0.00    +0.000 C 
BRANCH  21  22
ATOM     22  S   UNL     1      -1.726  11.896  19.265  0.00  0.00    +0.000 S 
BRANCH  22  23
ATOM     23  C   UNL     1      -2.699  11.521  17.895  0.00  0.00    +0.000 A 
ATOM     24  N   UNL     1      -2.309  11.124  16.710  0.00  0.00    +0.000 NA
ATOM     25  N   UNL     1      -3.433  11.023  15.915  0.00  0.00    +0.000 NA
ATOM     26  C   UNL     1      -4.471  11.348  16.651  0.00  0.00    +0.000 A 
ATOM     27  N   UNL     1      -4.060  11.636  17.917  0.00  0.00    +0.000 N 
ATOM     28  C   UNL     1      -4.898  12.001  19.026  0.00  0.00    +0.000 C 
ENDBRANCH  22  23
ENDBRANCH  21  22
ENDBRANCH   1  21
TORSDOF 4
ENDMDL
MODEL 5
REMARK VINA RESULT:      -8.2      1.122      1.332
REMARK  Name = 
REMARK  6 active torsions:
REMARK  status: ('A' for Active; 'I' for Inactive)
REMARK    1  A    between atoms: C_1  and  C_2
REMARK    2  A    between atoms: C_2  and  S_3
REMARK    3  A    between atoms: C_2  and  C_10
REMARK    4  A    between atoms: S_3  and  C_4
REMARK    5  A    between atoms: N_8  and  C_9
REMARK    6  A    between atoms: C_16  and  C_18
REMARK                            x       y       z     vdW  Elec       q    Type
REMARK                         _______ _______ _______ _____ _____    ______ ____
ROOT
ATOM      1  C   UNL     1       2.208   7.265  19.654  0.00  0.00    +0.000 A 
ATOM      2  C   UNL     1       1.662   6.066  20.125  0.00  0.00    +0.000 A 
ATOM      3  C   UNL     1       2.158   4.871  19.642  0.00  0.00    +0.000 A 
ATOM      4  N   UNL     1       3.139   4.782  18.728  0.00  0.00    +0.000 NA
ATOM      5  C   UNL     1       3.682   5.918  18.263  0.00  0.00    +0.000 A 
ATOM      6  N   UNL     1       4.673   5.852  17.277  0.00  0.00    +0.000 N 
ATOM      7  C   UNL     1       5.151   4.676  16.718  0.00  0.00    +0.000 C 
ATOM      8  O   UNL     1       4.817   3.536  17.015  0.00  0.00    +0.000 OA
ATOM      9  C   UNL     1       3.262   7.166  18.715  0.00  0.00    +0.000 A 
ATOM     10  H   UNL     1       5.051   6.715  16.907  0.00  0.00    +0.000 HD
ENDROOT
BRANCH   7  11
ATOM     11  C   UNL     1       6.139   4.899  15.653  0.00  0.00    +0.000 A 
ATOM     12  N   UNL     1       7.203   5.707  15.830  0.00  0.00    +0.000 NA
ATOM     13  O   UNL     1       7.887   5.699  14.624  0.00  0.00    +0.000 OA
ATOM     14  C   UNL     1       7.240   4.902  13.734  0.00  0.00    +0.000 A 
ATOM     15  C   UNL     1       7.616   4.668  12.412  0.00  0.00    +0.000 A 
ATOM     16  C   UNL     1       6.792   3.811  11.673  0.00  0.00    +0.000 A 
ATOM     17  C   UNL     1       5.664   3.220  12.248  0.00  0.00    +0.000 A 
ATOM     18  C   UNL     1       5.316   3.479  13.582  0.00  0.00    +0.000 A 
ATOM     19  C   UNL     1       6.127   4.349  14.337  0.00  0.00    +0.000 A 
ENDBRANCH   7  11
BRANCH   1  21
ATOM     20  C   UNL     1       0.705   8.588  21.274  0.00  0.00    +0.000 C 
ATOM     21  C   UNL     1       1.679   8.638  20.085  0.00  0.00    +0.000 C 
BRANCH  21  22
ATOM     22  S   UNL     1       0.854   9.413  18.629  0.00  0.00    +0.000 S 
BRANCH  22  23
ATOM     23  C   UNL     1       1.454  11.027  18.640  0.00  0.00    +0.000 A 
ATOM     24  N   UNL     1       2.525  11.497  18.051  0.00  0.00    +0.000 NA
ATOM     25  N   UNL     1       2.645  12.826  18.405  0.00  0.00    +0.000 NA
ATOM     26  C   UNL     1       1.632  13.122  19.186  0.00  0.00    +0.000 A 
ATOM     27  N   UNL     1       0.835  12.027  19.335  0.00  0.00    +0.000 N 
ATOM     28  C   UNL     1      -0.389  11.957  20.085  0.00  0.00    +0.000 C 
ENDBRANCH  22  23
ENDBRANCH  21  22
ENDBRANCH   1  21
TORSDOF 4
ENDMDL
MODEL 6
REMARK VINA RESULT:      -8.1      3.395      8.912
REMARK  Name = 
REMARK  6 active torsions:
REMARK  status: ('A' for Active; 'I' for Inactive)
REMARK    1  A    between atoms: C_1  and  C_2
REMARK    2  A    between atoms: C_2  and  S_3
REMARK    3  A    between atoms: C_2  and  C_10
REMARK    4  A    between atoms: S_3  and  C_4
REMARK    5  A    between atoms: N_8  and  C_9
REMARK    6  A    between atoms: C_16  and  C_18
REMARK                            x       y       z     vdW  Elec       q    Type
REMARK                         _______ _______ _______ _____ _____    ______ ____
ROOT
ATOM      1  C   UNL     1       4.523   4.901  17.450  0.00  0.00    +0.000 A 
ATOM      2  C   UNL     1       4.378   3.881  18.398  0.00  0.00    +0.000 A 
ATOM      3  C   UNL     1       3.563   4.096  19.492  0.00  0.00    +0.000 A 
ATOM      4  N   UNL     1       2.895   5.241  19.714  0.00  0.00    +0.000 NA
ATOM      5  C   UNL     1       3.014   6.233  18.819  0.00  0.00    +0.000 A 
ATOM      6  N   UNL     1       2.365   7.451  19.053  0.00  0.00    +0.000 N 
ATOM      7  C   UNL     1       1.593   7.730  20.170  0.00  0.00    +0.000 C 
ATOM      8  O   UNL     1       1.331   6.963  21.089  0.00  0.00    +0.000 OA
ATOM      9  C   UNL     1       3.793   6.093  17.673  0.00  0.00    +0.000 A 
ATOM     10  H   UNL     1       2.488   8.205  18.389  0.00  0.00    +0.000 HD
ENDROOT
BRANCH   7  11
ATOM     11  C   UNL     1       1.086   9.109  20.198  0.00  0.00    +0.000 A 
ATOM     12  N   UNL     1       1.321   9.972  19.188  0.00  0.00    +0.000 NA
ATOM     13  O   UNL     1       0.729  11.167  19.569  0.00  0.00    +0.000 OA
ATOM     14  C   UNL     1       0.152  11.025  20.791  0.00  0.00    +0.000 A 
ATOM     15  C   UNL     1      -0.516  12.018  21.507  0.00  0.00    +0.000 A 
ATOM     16  C   UNL     1      -1.028  11.647  22.756  0.00  0.00    +0.000 A 
ATOM     17  C   UNL     1      -0.881  10.343  23.238  0.00  0.00    +0.000 A 
ATOM     18  C   UNL     1      -0.202   9.370  22.490  0.00  0.00    +0.000 A 
ATOM     19  C   UNL     1       0.331   9.730  21.236  0.00  0.00    +0.000 A 
ENDBRANCH   7  11
BRANCH   1  21
ATOM     20  C   UNL     1       5.131   3.587  15.320  0.00  0.00    +0.000 C 
ATOM     21  C   UNL     1       5.454   4.777  16.240  0.00  0.00    +0.000 C 
BRANCH  21  22
ATOM     22  S   UNL     1       7.184   4.637  16.864  0.00  0.00    +0.000 S 
BRANCH  22  23
ATOM     23  C   UNL     1       7.561   6.240  17.365  0.00  0.00    +0.000 A 
ATOM     24  N   UNL     1       7.589   7.330  16.640  0.00  0.00    +0.000 NA
ATOM     25  N   UNL     1       8.020   8.359  17.453  0.00  0.00    +0.000 NA
ATOM     26  C   UNL     1       8.223   7.861  18.650  0.00  0.00    +0.000 A 
ATOM     27  N   UNL     1       7.915   6.534  18.651  0.00  0.00    +0.000 N 
ATOM     28  C   UNL     1       7.973   5.644  19.779  0.00  0.00    +0.000 C 
ENDBRANCH  22  23
ENDBRANCH  21  22
ENDBRANCH   1  21
TORSDOF 4
ENDMDL
MODEL 7
REMARK VINA RESULT:      -8.1      0.844      1.112
REMARK  Name = 
REMARK  6 active torsions:
REMARK  status: ('A' for Active; 'I' for Inactive)
REMARK    1  A    between atoms: C_1  and  C_2
REMARK    2  A    between atoms: C_2  and  S_3
REMARK    3  A    between atoms: C_2  and  C_10
REMARK    4  A    between atoms: S_3  and  C_4
REMARK    5  A    between atoms: N_8  and  C_9
REMARK    6  A    between atoms: C_16  and  C_18
REMARK                            x       y       z     vdW  Elec       q    Type
REMARK                         _______ _______ _______ _____ _____    ______ ____
ROOT
ATOM      1  C   UNL     1       2.188   6.976  19.880  0.00  0.00    +0.000 A 
ATOM      2  C   UNL     1       1.614   5.756  20.256  0.00  0.00    +0.000 A 
ATOM      3  C   UNL     1       2.088   4.590  19.688  0.00  0.00    +0.000 A 
ATOM      4  N   UNL     1       3.075   4.550  18.776  0.00  0.00    +0.000 NA
ATOM      5  C   UNL     1       3.645   5.705  18.401  0.00  0.00    +0.000 A 
ATOM      6  N   UNL     1       4.642   5.692  17.418  0.00  0.00    +0.000 N 
ATOM      7  C   UNL     1       5.099   4.553  16.775  0.00  0.00    +0.000 C 
ATOM      8  O   UNL     1       4.740   3.400  16.984  0.00  0.00    +0.000 OA
ATOM      9  C   UNL     1       3.247   6.925  18.943  0.00  0.00    +0.000 A 
ATOM     10  H   UNL     1       5.041   6.572  17.117  0.00  0.00    +0.000 HD
ENDROOT
BRANCH   7  11
ATOM     11  C   UNL     1       6.101   4.833  15.737  0.00  0.00    +0.000 A 
ATOM     12  N   UNL     1       7.151   5.647  15.965  0.00  0.00    +0.000 NA
ATOM     13  O   UNL     1       7.853   5.699  14.770  0.00  0.00    +0.000 OA
ATOM     14  C   UNL     1       7.229   4.933  13.836  0.00  0.00    +0.000 A 
ATOM     15  C   UNL     1       7.628   4.761  12.512  0.00  0.00    +0.000 A 
ATOM     16  C   UNL     1       6.827   3.926  11.724  0.00  0.00    +0.000 A 
ATOM     17  C   UNL     1       5.698   3.296  12.256  0.00  0.00    +0.000 A 
ATOM     18  C   UNL     1       5.327   3.493  13.595  0.00  0.00    +0.000 A 
ATOM     19  C   UNL     1       6.115   4.341  14.398  0.00  0.00    +0.000 A 
ENDBRANCH   7  11
BRANCH   1  21
ATOM     20  C   UNL     1       0.499   8.210  21.383  0.00  0.00    +0.000 C 
ATOM     21  C   UNL     1       1.685   8.323  20.410  0.00  0.00    +0.000 C 
BRANCH  21  22
ATOM     22  S   UNL     1       1.212   9.363  18.963  0.00  0.00    +0.000 S 
BRANCH  22  23
ATOM     23  C   UNL     1       0.982  10.926  19.649  0.00  0.00    +0.000 A 
ATOM     24  N   UNL     1       0.245  11.257  20.679  0.00  0.00    +0.000 NA
ATOM     25  N   UNL     1       0.307  12.630  20.810  0.00  0.00    +0.000 NA
ATOM     26  C   UNL     1       1.095  13.084  19.864  0.00  0.00    +0.000 A 
ATOM     27  N   UNL     1       1.571  12.042  19.127  0.00  0.00    +0.000 N 
ATOM     28  C   UNL     1       2.489  12.124  18.024  0.00  0.00    +0.000 C 
ENDBRANCH  22  23
ENDBRANCH  21  22
ENDBRANCH   1  21
TORSDOF 4
ENDMDL
MODEL 8
REMARK VINA RESULT:      -8.1      3.200      9.401
REMARK  Name = 
REMARK  6 active torsions:
REMARK  status: ('A' for Active; 'I' for Inactive)
REMARK    1  A    between atoms: C_1  and  C_2
REMARK    2  A    between atoms: C_2  and  S_3
REMARK    3  A    between atoms: C_2  and  C_10
REMARK    4  A    between atoms: S_3  and  C_4
REMARK    5  A    between atoms: N_8  and  C_9
REMARK    6  A    between atoms: C_16  and  C_18
REMARK                            x       y       z     vdW  Elec       q    Type
REMARK                         _______ _______ _______ _____ _____    ______ ____
ROOT
ATOM      1  C   UNL     1       4.326   5.849  17.535  0.00  0.00    +0.000 A 
ATOM      2  C   UNL     1       4.095   4.605  18.133  0.00  0.00    +0.000 A 
ATOM      3  C   UNL     1       3.198   4.522  19.179  0.00  0.00    +0.000 A 
ATOM      4  N   UNL     1       2.527   5.576  19.675  0.00  0.00    +0.000 NA
ATOM      5  C   UNL     1       2.728   6.780  19.117  0.00  0.00    +0.000 A 
ATOM      6  N   UNL     1       2.076   7.900  19.647  0.00  0.00    +0.000 N 
ATOM      7  C   UNL     1       1.220   7.871  20.737  0.00  0.00    +0.000 C 
ATOM      8  O   UNL     1       0.877   6.881  21.373  0.00  0.00    +0.000 OA
ATOM      9  C   UNL     1       3.595   6.950  18.040  0.00  0.00    +0.000 A 
ATOM     10  H   UNL     1       2.261   8.809  19.241  0.00  0.00    +0.000 HD
ENDROOT
BRANCH   7  11
ATOM     11  C   UNL     1       0.729   9.200  21.126  0.00  0.00    +0.000 A 
ATOM     12  N   UNL     1       0.990   9.726  22.340  0.00  0.00    +0.000 NA
ATOM     13  O   UNL     1       0.352  10.957  22.362  0.00  0.00    +0.000 OA
ATOM     14  C   UNL     1      -0.288  11.164  21.182  0.00  0.00    +0.000 A 
ATOM     15  C   UNL     1      -1.056  12.278  20.845  0.00  0.00    +0.000 A 
ATOM     16  C   UNL     1      -1.630  12.276  19.569  0.00  0.00    +0.000 A 
ATOM     17  C   UNL     1      -1.424  11.212  18.686  0.00  0.00    +0.000 A 
ATOM     18  C   UNL     1      -0.645  10.106  19.059  0.00  0.00    +0.000 A 
ATOM     19  C   UNL     1      -0.070  10.087  20.346  0.00  0.00    +0.000 A 
ENDBRANCH   7  11
BRANCH   1  21
ATOM     20  C   UNL     1       4.878   6.992  15.294  0.00  0.00    +0.000 C 
ATOM     21  C   UNL     1       5.350   6.047  16.412  0.00  0.00    +0.000 C 
BRANCH  21  22
ATOM     22  S   UNL     1       5.751   4.391  15.708  0.00  0.00    +0.000 S 
BRANCH  22  23
ATOM     23  C   UNL     1       6.824   4.755  14.412  0.00  0.00    +0.000 A 
ATOM     24  N   UNL     1       7.885   5.522  14.430  0.00  0.00    +0.000 NA
ATOM     25  N   UNL     1       8.382   5.577  13.143  0.00  0.00    +0.000 NA
ATOM     26  C   UNL     1       7.613   4.825  12.389  0.00  0.00    +0.000 A 
ATOM     27  N   UNL     1       6.637   4.259  13.153  0.00  0.00    +0.000 N 
ATOM     28  C   UNL     1       5.622   3.347  12.703  0.00  0.00    +0.000 C 
ENDBRANCH  22  23
ENDBRANCH  21  22
ENDBRANCH   1  21
TORSDOF 4
ENDMDL
MODEL 9
REMARK VINA RESULT:      -8.0      3.622      9.693
REMARK  Name = 
REMARK  6 active torsions:
REMARK  status: ('A' for Active; 'I' for Inactive)
REMARK    1  A    between atoms: C_1  and  C_2
REMARK    2  A    between atoms: C_2  and  S_3
REMARK    3  A    between atoms: C_2  and  C_10
REMARK    4  A    between atoms: S_3  and  C_4
REMARK    5  A    between atoms: N_8  and  C_9
REMARK    6  A    between atoms: C_16  and  C_18
REMARK                            x       y       z     vdW  Elec       q    Type
REMARK                         _______ _______ _______ _____ _____    ______ ____
ROOT
ATOM      1  C   UNL     1       2.836   5.584  18.725  0.00  0.00    +0.000 A 
ATOM      2  C   UNL     1       3.276   6.262  17.582  0.00  0.00    +0.000 A 
ATOM      3  C   UNL     1       3.068   7.624  17.492  0.00  0.00    +0.000 A 
ATOM      4  N   UNL     1       2.452   8.352  18.441  0.00  0.00    +0.000 NA
ATOM      5  C   UNL     1       2.024   7.726  19.547  0.00  0.00    +0.000 A 
ATOM      6  N   UNL     1       1.339   8.454  20.527  0.00  0.00    +0.000 N 
ATOM      7  C   UNL     1       1.051   9.807  20.444  0.00  0.00    +0.000 C 
ATOM      8  O   UNL     1       1.372  10.571  19.542  0.00  0.00    +0.000 OA
ATOM      9  C   UNL     1       2.217   6.359  19.733  0.00  0.00    +0.000 A 
ATOM     10  H   UNL     1       0.990   7.966  21.342  0.00  0.00    +0.000 HD
ENDROOT
BRANCH   7  11
ATOM     11  C   UNL     1       0.259  10.304  21.579  0.00  0.00    +0.000 A 
ATOM     12  N   UNL     1       0.529   9.934  22.847  0.00  0.00    +0.000 NA
ATOM     13  O   UNL     1      -0.426  10.563  23.633  0.00  0.00    +0.000 OA
ATOM     14  C   UNL     1      -1.260  11.294  22.847  0.00  0.00    +0.000 A 
ATOM     15  C   UNL     1      -2.354  12.042  23.279  0.00  0.00    +0.000 A 
ATOM     16  C   UNL     1      -3.079  12.714  22.288  0.00  0.00    +0.000 A 
ATOM     17  C   UNL     1      -2.704  12.639  20.943  0.00  0.00    +0.000 A 
ATOM     18  C   UNL     1      -1.596  11.876  20.545  0.00  0.00    +0.000 A 
ATOM     19  C   UNL     1      -0.862  11.182  21.529  0.00  0.00    +0.000 A 
ENDBRANCH   7  11
BRANCH   1  21
ATOM     20  C   UNL     1       3.145   3.601  20.340  0.00  0.00    +0.000 C 
ATOM     21  C   UNL     1       2.967   4.065  18.884  0.00  0.00    +0.000 C 
BRANCH  21  22
ATOM     22  S   UNL     1       4.401   3.507  17.867  0.00  0.00    +0.000 S 
BRANCH  22  23
ATOM     23  C   UNL     1       5.725   4.394  18.519  0.00  0.00    +0.000 A 
ATOM     24  N   UNL     1       5.972   4.676  19.774  0.00  0.00    +0.000 NA
ATOM     25  N   UNL     1       7.099   5.473  19.807  0.00  0.00    +0.000 NA
ATOM     26  C   UNL     1       7.508   5.635  18.570  0.00  0.00    +0.000 A 
ATOM     27  N   UNL     1       6.691   4.945  17.725  0.00  0.00    +0.000 N 
ATOM     28  C   UNL     1       6.827   4.844  16.298  0.00  0.00    +0.000 C 
ENDBRANCH  22  23
ENDBRANCH  21  22
ENDBRANCH   1  21
TORSDOF 4
ENDMDL
