MODEL 1
REMARK VINA RESULT:      -9.2      0.000      0.000
REMARK  Name = 
REMARK  7 active torsions:
REMARK  status: ('A' for Active; 'I' for Inactive)
REMARK    1  A    between atoms: C_1  and  C_2
REMARK    2  A    between atoms: C_6  and  C_7
REMARK    3  A    between atoms: C_7  and  C_8
REMARK    4  A    between atoms: C_8  and  C_9
REMARK    5  A    between atoms: C_8  and  C_10
REMARK    6  A    between atoms: C_14  and  N_15
REMARK    7  A    between atoms: C_22  and  C_23
REMARK                            x       y       z     vdW  Elec       q    Type
REMARK                         _______ _______ _______ _____ _____    ______ ____
ROOT
ATOM      1  C   UNL     1       4.555   5.462  17.760  0.00  0.00    +0.000 A 
ATOM      2  C   UNL     1       4.406   4.342  18.575  0.00  0.00    +0.000 A 
ATOM      3  C   UNL     1       3.514   4.379  19.660  0.00  0.00    +0.000 A 
ATOM      4  C   UNL     1       2.735   5.517  19.929  0.00  0.00    +0.000 A 
ATOM      5  C   UNL     1       2.865   6.648  19.130  0.00  0.00    +0.000 A 
ATOM      6  C   UNL     1       3.809   6.606  18.088  0.00  0.00    +0.000 A 
ENDROOT
BRANCH   5   7
ATOM      7  N   UNL     1       2.066   7.815  19.269  0.00  0.00    +0.000 N 
ATOM      8  C   UNL     1       1.429   8.082  20.541  0.00  0.00    +0.000 C 
ATOM      9  C   UNL     1       0.789   9.406  20.366  0.00  0.00    +0.000 A 
ATOM     10  C   UNL     1       1.039   9.874  19.079  0.00  0.00    +0.000 A 
ATOM     11  C   UNL     1       0.569  11.107  18.669  0.00  0.00    +0.000 A 
ATOM     12  C   UNL     1      -0.167  11.864  19.592  0.00  0.00    +0.000 A 
ATOM     13  C   UNL     1      -0.417  11.383  20.895  0.00  0.00    +0.000 A 
ATOM     14  C   UNL     1       0.064  10.134  21.305  0.00  0.00    +0.000 A 
ATOM     15  C   UNL     1       1.857   8.860  18.367  0.00  0.00    +0.000 C 
ATOM     16  O   UNL     1       2.246   9.002  17.223  0.00  0.00    +0.000 OA
BRANCH  14  17
ATOM     17  C   UNL     1      -0.184   9.617  22.702  0.00  0.00    +0.000 C 
ATOM     18  F   UNL     1      -0.887   8.449  22.738  0.00  0.00    +0.000 F 
ATOM     19  F   UNL     1       0.969   9.369  23.378  0.00  0.00    +0.000 F 
ATOM     20  F   UNL     1      -0.894  10.493  23.463  0.00  0.00    +0.000 F 
ENDBRANCH  14  17
ENDBRANCH   5   7
BRANCH   1  21
ATOM     21  C   UNL     1       5.351   5.517  16.458  0.00  0.00    +0.000 C 
ATOM     22  C   UNL     1       4.783   4.441  15.514  0.00  0.00    +0.000 C 
BRANCH  21  23
ATOM     23  C   UNL     1       6.882   5.424  16.591  0.00  0.00    +0.000 C 
BRANCH  23  29
ATOM     24  C   UNL     1       8.134   5.420  19.692  0.00  0.00    +0.000 C 
ATOM     25  C   UNL     1       7.973   6.508  18.703  0.00  0.00    +0.000 A 
ATOM     26  N   UNL     1       8.365   7.799  18.956  0.00  0.00    +0.000 N 
ATOM     27  C   UNL     1       8.103   8.540  17.841  0.00  0.00    +0.000 A 
ATOM     28  N   UNL     1       7.551   7.811  16.901  0.00  0.00    +0.000 NA
ATOM     29  C   UNL     1       7.456   6.536  17.420  0.00  0.00    +0.000 A 
ATOM     30  H   UNL     1       8.783   8.146  19.809  0.00  0.00    +0.000 HD
ENDBRANCH  23  29
ENDBRANCH  21  23
ENDBRANCH   1  21
TORSDOF 5
ENDMDL
MODEL 2
REMARK VINA RESULT:      -8.8      1.792      2.876
REMARK  Name = 
REMARK  7 active torsions:
REMARK  status: ('A' for Active; 'I' for Inactive)
REMARK    1  A    between atoms: C_1  and  C_2
REMARK    2  A    between atoms: C_6  and  C_7
REMARK    3  A    between atoms: C_7  and  C_8
REMARK    4  A    between atoms: C_8  and  C_9
REMARK    5  A    between atoms: C_8  and  C_10
REMARK    6  A    between atoms: C_14  and  N_15
REMARK    7  A    between atoms: C_22  and  C_23
REMARK                            x       y       z     vdW  Elec       q    Type
REMARK                         _______ _______ _______ _____ _____    ______ ____
ROOT
ATOM      1  C   UNL     1       4.661   5.482  17.678  0.00  0.00    +0.000 A 
ATOM      2  C   UNL     1       4.434   4.311  18.399  0.00  0.00    +0.000 A 
ATOM      3  C   UNL     1       3.472   4.293  19.422  0.00  0.00    +0.000 A 
ATOM      4  C   UNL     1       2.699   5.429  19.720  0.00  0.00    +0.000 A 
ATOM      5  C   UNL     1       2.906   6.610  19.015  0.00  0.00    +0.000 A 
ATOM      6  C   UNL     1       3.918   6.617  18.038  0.00  0.00    +0.000 A 
ENDROOT
BRANCH   5   7
ATOM      7  N   UNL     1       2.123   7.783  19.184  0.00  0.00    +0.000 N 
ATOM      8  C   UNL     1       1.496   8.031  20.465  0.00  0.00    +0.000 C 
ATOM      9  C   UNL     1       0.873   9.366  20.323  0.00  0.00    +0.000 A 
ATOM     10  C   UNL     1       1.122   9.859  19.045  0.00  0.00    +0.000 A 
ATOM     11  C   UNL     1       0.666  11.107  18.665  0.00  0.00    +0.000 A 
ATOM     12  C   UNL     1      -0.055  11.853  19.609  0.00  0.00    +0.000 A 
ATOM     13  C   UNL     1      -0.304  11.347  20.902  0.00  0.00    +0.000 A 
ATOM     14  C   UNL     1       0.163  10.083  21.282  0.00  0.00    +0.000 A 
ATOM     15  C   UNL     1       1.923   8.851  18.306  0.00  0.00    +0.000 C 
ATOM     16  O   UNL     1       2.308   9.013  17.164  0.00  0.00    +0.000 OA
BRANCH  14  17
ATOM     17  C   UNL     1      -0.086   9.538  22.668  0.00  0.00    +0.000 C 
ATOM     18  F   UNL     1       1.055   9.232  23.351  0.00  0.00    +0.000 F 
ATOM     19  F   UNL     1      -0.757  10.416  23.460  0.00  0.00    +0.000 F 
ATOM     20  F   UNL     1      -0.821   8.394  22.655  0.00  0.00    +0.000 F 
ENDBRANCH  14  17
ENDBRANCH   5   7
BRANCH   1  21
ATOM     21  C   UNL     1       5.545   5.608  16.440  0.00  0.00    +0.000 C 
ATOM     22  C   UNL     1       4.974   6.742  15.568  0.00  0.00    +0.000 C 
BRANCH  21  23
ATOM     23  C   UNL     1       5.776   4.316  15.634  0.00  0.00    +0.000 C 
BRANCH  23  29
ATOM     24  C   UNL     1       5.300   3.234  12.506  0.00  0.00    +0.000 C 
ATOM     25  C   UNL     1       6.349   4.096  13.094  0.00  0.00    +0.000 A 
ATOM     26  N   UNL     1       7.372   4.628  12.349  0.00  0.00    +0.000 N 
ATOM     27  C   UNL     1       8.142   5.387  13.180  0.00  0.00    +0.000 A 
ATOM     28  N   UNL     1       7.689   5.358  14.411  0.00  0.00    +0.000 NA
ATOM     29  C   UNL     1       6.569   4.553  14.382  0.00  0.00    +0.000 A 
ATOM     30  H   UNL     1       7.528   4.493  11.359  0.00  0.00    +0.000 HD
ENDBRANCH  23  29
ENDBRANCH  21  23
ENDBRANCH   1  21
TORSDOF 5
ENDMDL
MODEL 3
REMARK VINA RESULT:      -8.7      0.744      1.208
REMARK  Name = 
REMARK  7 active torsions:
REMARK  status: ('A' for Active; 'I' for Inactive)
REMARK    1  A    between atoms: C_1  and  C_2
REMARK    2  A    between atoms: C_6  and  C_7
REMARK    3  A    between atoms: C_7  and  C_8
REMARK    4  A    between atoms: C_8  and  C_9
REMARK    5  A    between atoms: C_8  and  C_10
REMARK    6  A    between atoms: C_14  and  N_15
REMARK    7  A    between atoms: C_22  and  C_23
REMARK                            x       y       z     vdW  Elec       q    Type
REMARK                         _______ _______ _______ _____ _____    ______ ____
ROOT
ATOM      1  C   UNL     1       4.231   5.241  17.787  0.00  0.00    +0.000 A 
ATOM      2  C   UNL     1       4.078   4.171  18.667  0.00  0.00    +0.000 A 
ATOM      3  C   UNL     1       3.269   4.310  19.807  0.00  0.00    +0.000 A 
ATOM      4  C   UNL     1       2.575   5.504  20.070  0.00  0.00    +0.000 A 
ATOM      5  C   UNL     1       2.709   6.586  19.207  0.00  0.00    +0.000 A 
ATOM      6  C   UNL     1       3.573   6.440  18.107  0.00  0.00    +0.000 A 
ENDROOT
BRANCH   5   7
ATOM      7  N   UNL     1       1.987   7.802  19.340  0.00  0.00    +0.000 N 
ATOM      8  C   UNL     1       1.334   8.097  20.599  0.00  0.00    +0.000 C 
ATOM      9  C   UNL     1       0.790   9.463  20.425  0.00  0.00    +0.000 A 
ATOM     10  C   UNL     1       1.106   9.928  19.152  0.00  0.00    +0.000 A 
ATOM     11  C   UNL     1       0.732  11.195  18.746  0.00  0.00    +0.000 A 
ATOM     12  C   UNL     1       0.023  11.989  19.660  0.00  0.00    +0.000 A 
ATOM     13  C   UNL     1      -0.294  11.511  20.948  0.00  0.00    +0.000 A 
ATOM     14  C   UNL     1       0.091  10.228  21.355  0.00  0.00    +0.000 A 
ATOM     15  C   UNL     1       1.874   8.870  18.448  0.00  0.00    +0.000 C 
ATOM     16  O   UNL     1       2.303   8.999  17.317  0.00  0.00    +0.000 OA
BRANCH  14  17
ATOM     17  C   UNL     1      -0.231   9.712  22.737  0.00  0.00    +0.000 C 
ATOM     18  F   UNL     1      -0.945   8.550  22.738  0.00  0.00    +0.000 F 
ATOM     19  F   UNL     1       0.886   9.452  23.468  0.00  0.00    +0.000 F 
ATOM     20  F   UNL     1      -0.968  10.594  23.463  0.00  0.00    +0.000 F 
ENDBRANCH  14  17
ENDBRANCH   5   7
BRANCH   1  21
ATOM     21  C   UNL     1       4.934   5.188  16.433  0.00  0.00    +0.000 C 
ATOM     22  C   UNL     1       5.269   3.715  16.135  0.00  0.00    +0.000 C 
BRANCH  21  23
ATOM     23  C   UNL     1       6.156   6.109  16.264  0.00  0.00    +0.000 C 
BRANCH  23  29
ATOM     24  C   UNL     1       7.804   8.625  17.726  0.00  0.00    +0.000 C 
ATOM     25  C   UNL     1       7.702   7.190  18.072  0.00  0.00    +0.000 A 
ATOM     26  N   UNL     1       8.335   6.646  19.162  0.00  0.00    +0.000 N 
ATOM     27  C   UNL     1       8.019   5.321  19.209  0.00  0.00    +0.000 A 
ATOM     28  N   UNL     1       7.241   4.978  18.210  0.00  0.00    +0.000 NA
ATOM     29  C   UNL     1       7.032   6.132  17.483  0.00  0.00    +0.000 A 
ATOM     30  H   UNL     1       8.926   7.135  19.821  0.00  0.00    +0.000 HD
ENDBRANCH  23  29
ENDBRANCH  21  23
ENDBRANCH   1  21
TORSDOF 5
ENDMDL
MODEL 4
REMARK VINA RESULT:      -8.7      1.426      2.398
REMARK  Name = 
REMARK  7 active torsions:
REMARK  status: ('A' for Active; 'I' for Inactive)
REMARK    1  A    between atoms: C_1  and  C_2
REMARK    2  A    between atoms: C_6  and  C_7
REMARK    3  A    between atoms: C_7  and  C_8
REMARK    4  A    between atoms: C_8  and  C_9
REMARK    5  A    between atoms: C_8  and  C_10
REMARK    6  A    between atoms: C_14  and  N_15
REMARK    7  A    between atoms: C_22  and  C_23
REMARK                            x       y       z     vdW  Elec       q    Type
REMARK                         _______ _______ _______ _____ _____    ______ ____
ROOT
ATOM      1  C   UNL     1       5.251   5.359  18.980  0.00  0.00    +0.000 A 
ATOM      2  C   UNL     1       4.759   4.093  19.290  0.00  0.00    +0.000 A 
ATOM      3  C   UNL     1       3.427   3.942  19.709  0.00  0.00    +0.000 A 
ATOM      4  C   UNL     1       2.557   5.043  19.792  0.00  0.00    +0.000 A 
ATOM      5  C   UNL     1       3.023   6.318  19.488  0.00  0.00    +0.000 A 
ATOM      6  C   UNL     1       4.377   6.448  19.130  0.00  0.00    +0.000 A 
ENDROOT
BRANCH   5   7
ATOM      7  N   UNL     1       2.205   7.478  19.462  0.00  0.00    +0.000 N 
ATOM      8  C   UNL     1       1.487   7.858  20.660  0.00  0.00    +0.000 C 
ATOM      9  C   UNL     1       0.845   9.147  20.317  0.00  0.00    +0.000 A 
ATOM     10  C   UNL     1       1.168   9.491  19.008  0.00  0.00    +0.000 A 
ATOM     11  C   UNL     1       0.710  10.669  18.450  0.00  0.00    +0.000 A 
ATOM     12  C   UNL     1      -0.090  11.501  19.248  0.00  0.00    +0.000 A 
ATOM     13  C   UNL     1      -0.414  11.146  20.574  0.00  0.00    +0.000 A 
ATOM     14  C   UNL     1       0.055   9.952  21.135  0.00  0.00    +0.000 A 
ATOM     15  C   UNL     1       2.040   8.426  18.450  0.00  0.00    +0.000 C 
ATOM     16  O   UNL     1       2.497   8.462  17.323  0.00  0.00    +0.000 OA
BRANCH  14  17
ATOM     17  C   UNL     1      -0.273   9.570  22.558  0.00  0.00    +0.000 C 
ATOM     18  F   UNL     1      -0.916   8.372  22.672  0.00  0.00    +0.000 F 
ATOM     19  F   UNL     1       0.836   9.462  23.337  0.00  0.00    +0.000 F 
ATOM     20  F   UNL     1      -1.083  10.477  23.167  0.00  0.00    +0.000 F 
ENDBRANCH  14  17
ENDBRANCH   5   7
BRANCH   1  21
ATOM     21  C   UNL     1       6.613   5.657  18.357  0.00  0.00    +0.000 C 
ATOM     22  C   UNL     1       6.479   6.950  17.531  0.00  0.00    +0.000 C 
BRANCH  21  23
ATOM     23  C   UNL     1       7.257   4.515  17.549  0.00  0.00    +0.000 C 
BRANCH  23  29
ATOM     24  C   UNL     1       4.396   3.509  16.138  0.00  0.00    +0.000 C 
ATOM     25  C   UNL     1       5.626   4.089  15.553  0.00  0.00    +0.000 A 
ATOM     26  N   UNL     1       5.764   4.321  14.207  0.00  0.00    +0.000 N 
ATOM     27  C   UNL     1       6.992   4.878  14.004  0.00  0.00    +0.000 A 
ATOM     28  N   UNL     1       7.654   5.000  15.130  0.00  0.00    +0.000 NA
ATOM     29  C   UNL     1       6.819   4.509  16.113  0.00  0.00    +0.000 A 
ATOM     30  H   UNL     1       5.080   4.124  13.489  0.00  0.00    +0.000 HD
ENDBRANCH  23  29
ENDBRANCH  21  23
ENDBRANCH   1  21
TORSDOF 5
ENDMDL
MODEL 5
REMARK VINA RESULT:      -8.7      3.432      8.321
REMARK  Name = 
REMARK  7 active torsions:
REMARK  status: ('A' for Active; 'I' for Inactive)
REMARK    1  A    between atoms: C_1  and  C_2
REMARK    2  A    between atoms: C_6  and  C_7
REMARK    3  A    between atoms: C_7  and  C_8
REMARK    4  A    between atoms: C_8  and  C_9
REMARK    5  A    between atoms: C_8  and  C_10
REMARK    6  A    between atoms: C_14  and  N_15
REMARK    7  A    between atoms: C_22  and  C_23
REMARK                            x       y       z     vdW  Elec       q    Type
REMARK                         _______ _______ _______ _____ _____    ______ ____
ROOT
ATOM      1  C   UNL     1      -0.379  10.775  19.816  0.00  0.00    +0.000 A 
ATOM      2  C   UNL     1      -0.350  11.152  21.157  0.00  0.00    +0.000 A 
ATOM      3  C   UNL     1       0.349  10.368  22.090  0.00  0.00    +0.000 A 
ATOM      4  C   UNL     1       1.055   9.218  21.697  0.00  0.00    +0.000 A 
ATOM      5  C   UNL     1       1.043   8.821  20.365  0.00  0.00    +0.000 A 
ATOM      6  C   UNL     1       0.285   9.590  19.462  0.00  0.00    +0.000 A 
ENDROOT
BRANCH   5   7
ATOM      7  N   UNL     1       1.790   7.726  19.855  0.00  0.00    +0.000 N 
ATOM      8  C   UNL     1       1.672   6.434  20.499  0.00  0.00    +0.000 C 
ATOM      9  C   UNL     1       2.476   5.522  19.656  0.00  0.00    +0.000 A 
ATOM     10  C   UNL     1       3.025   6.237  18.595  0.00  0.00    +0.000 A 
ATOM     11  C   UNL     1       3.803   5.607  17.642  0.00  0.00    +0.000 A 
ATOM     12  C   UNL     1       4.021   4.228  17.785  0.00  0.00    +0.000 A 
ATOM     13  C   UNL     1       3.462   3.511  18.863  0.00  0.00    +0.000 A 
ATOM     14  C   UNL     1       2.672   4.154  19.824  0.00  0.00    +0.000 A 
ATOM     15  C   UNL     1       2.591   7.652  18.714  0.00  0.00    +0.000 C 
ATOM     16  O   UNL     1       2.903   8.514  17.914  0.00  0.00    +0.000 OA
BRANCH  14  17
ATOM     17  C   UNL     1       2.057   3.392  20.973  0.00  0.00    +0.000 C 
ATOM     18  F   UNL     1       2.353   2.061  20.972  0.00  0.00    +0.000 F 
ATOM     19  F   UNL     1       2.469   3.855  22.184  0.00  0.00    +0.000 F 
ATOM     20  F   UNL     1       0.699   3.463  20.978  0.00  0.00    +0.000 F 
ENDBRANCH  14  17
ENDBRANCH   5   7
BRANCH   1  21
ATOM     21  C   UNL     1      -0.949  11.607  18.669  0.00  0.00    +0.000 C 
ATOM     22  C   UNL     1      -0.252  12.980  18.693  0.00  0.00    +0.000 C 
BRANCH  21  23
ATOM     23  C   UNL     1      -2.483  11.733  18.617  0.00  0.00    +0.000 C 
BRANCH  23  29
ATOM     24  C   UNL     1      -5.519  12.145  17.278  0.00  0.00    +0.000 C 
ATOM     25  C   UNL     1      -4.318  11.438  16.781  0.00  0.00    +0.000 A 
ATOM     26  N   UNL     1      -4.288  10.794  15.568  0.00  0.00    +0.000 N 
ATOM     27  C   UNL     1      -3.039  10.274  15.403  0.00  0.00    +0.000 A 
ATOM     28  N   UNL     1      -2.274  10.527  16.439  0.00  0.00    +0.000 NA
ATOM     29  C   UNL     1      -3.055  11.252  17.316  0.00  0.00    +0.000 A 
ATOM     30  H   UNL     1      -5.049  10.722  14.907  0.00  0.00    +0.000 HD
ENDBRANCH  23  29
ENDBRANCH  21  23
ENDBRANCH   1  21
TORSDOF 5
ENDMDL
MODEL 6
REMARK VINA RESULT:      -8.4      2.321      2.891
REMARK  Name = 
REMARK  7 active torsions:
REMARK  status: ('A' for Active; 'I' for Inactive)
REMARK    1  A    between atoms: C_1  and  C_2
REMARK    2  A    between atoms: C_6  and  C_7
REMARK    3  A    between atoms: C_7  and  C_8
REMARK    4  A    between atoms: C_8  and  C_9
REMARK    5  A    between atoms: C_8  and  C_10
REMARK    6  A    between atoms: C_14  and  N_15
REMARK    7  A    between atoms: C_22  and  C_23
REMARK                            x       y       z     vdW  Elec       q    Type
REMARK                         _______ _______ _______ _____ _____    ______ ____
ROOT
ATOM      1  C   UNL     1       4.495   4.673  16.809  0.00  0.00    +0.000 A 
ATOM      2  C   UNL     1       3.766   3.506  16.591  0.00  0.00    +0.000 A 
ATOM      3  C   UNL     1       2.565   3.290  17.286  0.00  0.00    +0.000 A 
ATOM      4  C   UNL     1       2.056   4.245  18.182  0.00  0.00    +0.000 A 
ATOM      5  C   UNL     1       2.764   5.419  18.418  0.00  0.00    +0.000 A 
ATOM      6  C   UNL     1       3.994   5.582  17.755  0.00  0.00    +0.000 A 
ENDROOT
BRANCH   5   7
ATOM      7  N   UNL     1       2.295   6.479  19.239  0.00  0.00    +0.000 N 
ATOM      8  C   UNL     1       2.038   7.771  18.638  0.00  0.00    +0.000 C 
ATOM      9  C   UNL     1       1.463   8.583  19.734  0.00  0.00    +0.000 A 
ATOM     10  C   UNL     1       1.392   7.814  20.892  0.00  0.00    +0.000 A 
ATOM     11  C   UNL     1       0.865   8.335  22.058  0.00  0.00    +0.000 A 
ATOM     12  C   UNL     1       0.410   9.662  22.033  0.00  0.00    +0.000 A 
ATOM     13  C   UNL     1       0.486  10.436  20.856  0.00  0.00    +0.000 A 
ATOM     14  C   UNL     1       1.017   9.901  19.676  0.00  0.00    +0.000 A 
ATOM     15  C   UNL     1       1.924   6.462  20.585  0.00  0.00    +0.000 C 
ATOM     16  O   UNL     1       1.972   5.564  21.403  0.00  0.00    +0.000 OA
BRANCH  14  17
ATOM     17  C   UNL     1       1.089  10.716  18.407  0.00  0.00    +0.000 C 
ATOM     18  F   UNL     1       0.313  10.230  17.397  0.00  0.00    +0.000 F 
ATOM     19  F   UNL     1       0.683  12.001  18.590  0.00  0.00    +0.000 F 
ATOM     20  F   UNL     1       2.349  10.781  17.900  0.00  0.00    +0.000 F 
ENDBRANCH  14  17
ENDBRANCH   5   7
BRANCH   1  21
ATOM     21  C   UNL     1       5.718   5.121  16.013  0.00  0.00    +0.000 C 
ATOM     22  C   UNL     1       5.666   4.426  14.640  0.00  0.00    +0.000 C 
BRANCH  21  23
ATOM     23  C   UNL     1       7.083   4.943  16.703  0.00  0.00    +0.000 C 
BRANCH  23  29
ATOM     24  C   UNL     1       8.097   5.376  19.861  0.00  0.00    +0.000 C 
ATOM     25  C   UNL     1       7.944   6.332  18.742  0.00  0.00    +0.000 A 
ATOM     26  N   UNL     1       8.238   7.667  18.867  0.00  0.00    +0.000 N 
ATOM     27  C   UNL     1       8.016   8.257  17.658  0.00  0.00    +0.000 A 
ATOM     28  N   UNL     1       7.581   7.390  16.775  0.00  0.00    +0.000 NA
ATOM     29  C   UNL     1       7.525   6.178  17.432  0.00  0.00    +0.000 A 
ATOM     30  H   UNL     1       8.568   8.135  19.700  0.00  0.00    +0.000 HD
ENDBRANCH  23  29
ENDBRANCH  21  23
ENDBRANCH   1  21
TORSDOF 5
ENDMDL
MODEL 7
REMARK VINA RESULT:      -8.4      1.502      2.268
REMARK  Name = 
REMARK  7 active torsions:
REMARK  status: ('A' for Active; 'I' for Inactive)
REMARK    1  A    between atoms: C_1  and  C_2
REMARK    2  A    between atoms: C_6  and  C_7
REMARK    3  A    between atoms: C_7  and  C_8
REMARK    4  A    between atoms: C_8  and  C_9
REMARK    5  A    between atoms: C_8  and  C_10
REMARK    6  A    between atoms: C_14  and  N_15
REMARK    7  A    between atoms: C_22  and  C_23
REMARK                            x       y       z     vdW  Elec       q    Type
REMARK                         _______ _______ _______ _____ _____    ______ ____
ROOT
ATOM      1  C   UNL     1       3.368   4.308  18.566  0.00  0.00    +0.000 A 
ATOM      2  C   UNL     1       3.229   3.452  19.657  0.00  0.00    +0.000 A 
ATOM      3  C   UNL     1       2.656   3.925  20.850  0.00  0.00    +0.000 A 
ATOM      4  C   UNL     1       2.182   5.243  20.961  0.00  0.00    +0.000 A 
ATOM      5  C   UNL     1       2.307   6.117  19.887  0.00  0.00    +0.000 A 
ATOM      6  C   UNL     1       2.941   5.636  18.726  0.00  0.00    +0.000 A 
ENDROOT
BRANCH   5   7
ATOM      7  N   UNL     1       1.787   7.438  19.872  0.00  0.00    +0.000 N 
ATOM      8  C   UNL     1       1.091   7.933  21.042  0.00  0.00    +0.000 C 
ATOM      9  C   UNL     1       0.796   9.349  20.729  0.00  0.00    +0.000 A 
ATOM     10  C   UNL     1       1.287   9.655  19.463  0.00  0.00    +0.000 A 
ATOM     11  C   UNL     1       1.161  10.929  18.942  0.00  0.00    +0.000 A 
ATOM     12  C   UNL     1       0.520  11.896  19.732  0.00  0.00    +0.000 A 
ATOM     13  C   UNL     1       0.025  11.578  21.013  0.00  0.00    +0.000 A 
ATOM     14  C   UNL     1       0.158  10.286  21.537  0.00  0.00    +0.000 A 
ATOM     15  C   UNL     1       1.924   8.436  18.904  0.00  0.00    +0.000 C 
ATOM     16  O   UNL     1       2.459   8.405  17.812  0.00  0.00    +0.000 OA
BRANCH  14  17
ATOM     17  C   UNL     1      -0.355   9.940  22.914  0.00  0.00    +0.000 C 
ATOM     18  F   UNL     1      -1.064  10.944  23.505  0.00  0.00    +0.000 F 
ATOM     19  F   UNL     1      -1.189   8.865  22.903  0.00  0.00    +0.000 F 
ATOM     20  F   UNL     1       0.646   9.639  23.783  0.00  0.00    +0.000 F 
ENDBRANCH  14  17
ENDBRANCH   5   7
BRANCH   1  21
ATOM     21  C   UNL     1       3.813   3.898  17.164  0.00  0.00    +0.000 C 
ATOM     22  C   UNL     1       2.784   2.889  16.621  0.00  0.00    +0.000 C 
BRANCH  21  23
ATOM     23  C   UNL     1       5.258   3.384  17.032  0.00  0.00    +0.000 C 
BRANCH  23  29
ATOM     24  C   UNL     1       7.168   6.083  17.532  0.00  0.00    +0.000 C 
ATOM     25  C   UNL     1       6.861   5.315  16.305  0.00  0.00    +0.000 A 
ATOM     26  N   UNL     1       7.383   5.643  15.078  0.00  0.00    +0.000 N 
ATOM     27  C   UNL     1       6.927   4.731  14.174  0.00  0.00    +0.000 A 
ATOM     28  N   UNL     1       6.132   3.853  14.739  0.00  0.00    +0.000 NA
ATOM     29  C   UNL     1       6.073   4.201  16.072  0.00  0.00    +0.000 A 
ATOM     30  H   UNL     1       8.001   6.416  14.875  0.00  0.00    +0.000 HD
ENDBRANCH  23  29
ENDBRANCH  21  23
ENDBRANCH   1  21
TORSDOF 5
ENDMDL
MODEL 8
REMARK VINA RESULT:      -8.3      3.511      8.629
REMARK  Name = 
REMARK  7 active torsions:
REMARK  status: ('A' for Active; 'I' for Inactive)
REMARK    1  A    between atoms: C_1  and  C_2
REMARK    2  A    between atoms: C_6  and  C_7
REMARK    3  A    between atoms: C_7  and  C_8
REMARK    4  A    between atoms: C_8  and  C_9
REMARK    5  A    between atoms: C_8  and  C_10
REMARK    6  A    between atoms: C_14  and  N_15
REMARK    7  A    between atoms: C_22  and  C_23
REMARK                            x       y       z     vdW  Elec       q    Type
REMARK                         _______ _______ _______ _____ _____    ______ ____
ROOT
ATOM      1  C   UNL     1      -0.742  10.883  20.497  0.00  0.00    +0.000 A 
ATOM      2  C   UNL     1      -0.747  11.066  21.879  0.00  0.00    +0.000 A 
ATOM      3  C   UNL     1      -0.046  10.172  22.706  0.00  0.00    +0.000 A 
ATOM      4  C   UNL     1       0.697   9.107  22.169  0.00  0.00    +0.000 A 
ATOM      5  C   UNL     1       0.719   8.904  20.793  0.00  0.00    +0.000 A 
ATOM      6  C   UNL     1      -0.041   9.776  19.993  0.00  0.00    +0.000 A 
ENDROOT
BRANCH   5   7
ATOM      7  N   UNL     1       1.503   7.910  20.149  0.00  0.00    +0.000 N 
ATOM      8  C   UNL     1       1.511   6.565  20.685  0.00  0.00    +0.000 C 
ATOM      9  C   UNL     1       2.319   5.784  19.722  0.00  0.00    +0.000 A 
ATOM     10  C   UNL     1       2.752   6.620  18.697  0.00  0.00    +0.000 A 
ATOM     11  C   UNL     1       3.509   6.127  17.651  0.00  0.00    +0.000 A 
ATOM     12  C   UNL     1       3.825   4.761  17.662  0.00  0.00    +0.000 A 
ATOM     13  C   UNL     1       3.383   3.919  18.704  0.00  0.00    +0.000 A 
ATOM     14  C   UNL     1       2.614   4.424  19.760  0.00  0.00    +0.000 A 
ATOM     15  C   UNL     1       2.234   7.987  18.962  0.00  0.00    +0.000 C 
ATOM     16  O   UNL     1       2.438   8.931  18.223  0.00  0.00    +0.000 OA
BRANCH  14  17
ATOM     17  C   UNL     1       2.124   3.529  20.873  0.00  0.00    +0.000 C 
ATOM     18  F   UNL     1       2.492   3.947  22.118  0.00  0.00    +0.000 F 
ATOM     19  F   UNL     1       0.768   3.437  20.907  0.00  0.00    +0.000 F 
ATOM     20  F   UNL     1       2.592   2.257  20.763  0.00  0.00    +0.000 F 
ENDBRANCH  14  17
ENDBRANCH   5   7
BRANCH   1  21
ATOM     21  C   UNL     1      -1.312  11.857  19.468  0.00  0.00    +0.000 C 
ATOM     22  C   UNL     1      -0.413  13.107  19.455  0.00  0.00    +0.000 C 
BRANCH  21  23
ATOM     23  C   UNL     1      -2.803  12.213  19.621  0.00  0.00    +0.000 C 
BRANCH  23  29
ATOM     24  C   UNL     1      -6.112  11.899  19.253  0.00  0.00    +0.000 C 
ATOM     25  C   UNL     1      -4.995  11.657  18.313  0.00  0.00    +0.000 A 
ATOM     26  N   UNL     1      -5.195  11.232  17.023  0.00  0.00    +0.000 N 
ATOM     27  C   UNL     1      -3.974  11.133  16.423  0.00  0.00    +0.000 A 
ATOM     28  N   UNL     1      -3.007  11.448  17.252  0.00  0.00    +0.000 NA
ATOM     29  C   UNL     1      -3.622  11.776  18.442  0.00  0.00    +0.000 A 
ATOM     30  H   UNL     1      -6.084  11.034  16.586  0.00  0.00    +0.000 HD
ENDBRANCH  23  29
ENDBRANCH  21  23
ENDBRANCH   1  21
TORSDOF 5
ENDMDL
MODEL 9
REMARK VINA RESULT:      -8.3      1.840      2.678
REMARK  Name = 
REMARK  7 active torsions:
REMARK  status: ('A' for Active; 'I' for Inactive)
REMARK    1  A    between atoms: C_1  and  C_2
REMARK    2  A    between atoms: C_6  and  C_7
REMARK    3  A    between atoms: C_7  and  C_8
REMARK    4  A    between atoms: C_8  and  C_9
REMARK    5  A    between atoms: C_8  and  C_10
REMARK    6  A    between atoms: C_14  and  N_15
REMARK    7  A    between atoms: C_22  and  C_23
REMARK                            x       y       z     vdW  Elec       q    Type
REMARK                         _______ _______ _______ _____ _____    ______ ____
ROOT
ATOM      1  C   UNL     1       3.845   4.032  19.346  0.00  0.00    +0.000 A 
ATOM      2  C   UNL     1       3.264   3.093  20.196  0.00  0.00    +0.000 A 
ATOM      3  C   UNL     1       2.224   3.479  21.059  0.00  0.00    +0.000 A 
ATOM      4  C   UNL     1       1.727   4.794  21.064  0.00  0.00    +0.000 A 
ATOM      5  C   UNL     1       2.290   5.749  20.225  0.00  0.00    +0.000 A 
ATOM      6  C   UNL     1       3.369   5.351  19.416  0.00  0.00    +0.000 A 
ENDROOT
BRANCH   5   7
ATOM      7  N   UNL     1       1.806   7.078  20.097  0.00  0.00    +0.000 N 
ATOM      8  C   UNL     1       1.125   7.689  21.219  0.00  0.00    +0.000 C 
ATOM      9  C   UNL     1       0.868   9.081  20.787  0.00  0.00    +0.000 A 
ATOM     10  C   UNL     1       1.365   9.264  19.500  0.00  0.00    +0.000 A 
ATOM     11  C   UNL     1       1.272  10.492  18.872  0.00  0.00    +0.000 A 
ATOM     12  C   UNL     1       0.660  11.540  19.575  0.00  0.00    +0.000 A 
ATOM     13  C   UNL     1       0.157  11.346  20.879  0.00  0.00    +0.000 A 
ATOM     14  C   UNL     1       0.257  10.101  21.511  0.00  0.00    +0.000 A 
ATOM     15  C   UNL     1       1.968   7.985  19.048  0.00  0.00    +0.000 C 
ATOM     16  O   UNL     1       2.501   7.846  17.963  0.00  0.00    +0.000 OA
BRANCH  14  17
ATOM     17  C   UNL     1      -0.264   9.887  22.912  0.00  0.00    +0.000 C 
ATOM     18  F   UNL     1       0.704   9.559  23.815  0.00  0.00    +0.000 F 
ATOM     19  F   UNL     1      -0.870  10.995  23.417  0.00  0.00    +0.000 F 
ATOM     20  F   UNL     1      -1.180   8.885  22.980  0.00  0.00    +0.000 F 
ENDBRANCH  14  17
ENDBRANCH   5   7
BRANCH   1  21
ATOM     21  C   UNL     1       4.858   3.729  18.244  0.00  0.00    +0.000 C 
ATOM     22  C   UNL     1       6.072   4.652  18.454  0.00  0.00    +0.000 C 
BRANCH  21  23
ATOM     23  C   UNL     1       4.328   3.782  16.799  0.00  0.00    +0.000 C 
BRANCH  23  29
ATOM     24  C   UNL     1       4.902   6.954  15.906  0.00  0.00    +0.000 C 
ATOM     25  C   UNL     1       5.547   5.688  15.491  0.00  0.00    +0.000 A 
ATOM     26  N   UNL     1       6.583   5.648  14.592  0.00  0.00    +0.000 N 
ATOM     27  C   UNL     1       6.960   4.345  14.449  0.00  0.00    +0.000 A 
ATOM     28  N   UNL     1       6.220   3.549  15.184  0.00  0.00    +0.000 NA
ATOM     29  C   UNL     1       5.326   4.368  15.842  0.00  0.00    +0.000 A 
ATOM     30  H   UNL     1       7.002   6.438  14.121  0.00  0.00    +0.000 HD
ENDBRANCH  23  29
ENDBRANCH  21  23
ENDBRANCH   1  21
TORSDOF 5
ENDMDL
