MODEL 1
REMARK VINA RESULT:      -7.8      0.000      0.000
REMARK  Name = 
REMARK  6 active torsions:
REMARK  status: ('A' for Active; 'I' for Inactive)
REMARK    1  A    between atoms: C_1  and  C_2
REMARK    2  A    between atoms: C_2  and  S_3
REMARK    3  A    between atoms: C_2  and  C_10
REMARK    4  A    between atoms: S_3  and  C_4
REMARK    5  A    between atoms: N_8  and  C_9
REMARK    6  A    between atoms: C_14  and  N_15
REMARK                            x       y       z     vdW  Elec       q    Type
REMARK                         _______ _______ _______ _____ _____    ______ ____
ROOT
ATOM      1  C   UNL     1       4.362   4.829  16.767  0.00  0.00    +0.000 A 
ATOM      2  C   UNL     1       3.564   3.674  16.847  0.00  0.00    +0.000 A 
ATOM      3  C   UNL     1       2.342   3.695  17.515  0.00  0.00    +0.000 A 
ATOM      4  C   UNL     1       1.907   4.858  18.150  0.00  0.00    +0.000 A 
ATOM      5  C   UNL     1       2.702   6.001  18.151  0.00  0.00    +0.000 A 
ATOM      6  C   UNL     1       3.918   5.980  17.450  0.00  0.00    +0.000 A 
ENDROOT
BRANCH   5   7
ATOM      7  N   UNL     1       2.346   7.203  18.810  0.00  0.00    +0.000 N 
ATOM      8  C   UNL     1       1.895   7.324  20.105  0.00  0.00    +0.000 C 
ATOM      9  O   UNL     1       1.827   6.392  20.902  0.00  0.00    +0.000 OA
ATOM     10  N   UNL     1       1.552   8.621  20.488  0.00  0.00    +0.000 N 
ATOM     11  C   UNL     1       1.218   8.843  21.894  0.00  0.00    +0.000 C 
ATOM     12  C   UNL     1      -0.281   9.068  22.059  0.00  0.00    +0.000 C 
ATOM     13  C   UNL     1      -0.743  10.232  21.183  0.00  0.00    +0.000 C 
ATOM     14  C   UNL     1      -0.333  10.014  19.724  0.00  0.00    +0.000 C 
ATOM     15  C   UNL     1       1.163   9.714  19.594  0.00  0.00    +0.000 C 
ATOM     16  H   UNL     1       2.692   8.052  18.392  0.00  0.00    +0.000 HD
ENDBRANCH   5   7
BRANCH   1  18
ATOM     17  C   UNL     1       5.656   3.689  14.859  0.00  0.00    +0.000 C 
ATOM     18  C   UNL     1       5.643   4.796  15.924  0.00  0.00    +0.000 C 
BRANCH  18  19
ATOM     19  S   UNL     1       7.083   4.576  17.062  0.00  0.00    +0.000 S 
BRANCH  19  20
ATOM     20  C   UNL     1       7.480   6.196  17.486  0.00  0.00    +0.000 A 
ATOM     21  N   UNL     1       7.420   7.263  16.725  0.00  0.00    +0.000 NA
ATOM     22  N   UNL     1       7.918   8.323  17.455  0.00  0.00    +0.000 NA
ATOM     23  C   UNL     1       8.249   7.867  18.643  0.00  0.00    +0.000 A 
ATOM     24  N   UNL     1       7.970   6.538  18.715  0.00  0.00    +0.000 N 
ATOM     25  C   UNL     1       8.182   5.682  19.851  0.00  0.00    +0.000 C 
ENDBRANCH  19  20
ENDBRANCH  18  19
ENDBRANCH   1  18
TORSDOF 4
ENDMDL
MODEL 2
REMARK VINA RESULT:      -7.4      3.204      4.741
REMARK  Name = 
REMARK  6 active torsions:
REMARK  status: ('A' for Active; 'I' for Inactive)
REMARK    1  A    between atoms: C_1  and  C_2
REMARK    2  A    between atoms: C_2  and  S_3
REMARK    3  A    between atoms: C_2  and  C_10
REMARK    4  A    between atoms: S_3  and  C_4
REMARK    5  A    between atoms: N_8  and  C_9
REMARK    6  A    between atoms: C_14  and  N_15
REMARK                            x       y       z     vdW  Elec       q    Type
REMARK                         _______ _______ _______ _____ _____    ______ ____
ROOT
ATOM      1  C   UNL     1       4.235   5.870  18.752  0.00  0.00    +0.000 A 
ATOM      2  C   UNL     1       4.568   6.405  17.495  0.00  0.00    +0.000 A 
ATOM      3  C   UNL     1       3.884   7.505  16.983  0.00  0.00    +0.000 A 
ATOM      4  C   UNL     1       2.827   8.071  17.696  0.00  0.00    +0.000 A 
ATOM      5  C   UNL     1       2.423   7.524  18.911  0.00  0.00    +0.000 A 
ATOM      6  C   UNL     1       3.138   6.435  19.435  0.00  0.00    +0.000 A 
ENDROOT
BRANCH   5   7
ATOM      7  N   UNL     1       1.333   8.018  19.669  0.00  0.00    +0.000 N 
ATOM      8  C   UNL     1       0.900   9.323  19.726  0.00  0.00    +0.000 C 
ATOM      9  O   UNL     1       1.359  10.233  19.041  0.00  0.00    +0.000 OA
ATOM     10  N   UNL     1      -0.161   9.552  20.602  0.00  0.00    +0.000 N 
ATOM     11  C   UNL     1      -0.771  10.880  20.592  0.00  0.00    +0.000 C 
ATOM     12  C   UNL     1      -0.386  11.657  21.847  0.00  0.00    +0.000 C 
ATOM     13  C   UNL     1      -0.776  10.871  23.098  0.00  0.00    +0.000 C 
ATOM     14  C   UNL     1      -0.180   9.461  23.066  0.00  0.00    +0.000 C 
ATOM     15  C   UNL     1      -0.517   8.732  21.763  0.00  0.00    +0.000 C 
ATOM     16  H   UNL     1       0.670   7.328  19.983  0.00  0.00    +0.000 HD
ENDBRANCH   5   7
BRANCH   1  18
ATOM     17  C   UNL     1       6.539   4.729  18.826  0.00  0.00    +0.000 C 
ATOM     18  C   UNL     1       5.088   4.734  19.331  0.00  0.00    +0.000 C 
BRANCH  18  19
ATOM     19  S   UNL     1       4.280   3.126  18.907  0.00  0.00    +0.000 S 
BRANCH  19  20
ATOM     20  C   UNL     1       3.095   2.961  20.144  0.00  0.00    +0.000 A 
ATOM     21  N   UNL     1       3.288   2.656  21.406  0.00  0.00    +0.000 NA
ATOM     22  N   UNL     1       2.047   2.546  22.001  0.00  0.00    +0.000 NA
ATOM     23  C   UNL     1       1.142   2.806  21.084  0.00  0.00    +0.000 A 
ATOM     24  N   UNL     1       1.756   3.094  19.906  0.00  0.00    +0.000 N 
ATOM     25  C   UNL     1       1.109   3.436  18.667  0.00  0.00    +0.000 C 
ENDBRANCH  19  20
ENDBRANCH  18  19
ENDBRANCH   1  18
TORSDOF 4
ENDMDL
MODEL 3
REMARK VINA RESULT:      -7.3      2.297      3.372
REMARK  Name = 
REMARK  6 active torsions:
REMARK  status: ('A' for Active; 'I' for Inactive)
REMARK    1  A    between atoms: C_1  and  C_2
REMARK    2  A    between atoms: C_2  and  S_3
REMARK    3  A    between atoms: C_2  and  C_10
REMARK    4  A    between atoms: S_3  and  C_4
REMARK    5  A    between atoms: N_8  and  C_9
REMARK    6  A    between atoms: C_14  and  N_15
REMARK                            x       y       z     vdW  Elec       q    Type
REMARK                         _______ _______ _______ _____ _____    ______ ____
ROOT
ATOM      1  C   UNL     1       4.931   4.609  17.256  0.00  0.00    +0.000 A 
ATOM      2  C   UNL     1       4.087   3.485  17.294  0.00  0.00    +0.000 A 
ATOM      3  C   UNL     1       2.730   3.621  17.578  0.00  0.00    +0.000 A 
ATOM      4  C   UNL     1       2.193   4.875  17.868  0.00  0.00    +0.000 A 
ATOM      5  C   UNL     1       3.012   6.001  17.908  0.00  0.00    +0.000 A 
ATOM      6  C   UNL     1       4.372   5.860  17.590  0.00  0.00    +0.000 A 
ENDROOT
BRANCH   5   7
ATOM      7  N   UNL     1       2.546   7.298  18.237  0.00  0.00    +0.000 N 
ATOM      8  C   UNL     1       1.978   7.686  19.429  0.00  0.00    +0.000 C 
ATOM      9  O   UNL     1       1.882   6.961  20.416  0.00  0.00    +0.000 OA
ATOM     10  N   UNL     1       1.546   9.011  19.469  0.00  0.00    +0.000 N 
ATOM     11  C   UNL     1       1.080   9.531  20.754  0.00  0.00    +0.000 C 
ATOM     12  C   UNL     1      -0.436   9.692  20.749  0.00  0.00    +0.000 C 
ATOM     13  C   UNL     1      -0.871  10.589  19.591  0.00  0.00    +0.000 C 
ATOM     14  C   UNL     1      -0.325  10.067  18.260  0.00  0.00    +0.000 C 
ATOM     15  C   UNL     1       1.188   9.841  18.316  0.00  0.00    +0.000 C 
ATOM     16  H   UNL     1       2.890   8.047  17.658  0.00  0.00    +0.000 HD
ENDBRANCH   5   7
BRANCH   1  18
ATOM     17  C   UNL     1       7.402   4.613  17.968  0.00  0.00    +0.000 C 
ATOM     18  C   UNL     1       6.392   4.432  16.825  0.00  0.00    +0.000 C 
BRANCH  18  19
ATOM     19  S   UNL     1       6.755   5.650  15.482  0.00  0.00    +0.000 S 
BRANCH  19  20
ATOM     20  C   UNL     1       6.557   4.708  14.055  0.00  0.00    +0.000 A 
ATOM     21  N   UNL     1       5.684   3.753  13.837  0.00  0.00    +0.000 NA
ATOM     22  N   UNL     1       5.953   3.219  12.593  0.00  0.00    +0.000 NA
ATOM     23  C   UNL     1       6.970   3.881  12.088  0.00  0.00    +0.000 A 
ATOM     24  N   UNL     1       7.369   4.842  12.963  0.00  0.00    +0.000 N 
ATOM     25  C   UNL     1       8.445   5.777  12.773  0.00  0.00    +0.000 C 
ENDBRANCH  19  20
ENDBRANCH  18  19
ENDBRANCH   1  18
TORSDOF 4
ENDMDL
MODEL 4
REMARK VINA RESULT:      -7.2      4.113      8.910
REMARK  Name = 
REMARK  6 active torsions:
REMARK  status: ('A' for Active; 'I' for Inactive)
REMARK    1  A    between atoms: C_1  and  C_2
REMARK    2  A    between atoms: C_2  and  S_3
REMARK    3  A    between atoms: C_2  and  C_10
REMARK    4  A    between atoms: S_3  and  C_4
REMARK    5  A    between atoms: N_8  and  C_9
REMARK    6  A    between atoms: C_14  and  N_15
REMARK                            x       y       z     vdW  Elec       q    Type
REMARK                         _______ _______ _______ _____ _____    ______ ____
ROOT
ATOM      1  C   UNL     1      -0.446  10.850  20.532  0.00  0.00    +0.000 A 
ATOM      2  C   UNL     1      -0.811  11.218  21.840  0.00  0.00    +0.000 A 
ATOM      3  C   UNL     1      -0.448  10.430  22.930  0.00  0.00    +0.000 A 
ATOM      4  C   UNL     1       0.252   9.240  22.737  0.00  0.00    +0.000 A 
ATOM      5  C   UNL     1       0.569   8.808  21.451  0.00  0.00    +0.000 A 
ATOM      6  C   UNL     1       0.227   9.623  20.360  0.00  0.00    +0.000 A 
ENDROOT
BRANCH   5   7
ATOM      7  N   UNL     1       1.240   7.591  21.176  0.00  0.00    +0.000 N 
ATOM      8  C   UNL     1       1.947   7.286  20.035  0.00  0.00    +0.000 C 
ATOM      9  O   UNL     1       2.166   8.082  19.125  0.00  0.00    +0.000 OA
ATOM     10  N   UNL     1       2.458   5.989  19.991  0.00  0.00    +0.000 N 
ATOM     11  C   UNL     1       3.349   5.652  18.882  0.00  0.00    +0.000 C 
ATOM     12  C   UNL     1       2.644   4.738  17.886  0.00  0.00    +0.000 C 
ATOM     13  C   UNL     1       2.127   3.484  18.590  0.00  0.00    +0.000 C 
ATOM     14  C   UNL     1       1.244   3.853  19.784  0.00  0.00    +0.000 C 
ATOM     15  C   UNL     1       1.947   4.831  20.729  0.00  0.00    +0.000 C 
ATOM     16  H   UNL     1       1.433   7.007  21.973  0.00  0.00    +0.000 HD
ENDBRANCH   5   7
BRANCH   1  18
ATOM     17  C   UNL     1      -0.111  13.186  19.511  0.00  0.00    +0.000 C 
ATOM     18  C   UNL     1      -0.763  11.802  19.372  0.00  0.00    +0.000 C 
BRANCH  18  19
ATOM     19  S   UNL     1      -2.598  11.992  19.260  0.00  0.00    +0.000 S 
BRANCH  19  20
ATOM     20  C   UNL     1      -2.936  11.453  17.660  0.00  0.00    +0.000 A 
ATOM     21  N   UNL     1      -2.083  11.248  16.685  0.00  0.00    +0.000 NA
ATOM     22  N   UNL     1      -2.810  10.910  15.561  0.00  0.00    +0.000 NA
ATOM     23  C   UNL     1      -4.081  10.904  15.896  0.00  0.00    +0.000 A 
ATOM     24  N   UNL     1      -4.206  11.219  17.213  0.00  0.00    +0.000 N 
ATOM     25  C   UNL     1      -5.434  11.309  17.957  0.00  0.00    +0.000 C 
ENDBRANCH  19  20
ENDBRANCH  18  19
ENDBRANCH   1  18
TORSDOF 4
ENDMDL
MODEL 5
REMARK VINA RESULT:      -7.1      3.925      8.792
REMARK  Name = 
REMARK  6 active torsions:
REMARK  status: ('A' for Active; 'I' for Inactive)
REMARK    1  A    between atoms: C_1  and  C_2
REMARK    2  A    between atoms: C_2  and  S_3
REMARK    3  A    between atoms: C_2  and  C_10
REMARK    4  A    between atoms: S_3  and  C_4
REMARK    5  A    between atoms: N_8  and  C_9
REMARK    6  A    between atoms: C_14  and  N_15
REMARK                            x       y       z     vdW  Elec       q    Type
REMARK                         _______ _______ _______ _____ _____    ______ ____
ROOT
ATOM      1  C   UNL     1       0.875   9.772  20.737  0.00  0.00    +0.000 A 
ATOM      2  C   UNL     1       0.936  10.406  19.483  0.00  0.00    +0.000 A 
ATOM      3  C   UNL     1       1.424   9.734  18.365  0.00  0.00    +0.000 A 
ATOM      4  C   UNL     1       1.899   8.428  18.481  0.00  0.00    +0.000 A 
ATOM      5  C   UNL     1       1.920   7.792  19.721  0.00  0.00    +0.000 A 
ATOM      6  C   UNL     1       1.397   8.465  20.836  0.00  0.00    +0.000 A 
ENDROOT
BRANCH   5   7
ATOM      7  N   UNL     1       2.426   6.484  19.922  0.00  0.00    +0.000 N 
ATOM      8  C   UNL     1       3.294   5.806  19.097  0.00  0.00    +0.000 C 
ATOM      9  O   UNL     1       3.824   6.294  18.102  0.00  0.00    +0.000 OA
ATOM     10  N   UNL     1       3.586   4.502  19.497  0.00  0.00    +0.000 N 
ATOM     11  C   UNL     1       4.621   3.784  18.755  0.00  0.00    +0.000 C 
ATOM     12  C   UNL     1       3.999   2.708  17.872  0.00  0.00    +0.000 C 
ATOM     13  C   UNL     1       3.150   1.756  18.713  0.00  0.00    +0.000 C 
ATOM     14  C   UNL     1       2.111   2.527  19.530  0.00  0.00    +0.000 C 
ATOM     15  C   UNL     1       2.752   3.650  20.349  0.00  0.00    +0.000 C 
ATOM     16  H   UNL     1       2.352   6.125  20.860  0.00  0.00    +0.000 HD
ENDBRANCH   5   7
BRANCH   1  18
ATOM     17  C   UNL     1      -0.446   9.571  22.934  0.00  0.00    +0.000 C 
ATOM     18  C   UNL     1       0.224  10.506  21.915  0.00  0.00    +0.000 C 
BRANCH  18  19
ATOM     19  S   UNL     1      -1.030  11.688  21.244  0.00  0.00    +0.000 S 
BRANCH  19  20
ATOM     20  C   UNL     1      -0.947  12.998  22.357  0.00  0.00    +0.000 A 
ATOM     21  N   UNL     1       0.014  13.881  22.488  0.00  0.00    +0.000 NA
ATOM     22  N   UNL     1      -0.304  14.686  23.563  0.00  0.00    +0.000 NA
ATOM     23  C   UNL     1      -1.458  14.275  24.039  0.00  0.00    +0.000 A 
ATOM     24  N   UNL     1      -1.911  13.229  23.297  0.00  0.00    +0.000 N 
ATOM     25  C   UNL     1      -3.141  12.510  23.497  0.00  0.00    +0.000 C 
ENDBRANCH  19  20
ENDBRANCH  18  19
ENDBRANCH   1  18
TORSDOF 4
ENDMDL
MODEL 6
REMARK VINA RESULT:      -7.1      4.017      8.728
REMARK  Name = 
REMARK  6 active torsions:
REMARK  status: ('A' for Active; 'I' for Inactive)
REMARK    1  A    between atoms: C_1  and  C_2
REMARK    2  A    between atoms: C_2  and  S_3
REMARK    3  A    between atoms: C_2  and  C_10
REMARK    4  A    between atoms: S_3  and  C_4
REMARK    5  A    between atoms: N_8  and  C_9
REMARK    6  A    between atoms: C_14  and  N_15
REMARK                            x       y       z     vdW  Elec       q    Type
REMARK                         _______ _______ _______ _____ _____    ______ ____
ROOT
ATOM      1  C   UNL     1       0.175  10.480  19.210  0.00  0.00    +0.000 A 
ATOM      2  C   UNL     1      -0.113  10.122  20.539  0.00  0.00    +0.000 A 
ATOM      3  C   UNL     1       0.554   9.065  21.155  0.00  0.00    +0.000 A 
ATOM      4  C   UNL     1       1.494   8.318  20.446  0.00  0.00    +0.000 A 
ATOM      5  C   UNL     1       1.754   8.598  19.106  0.00  0.00    +0.000 A 
ATOM      6  C   UNL     1       1.100   9.684  18.503  0.00  0.00    +0.000 A 
ENDROOT
BRANCH   5   7
ATOM      7  N   UNL     1       2.662   7.856  18.312  0.00  0.00    +0.000 N 
ATOM      8  C   UNL     1       2.825   6.490  18.315  0.00  0.00    +0.000 C 
ATOM      9  O   UNL     1       2.125   5.713  18.958  0.00  0.00    +0.000 OA
ATOM     10  N   UNL     1       3.837   6.017  17.479  0.00  0.00    +0.000 N 
ATOM     11  C   UNL     1       3.957   4.569  17.316  0.00  0.00    +0.000 C 
ATOM     12  C   UNL     1       5.183   4.046  18.056  0.00  0.00    +0.000 C 
ATOM     13  C   UNL     1       6.441   4.770  17.578  0.00  0.00    +0.000 C 
ATOM     14  C   UNL     1       6.278   6.287  17.698  0.00  0.00    +0.000 C 
ATOM     15  C   UNL     1       5.000   6.777  17.012  0.00  0.00    +0.000 C 
ATOM     16  H   UNL     1       3.030   8.334  17.505  0.00  0.00    +0.000 HD
ENDBRANCH   5   7
BRANCH   1  18
ATOM     17  C   UNL     1      -0.055  13.041  19.258  0.00  0.00    +0.000 C 
ATOM     18  C   UNL     1      -0.496  11.721  18.608  0.00  0.00    +0.000 C 
BRANCH  18  19
ATOM     19  S   UNL     1      -2.327  11.531  18.776  0.00  0.00    +0.000 S 
BRANCH  19  20
ATOM     20  C   UNL     1      -2.780  10.873  17.251  0.00  0.00    +0.000 A 
ATOM     21  N   UNL     1      -2.066  10.102  16.465  0.00  0.00    +0.000 NA
ATOM     22  N   UNL     1      -2.795   9.896  15.311  0.00  0.00    +0.000 NA
ATOM     23  C   UNL     1      -3.936  10.535  15.442  0.00  0.00    +0.000 A 
ATOM     24  N   UNL     1      -3.980  11.146  16.656  0.00  0.00    +0.000 N 
ATOM     25  C   UNL     1      -5.063  11.937  17.175  0.00  0.00    +0.000 C 
ENDBRANCH  19  20
ENDBRANCH  18  19
ENDBRANCH   1  18
TORSDOF 4
ENDMDL
MODEL 7
REMARK VINA RESULT:      -7.0      4.087      8.510
REMARK  Name = 
REMARK  6 active torsions:
REMARK  status: ('A' for Active; 'I' for Inactive)
REMARK    1  A    between atoms: C_1  and  C_2
REMARK    2  A    between atoms: C_2  and  S_3
REMARK    3  A    between atoms: C_2  and  C_10
REMARK    4  A    between atoms: S_3  and  C_4
REMARK    5  A    between atoms: N_8  and  C_9
REMARK    6  A    between atoms: C_14  and  N_15
REMARK                            x       y       z     vdW  Elec       q    Type
REMARK                         _______ _______ _______ _____ _____    ______ ____
ROOT
ATOM      1  C   UNL     1       0.525  10.579  19.977  0.00  0.00    +0.000 A 
ATOM      2  C   UNL     1      -0.001  11.076  21.183  0.00  0.00    +0.000 A 
ATOM      3  C   UNL     1       0.039  10.313  22.348  0.00  0.00    +0.000 A 
ATOM      4  C   UNL     1       0.569   9.024  22.327  0.00  0.00    +0.000 A 
ATOM      5  C   UNL     1       1.035   8.472  21.136  0.00  0.00    +0.000 A 
ATOM      6  C   UNL     1       1.020   9.259  19.973  0.00  0.00    +0.000 A 
ENDROOT
BRANCH   5   7
ATOM      7  N   UNL     1       1.547   7.155  21.030  0.00  0.00    +0.000 N 
ATOM      8  C   UNL     1       2.194   6.613  19.942  0.00  0.00    +0.000 C 
ATOM      9  O   UNL     1       2.497   7.246  18.934  0.00  0.00    +0.000 OA
ATOM     10  N   UNL     1       2.541   5.269  20.075  0.00  0.00    +0.000 N 
ATOM     11  C   UNL     1       3.368   4.678  19.025  0.00  0.00    +0.000 C 
ATOM     12  C   UNL     1       2.542   3.733  18.160  0.00  0.00    +0.000 C 
ATOM     13  C   UNL     1       1.884   2.659  19.025  0.00  0.00    +0.000 C 
ATOM     14  C   UNL     1       1.070   3.292  20.157  0.00  0.00    +0.000 C 
ATOM     15  C   UNL     1       1.902   4.294  20.962  0.00  0.00    +0.000 C 
ATOM     16  H   UNL     1       1.678   6.664  21.899  0.00  0.00    +0.000 HD
ENDBRANCH   5   7
BRANCH   1  18
ATOM     17  C   UNL     1       1.872  12.294  18.614  0.00  0.00    +0.000 C 
ATOM     18  C   UNL     1       0.568  11.494  18.747  0.00  0.00    +0.000 C 
BRANCH  18  19
ATOM     19  S   UNL     1      -0.865  12.659  18.838  0.00  0.00    +0.000 S 
BRANCH  19  20
ATOM     20  C   UNL     1      -2.154  11.725  18.184  0.00  0.00    +0.000 A 
ATOM     21  N   UNL     1      -2.121  10.932  17.139  0.00  0.00    +0.000 NA
ATOM     22  N   UNL     1      -3.403  10.465  16.931  0.00  0.00    +0.000 NA
ATOM     23  C   UNL     1      -4.169  10.976  17.868  0.00  0.00    +0.000 A 
ATOM     24  N   UNL     1      -3.422  11.758  18.692  0.00  0.00    +0.000 N 
ATOM     25  C   UNL     1      -3.894  12.485  19.840  0.00  0.00    +0.000 C 
ENDBRANCH  19  20
ENDBRANCH  18  19
ENDBRANCH   1  18
TORSDOF 4
ENDMDL
MODEL 8
REMARK VINA RESULT:      -7.0      3.140      4.484
REMARK  Name = 
REMARK  6 active torsions:
REMARK  status: ('A' for Active; 'I' for Inactive)
REMARK    1  A    between atoms: C_1  and  C_2
REMARK    2  A    between atoms: C_2  and  S_3
REMARK    3  A    between atoms: C_2  and  C_10
REMARK    4  A    between atoms: S_3  and  C_4
REMARK    5  A    between atoms: N_8  and  C_9
REMARK    6  A    between atoms: C_14  and  N_15
REMARK                            x       y       z     vdW  Elec       q    Type
REMARK                         _______ _______ _______ _____ _____    ______ ____
ROOT
ATOM      1  C   UNL     1       4.150   6.008  18.738  0.00  0.00    +0.000 A 
ATOM      2  C   UNL     1       4.464   6.536  17.473  0.00  0.00    +0.000 A 
ATOM      3  C   UNL     1       3.764   7.626  16.960  0.00  0.00    +0.000 A 
ATOM      4  C   UNL     1       2.711   8.187  17.680  0.00  0.00    +0.000 A 
ATOM      5  C   UNL     1       2.325   7.647  18.905  0.00  0.00    +0.000 A 
ATOM      6  C   UNL     1       3.055   6.569  19.429  0.00  0.00    +0.000 A 
ENDROOT
BRANCH   5   7
ATOM      7  N   UNL     1       1.239   8.137  19.670  0.00  0.00    +0.000 N 
ATOM      8  C   UNL     1       0.817   9.445  19.749  0.00  0.00    +0.000 C 
ATOM      9  O   UNL     1       1.284  10.363  19.080  0.00  0.00    +0.000 OA
ATOM     10  N   UNL     1      -0.242   9.668  20.629  0.00  0.00    +0.000 N 
ATOM     11  C   UNL     1      -0.840  11.002  20.641  0.00  0.00    +0.000 C 
ATOM     12  C   UNL     1      -0.449  11.754  21.909  0.00  0.00    +0.000 C 
ATOM     13  C   UNL     1      -0.846  10.950  23.147  0.00  0.00    +0.000 C 
ATOM     14  C   UNL     1      -0.263   9.536  23.091  0.00  0.00    +0.000 C 
ATOM     15  C   UNL     1      -0.606   8.832  21.776  0.00  0.00    +0.000 C 
ATOM     16  H   UNL     1       0.569   7.448  19.973  0.00  0.00    +0.000 HD
ENDBRANCH   5   7
BRANCH   1  18
ATOM     17  C   UNL     1       6.524   5.188  19.286  0.00  0.00    +0.000 C 
ATOM     18  C   UNL     1       5.019   4.885  19.317  0.00  0.00    +0.000 C 
BRANCH  18  19
ATOM     19  S   UNL     1       4.680   3.337  18.364  0.00  0.00    +0.000 S 
BRANCH  19  20
ATOM     20  C   UNL     1       2.966   3.207  18.452  0.00  0.00    +0.000 A 
ATOM     21  N   UNL     1       2.097   3.378  17.484  0.00  0.00    +0.000 NA
ATOM     22  N   UNL     1       0.836   3.265  18.033  0.00  0.00    +0.000 NA
ATOM     23  C   UNL     1       0.981   3.011  19.315  0.00  0.00    +0.000 A 
ATOM     24  N   UNL     1       2.305   2.944  19.618  0.00  0.00    +0.000 N 
ATOM     25  C   UNL     1       2.872   2.678  20.914  0.00  0.00    +0.000 C 
ENDBRANCH  19  20
ENDBRANCH  18  19
ENDBRANCH   1  18
TORSDOF 4
ENDMDL
MODEL 9
REMARK VINA RESULT:      -7.0      4.282      9.271
REMARK  Name = 
REMARK  6 active torsions:
REMARK  status: ('A' for Active; 'I' for Inactive)
REMARK    1  A    between atoms: C_1  and  C_2
REMARK    2  A    between atoms: C_2  and  S_3
REMARK    3  A    between atoms: C_2  and  C_10
REMARK    4  A    between atoms: S_3  and  C_4
REMARK    5  A    between atoms: N_8  and  C_9
REMARK    6  A    between atoms: C_14  and  N_15
REMARK                            x       y       z     vdW  Elec       q    Type
REMARK                         _______ _______ _______ _____ _____    ______ ____
ROOT
ATOM      1  C   UNL     1       0.463  10.422  20.972  0.00  0.00    +0.000 A 
ATOM      2  C   UNL     1       0.659  11.062  19.735  0.00  0.00    +0.000 A 
ATOM      3  C   UNL     1       1.232  10.383  18.662  0.00  0.00    +0.000 A 
ATOM      4  C   UNL     1       1.656   9.063  18.811  0.00  0.00    +0.000 A 
ATOM      5  C   UNL     1       1.542   8.419  20.041  0.00  0.00    +0.000 A 
ATOM      6  C   UNL     1       0.936   9.100  21.108  0.00  0.00    +0.000 A 
ENDROOT
BRANCH   5   7
ATOM      7  N   UNL     1       1.990   7.096  20.277  0.00  0.00    +0.000 N 
ATOM      8  C   UNL     1       2.378   6.180  19.325  0.00  0.00    +0.000 C 
ATOM      9  O   UNL     1       2.473   6.429  18.127  0.00  0.00    +0.000 OA
ATOM     10  N   UNL     1       2.715   4.923  19.824  0.00  0.00    +0.000 N 
ATOM     11  C   UNL     1       3.286   3.956  18.888  0.00  0.00    +0.000 C 
ATOM     12  C   UNL     1       2.273   2.864  18.561  0.00  0.00    +0.000 C 
ATOM     13  C   UNL     1       1.792   2.185  19.843  0.00  0.00    +0.000 C 
ATOM     14  C   UNL     1       1.253   3.216  20.838  0.00  0.00    +0.000 C 
ATOM     15  C   UNL     1       2.259   4.342  21.090  0.00  0.00    +0.000 C 
ATOM     16  H   UNL     1       2.292   6.897  21.217  0.00  0.00    +0.000 HD
ENDBRANCH   5   7
BRANCH   1  18
ATOM     17  C   UNL     1      -0.879  10.242  23.158  0.00  0.00    +0.000 C 
ATOM     18  C   UNL     1      -0.276  11.167  22.090  0.00  0.00    +0.000 C 
BRANCH  18  19
ATOM     19  S   UNL     1      -1.618  12.183  21.324  0.00  0.00    +0.000 S 
BRANCH  19  20
ATOM     20  C   UNL     1      -2.539  12.684  22.690  0.00  0.00    +0.000 A 
ATOM     21  N   UNL     1      -3.676  12.189  23.116  0.00  0.00    +0.000 NA
ATOM     22  N   UNL     1      -4.090  12.958  24.185  0.00  0.00    +0.000 NA
ATOM     23  C   UNL     1      -3.180  13.885  24.383  0.00  0.00    +0.000 A 
ATOM     24  N   UNL     1      -2.174  13.737  23.480  0.00  0.00    +0.000 N 
ATOM     25  C   UNL     1      -0.993  14.552  23.375  0.00  0.00    +0.000 C 
ENDBRANCH  19  20
ENDBRANCH  18  19
ENDBRANCH   1  18
TORSDOF 4
ENDMDL
