MODEL 1
REMARK VINA RESULT:      -8.9      0.000      0.000
REMARK  Name = 
REMARK  8 active torsions:
REMARK  status: ('A' for Active; 'I' for Inactive)
REMARK    1  A    between atoms: C_1  and  C_2
REMARK    2  A    between atoms: C_2  and  S_3
REMARK    3  A    between atoms: C_2  and  C_10
REMARK    4  A    between atoms: S_3  and  C_4
REMARK    5  A    between atoms: N_8  and  C_9
REMARK    6  A    between atoms: C_15  and  N_16
REMARK    7  A    between atoms: C_17  and  C_19
REMARK    8  A    between atoms: C_23  and  C_24
REMARK                            x       y       z     vdW  Elec       q    Type
REMARK                         _______ _______ _______ _____ _____    ______ ____
ROOT
ATOM      1  C   UNL     1       4.562   5.159  17.410  0.00  0.00    +0.000 A 
ATOM      2  C   UNL     1       3.992   3.887  17.576  0.00  0.00    +0.000 A 
ATOM      3  C   UNL     1       2.811   3.733  18.305  0.00  0.00    +0.000 A 
ATOM      4  C   UNL     1       2.191   4.839  18.892  0.00  0.00    +0.000 A 
ATOM      5  F   UNL     1       1.048   4.596  19.544  0.00  0.00    +0.000 F 
ATOM      6  C   UNL     1       2.713   6.126  18.755  0.00  0.00    +0.000 A 
ATOM      7  C   UNL     1       3.885   6.266  17.993  0.00  0.00    +0.000 A 
ENDROOT
BRANCH   6   8
ATOM      8  N   UNL     1       2.152   7.302  19.327  0.00  0.00    +0.000 N 
ATOM      9  C   UNL     1       1.916   8.498  18.660  0.00  0.00    +0.000 C 
ATOM     10  O   UNL     1       2.132   8.739  17.471  0.00  0.00    +0.000 OA
ATOM     11  H   UNL     1       1.752   7.244  20.259  0.00  0.00    +0.000 HD
BRANCH   9  12
ATOM     12  C   UNL     1       1.230   9.563  19.460  0.00  0.00    +0.000 A 
ATOM     13  C   UNL     1       0.879  10.762  18.845  0.00  0.00    +0.000 A 
ATOM     14  C   UNL     1       0.123  11.682  19.559  0.00  0.00    +0.000 A 
ATOM     15  C   UNL     1      -0.264  11.373  20.860  0.00  0.00    +0.000 A 
ATOM     16  C   UNL     1       0.134  10.156  21.425  0.00  0.00    +0.000 A 
ATOM     17  N   UNL     1       0.894   9.247  20.740  0.00  0.00    +0.000 NA
BRANCH  16  18
ATOM     18  C   UNL     1      -0.333   9.785  22.826  0.00  0.00    +0.000 C 
ATOM     19  F   UNL     1      -1.101  10.746  23.417  0.00  0.00    +0.000 F 
ATOM     20  F   UNL     1      -1.092   8.651  22.835  0.00  0.00    +0.000 F 
ATOM     21  F   UNL     1       0.697   9.556  23.688  0.00  0.00    +0.000 F 
ENDBRANCH  16  18
ENDBRANCH   9  12
ENDBRANCH   6   8
BRANCH   1  23
ATOM     22  C   UNL     1       7.062   5.443  17.662  0.00  0.00    +0.000 C 
ATOM     23  C   UNL     1       5.906   5.309  16.662  0.00  0.00    +0.000 C 
BRANCH  23  24
ATOM     24  S   UNL     1       6.109   3.893  15.467  0.00  0.00    +0.000 S 
BRANCH  24  25
ATOM     25  C   UNL     1       6.873   4.571  14.061  0.00  0.00    +0.000 A 
ATOM     26  N   UNL     1       7.784   5.516  14.046  0.00  0.00    +0.000 NA
ATOM     27  N   UNL     1       8.205   5.685  12.742  0.00  0.00    +0.000 NA
ATOM     28  C   UNL     1       7.518   4.854  11.992  0.00  0.00    +0.000 A 
ATOM     29  N   UNL     1       6.635   4.159  12.771  0.00  0.00    +0.000 N 
ATOM     30  C   UNL     1       5.706   3.186  12.260  0.00  0.00    +0.000 C 
ENDBRANCH  24  25
ENDBRANCH  23  24
ENDBRANCH   1  23
TORSDOF 6
ENDMDL
MODEL 2
REMARK VINA RESULT:      -8.4      2.246      2.623
REMARK  Name = 
REMARK  8 active torsions:
REMARK  status: ('A' for Active; 'I' for Inactive)
REMARK    1  A    between atoms: C_1  and  C_2
REMARK    2  A    between atoms: C_2  and  S_3
REMARK    3  A    between atoms: C_2  and  C_10
REMARK    4  A    between atoms: S_3  and  C_4
REMARK    5  A    between atoms: N_8  and  C_9
REMARK    6  A    between atoms: C_15  and  N_16
REMARK    7  A    between atoms: C_17  and  C_19
REMARK    8  A    between atoms: C_23  and  C_24
REMARK                            x       y       z     vdW  Elec       q    Type
REMARK                         _______ _______ _______ _____ _____    ______ ____
ROOT
ATOM      1  C   UNL     1       4.654   5.444  18.124  0.00  0.00    +0.000 A 
ATOM      2  C   UNL     1       4.295   4.312  18.871  0.00  0.00    +0.000 A 
ATOM      3  C   UNL     1       3.172   4.341  19.700  0.00  0.00    +0.000 A 
ATOM      4  C   UNL     1       2.400   5.500  19.807  0.00  0.00    +0.000 A 
ATOM      5  F   UNL     1       1.325   5.421  20.602  0.00  0.00    +0.000 F 
ATOM      6  C   UNL     1       2.709   6.653  19.083  0.00  0.00    +0.000 A 
ATOM      7  C   UNL     1       3.826   6.596  18.232  0.00  0.00    +0.000 A 
ENDROOT
BRANCH   6   8
ATOM      8  N   UNL     1       1.985   7.876  19.142  0.00  0.00    +0.000 N 
ATOM      9  C   UNL     1       1.967   8.859  18.160  0.00  0.00    +0.000 C 
ATOM     10  O   UNL     1       2.553   8.834  17.076  0.00  0.00    +0.000 OA
ATOM     11  H   UNL     1       1.305   8.001  19.887  0.00  0.00    +0.000 HD
BRANCH   9  12
ATOM     12  C   UNL     1       1.052  10.017  18.416  0.00  0.00    +0.000 A 
ATOM     13  C   UNL     1       1.588  11.237  18.820  0.00  0.00    +0.000 A 
ATOM     14  C   UNL     1       0.744  12.336  18.919  0.00  0.00    +0.000 A 
ATOM     15  C   UNL     1      -0.603  12.183  18.605  0.00  0.00    +0.000 A 
ATOM     16  C   UNL     1      -1.081  10.925  18.219  0.00  0.00    +0.000 A 
ATOM     17  N   UNL     1      -0.265   9.829  18.134  0.00  0.00    +0.000 NA
BRANCH  16  18
ATOM     18  C   UNL     1      -2.541  10.762  17.819  0.00  0.00    +0.000 C 
ATOM     19  F   UNL     1      -2.787  11.074  16.514  0.00  0.00    +0.000 F 
ATOM     20  F   UNL     1      -2.982   9.481  17.981  0.00  0.00    +0.000 F 
ATOM     21  F   UNL     1      -3.384  11.546  18.549  0.00  0.00    +0.000 F 
ENDBRANCH  16  18
ENDBRANCH   9  12
ENDBRANCH   6   8
BRANCH   1  23
ATOM     22  C   UNL     1       7.171   5.206  18.152  0.00  0.00    +0.000 C 
ATOM     23  C   UNL     1       5.939   5.425  17.265  0.00  0.00    +0.000 C 
BRANCH  23  24
ATOM     24  S   UNL     1       5.756   4.159  15.910  0.00  0.00    +0.000 S 
BRANCH  24  25
ATOM     25  C   UNL     1       6.756   4.721  14.604  0.00  0.00    +0.000 A 
ATOM     26  N   UNL     1       7.741   5.586  14.690  0.00  0.00    +0.000 NA
ATOM     27  N   UNL     1       8.343   5.673  13.450  0.00  0.00    +0.000 NA
ATOM     28  C   UNL     1       7.690   4.879  12.634  0.00  0.00    +0.000 A 
ATOM     29  N   UNL     1       6.655   4.287  13.303  0.00  0.00    +0.000 N 
ATOM     30  C   UNL     1       5.719   3.379  12.694  0.00  0.00    +0.000 C 
ENDBRANCH  24  25
ENDBRANCH  23  24
ENDBRANCH   1  23
TORSDOF 6
ENDMDL
MODEL 3
REMARK VINA RESULT:      -8.4      1.278      1.453
REMARK  Name = 
REMARK  8 active torsions:
REMARK  status: ('A' for Active; 'I' for Inactive)
REMARK    1  A    between atoms: C_1  and  C_2
REMARK    2  A    between atoms: C_2  and  S_3
REMARK    3  A    between atoms: C_2  and  C_10
REMARK    4  A    between atoms: S_3  and  C_4
REMARK    5  A    between atoms: N_8  and  C_9
REMARK    6  A    between atoms: C_15  and  N_16
REMARK    7  A    between atoms: C_17  and  C_19
REMARK    8  A    between atoms: C_23  and  C_24
REMARK                            x       y       z     vdW  Elec       q    Type
REMARK                         _______ _______ _______ _____ _____    ______ ____
ROOT
ATOM      1  C   UNL     1       4.599   5.118  18.026  0.00  0.00    +0.000 A 
ATOM      2  C   UNL     1       4.252   3.937  18.699  0.00  0.00    +0.000 A 
ATOM      3  C   UNL     1       3.120   3.897  19.515  0.00  0.00    +0.000 A 
ATOM      4  C   UNL     1       2.328   5.035  19.684  0.00  0.00    +0.000 A 
ATOM      5  F   UNL     1       1.247   4.889  20.460  0.00  0.00    +0.000 F 
ATOM      6  C   UNL     1       2.624   6.234  19.034  0.00  0.00    +0.000 A 
ATOM      7  C   UNL     1       3.751   6.248  18.194  0.00  0.00    +0.000 A 
ENDROOT
BRANCH   6   8
ATOM      8  N   UNL     1       1.878   7.440  19.159  0.00  0.00    +0.000 N 
ATOM      9  C   UNL     1       1.546   8.070  20.351  0.00  0.00    +0.000 C 
ATOM     10  O   UNL     1       1.849   7.710  21.490  0.00  0.00    +0.000 OA
ATOM     11  H   UNL     1       1.686   7.978  18.319  0.00  0.00    +0.000 HD
BRANCH   9  12
ATOM     12  C   UNL     1       0.833   9.381  20.215  0.00  0.00    +0.000 A 
ATOM     13  C   UNL     1       0.721   9.973  18.959  0.00  0.00    +0.000 A 
ATOM     14  C   UNL     1      -0.059  11.114  18.827  0.00  0.00    +0.000 A 
ATOM     15  C   UNL     1      -0.707  11.623  19.949  0.00  0.00    +0.000 A 
ATOM     16  C   UNL     1      -0.541  10.988  21.186  0.00  0.00    +0.000 A 
ATOM     17  N   UNL     1       0.239   9.873  21.335  0.00  0.00    +0.000 NA
BRANCH  16  18
ATOM     18  C   UNL     1      -1.292  11.504  22.406  0.00  0.00    +0.000 C 
ATOM     19  F   UNL     1      -0.657  12.531  23.043  0.00  0.00    +0.000 F 
ATOM     20  F   UNL     1      -2.531  11.978  22.089  0.00  0.00    +0.000 F 
ATOM     21  F   UNL     1      -1.486  10.547  23.356  0.00  0.00    +0.000 F 
ENDBRANCH  16  18
ENDBRANCH   9  12
ENDBRANCH   6   8
BRANCH   1  23
ATOM     22  C   UNL     1       7.121   4.927  18.069  0.00  0.00    +0.000 C 
ATOM     23  C   UNL     1       5.893   5.173  17.181  0.00  0.00    +0.000 C 
BRANCH  23  24
ATOM     24  S   UNL     1       5.749   3.982  15.755  0.00  0.00    +0.000 S 
BRANCH  24  25
ATOM     25  C   UNL     1       6.755   4.634  14.496  0.00  0.00    +0.000 A 
ATOM     26  N   UNL     1       7.700   5.534  14.638  0.00  0.00    +0.000 NA
ATOM     27  N   UNL     1       8.327   5.693  13.418  0.00  0.00    +0.000 NA
ATOM     28  C   UNL     1       7.726   4.905  12.557  0.00  0.00    +0.000 A 
ATOM     29  N   UNL     1       6.701   4.247  13.178  0.00  0.00    +0.000 N 
ATOM     30  C   UNL     1       5.819   3.325  12.512  0.00  0.00    +0.000 C 
ENDBRANCH  24  25
ENDBRANCH  23  24
ENDBRANCH   1  23
TORSDOF 6
ENDMDL
MODEL 4
REMARK VINA RESULT:      -8.2      2.458      2.873
REMARK  Name = 
REMARK  8 active torsions:
REMARK  status: ('A' for Active; 'I' for Inactive)
REMARK    1  A    between atoms: C_1  and  C_2
REMARK    2  A    between atoms: C_2  and  S_3
REMARK    3  A    between atoms: C_2  and  C_10
REMARK    4  A    between atoms: S_3  and  C_4
REMARK    5  A    between atoms: N_8  and  C_9
REMARK    6  A    between atoms: C_15  and  N_16
REMARK    7  A    between atoms: C_17  and  C_19
REMARK    8  A    between atoms: C_23  and  C_24
REMARK                            x       y       z     vdW  Elec       q    Type
REMARK                         _______ _______ _______ _____ _____    ______ ____
ROOT
ATOM      1  C   UNL     1       4.563   5.712  18.261  0.00  0.00    +0.000 A 
ATOM      2  C   UNL     1       4.256   4.700  19.184  0.00  0.00    +0.000 A 
ATOM      3  C   UNL     1       3.118   4.799  19.986  0.00  0.00    +0.000 A 
ATOM      4  C   UNL     1       2.278   5.911  19.891  0.00  0.00    +0.000 A 
ATOM      5  F   UNL     1       1.195   5.900  20.678  0.00  0.00    +0.000 F 
ATOM      6  C   UNL     1       2.533   6.944  18.987  0.00  0.00    +0.000 A 
ATOM      7  C   UNL     1       3.668   6.814  18.168  0.00  0.00    +0.000 A 
ENDROOT
BRANCH   6   8
ATOM      8  N   UNL     1       1.739   8.114  18.834  0.00  0.00    +0.000 N 
ATOM      9  C   UNL     1       1.319   8.951  19.860  0.00  0.00    +0.000 C 
ATOM     10  O   UNL     1       1.572   8.838  21.061  0.00  0.00    +0.000 OA
ATOM     11  H   UNL     1       1.572   8.467  17.896  0.00  0.00    +0.000 HD
BRANCH   9  12
ATOM     12  C   UNL     1       0.567  10.175  19.433  0.00  0.00    +0.000 A 
ATOM     13  C   UNL     1       1.193  11.419  19.493  0.00  0.00    +0.000 A 
ATOM     14  C   UNL     1       0.535  12.522  18.966  0.00  0.00    +0.000 A 
ATOM     15  C   UNL     1      -0.720  12.348  18.390  0.00  0.00    +0.000 A 
ATOM     16  C   UNL     1      -1.299  11.073  18.375  0.00  0.00    +0.000 A 
ATOM     17  N   UNL     1      -0.671   9.980  18.906  0.00  0.00    +0.000 NA
BRANCH  16  18
ATOM     18  C   UNL     1      -2.646  10.864  17.696  0.00  0.00    +0.000 C 
ATOM     19  F   UNL     1      -3.006   9.552  17.588  0.00  0.00    +0.000 F 
ATOM     20  F   UNL     1      -3.666  11.470  18.371  0.00  0.00    +0.000 F 
ATOM     21  F   UNL     1      -2.686  11.361  16.428  0.00  0.00    +0.000 F 
ENDBRANCH  16  18
ENDBRANCH   9  12
ENDBRANCH   6   8
BRANCH   1  23
ATOM     22  C   UNL     1       7.077   5.456  18.351  0.00  0.00    +0.000 C 
ATOM     23  C   UNL     1       5.863   5.628  17.429  0.00  0.00    +0.000 C 
BRANCH  23  24
ATOM     24  S   UNL     1       5.693   4.280  16.154  0.00  0.00    +0.000 S 
BRANCH  24  25
ATOM     25  C   UNL     1       6.680   4.775  14.812  0.00  0.00    +0.000 A 
ATOM     26  N   UNL     1       7.708   5.591  14.857  0.00  0.00    +0.000 NA
ATOM     27  N   UNL     1       8.277   5.632  13.599  0.00  0.00    +0.000 NA
ATOM     28  C   UNL     1       7.561   4.862  12.813  0.00  0.00    +0.000 A 
ATOM     29  N   UNL     1       6.518   4.331  13.521  0.00  0.00    +0.000 N 
ATOM     30  C   UNL     1       5.521   3.463  12.952  0.00  0.00    +0.000 C 
ENDBRANCH  24  25
ENDBRANCH  23  24
ENDBRANCH   1  23
TORSDOF 6
ENDMDL
MODEL 5
REMARK VINA RESULT:      -8.1      5.321      9.319
REMARK  Name = 
REMARK  8 active torsions:
REMARK  status: ('A' for Active; 'I' for Inactive)
REMARK    1  A    between atoms: C_1  and  C_2
REMARK    2  A    between atoms: C_2  and  S_3
REMARK    3  A    between atoms: C_2  and  C_10
REMARK    4  A    between atoms: S_3  and  C_4
REMARK    5  A    between atoms: N_8  and  C_9
REMARK    6  A    between atoms: C_15  and  N_16
REMARK    7  A    between atoms: C_17  and  C_19
REMARK    8  A    between atoms: C_23  and  C_24
REMARK                            x       y       z     vdW  Elec       q    Type
REMARK                         _______ _______ _______ _____ _____    ______ ____
ROOT
ATOM      1  C   UNL     1       4.485   5.813  18.505  0.00  0.00    +0.000 A 
ATOM      2  C   UNL     1       5.653   5.729  19.278  0.00  0.00    +0.000 A 
ATOM      3  C   UNL     1       6.809   5.150  18.750  0.00  0.00    +0.000 A 
ATOM      4  C   UNL     1       6.813   4.635  17.452  0.00  0.00    +0.000 A 
ATOM      5  F   UNL     1       7.976   4.129  17.023  0.00  0.00    +0.000 F 
ATOM      6  C   UNL     1       5.681   4.696  16.638  0.00  0.00    +0.000 A 
ATOM      7  C   UNL     1       4.536   5.308  17.176  0.00  0.00    +0.000 A 
ENDROOT
BRANCH   6   8
ATOM      8  N   UNL     1       5.596   4.187  15.312  0.00  0.00    +0.000 N 
ATOM      9  C   UNL     1       6.433   4.525  14.256  0.00  0.00    +0.000 C 
ATOM     10  O   UNL     1       7.391   5.299  14.288  0.00  0.00    +0.000 OA
ATOM     11  H   UNL     1       4.973   3.404  15.133  0.00  0.00    +0.000 HD
BRANCH   9  12
ATOM     12  C   UNL     1       6.198   3.780  12.977  0.00  0.00    +0.000 A 
ATOM     13  C   UNL     1       7.165   2.891  12.515  0.00  0.00    +0.000 A 
ATOM     14  C   UNL     1       6.875   2.107  11.405  0.00  0.00    +0.000 A 
ATOM     15  C   UNL     1       5.628   2.231  10.799  0.00  0.00    +0.000 A 
ATOM     16  C   UNL     1       4.706   3.155  11.305  0.00  0.00    +0.000 A 
ATOM     17  N   UNL     1       4.984   3.946  12.387  0.00  0.00    +0.000 NA
BRANCH  16  18
ATOM     18  C   UNL     1       3.319   3.256  10.684  0.00  0.00    +0.000 C 
ATOM     19  F   UNL     1       2.319   2.825  11.507  0.00  0.00    +0.000 F 
ATOM     20  F   UNL     1       2.994   4.538  10.350  0.00  0.00    +0.000 F 
ATOM     21  F   UNL     1       3.194   2.525   9.541  0.00  0.00    +0.000 F 
ENDBRANCH  16  18
ENDBRANCH   9  12
ENDBRANCH   6   8
BRANCH   1  23
ATOM     22  C   UNL     1       2.352   7.092  18.047  0.00  0.00    +0.000 C 
ATOM     23  C   UNL     1       3.192   6.391  19.123  0.00  0.00    +0.000 C 
BRANCH  23  24
ATOM     24  S   UNL     1       2.279   5.036  20.021  0.00  0.00    +0.000 S 
BRANCH  24  25
ATOM     25  C   UNL     1       2.383   3.639  18.993  0.00  0.00    +0.000 A 
ATOM     26  N   UNL     1       1.649   3.392  17.932  0.00  0.00    +0.000 NA
ATOM     27  N   UNL     1       2.124   2.237  17.342  0.00  0.00    +0.000 NA
ATOM     28  C   UNL     1       3.118   1.795  18.077  0.00  0.00    +0.000 A 
ATOM     29  N   UNL     1       3.294   2.621  19.152  0.00  0.00    +0.000 N 
ATOM     30  C   UNL     1       4.283   2.408  20.176  0.00  0.00    +0.000 C 
ENDBRANCH  24  25
ENDBRANCH  23  24
ENDBRANCH   1  23
TORSDOF 6
ENDMDL
MODEL 6
REMARK VINA RESULT:      -8.1      1.521      1.966
REMARK  Name = 
REMARK  8 active torsions:
REMARK  status: ('A' for Active; 'I' for Inactive)
REMARK    1  A    between atoms: C_1  and  C_2
REMARK    2  A    between atoms: C_2  and  S_3
REMARK    3  A    between atoms: C_2  and  C_10
REMARK    4  A    between atoms: S_3  and  C_4
REMARK    5  A    between atoms: N_8  and  C_9
REMARK    6  A    between atoms: C_15  and  N_16
REMARK    7  A    between atoms: C_17  and  C_19
REMARK    8  A    between atoms: C_23  and  C_24
REMARK                            x       y       z     vdW  Elec       q    Type
REMARK                         _______ _______ _______ _____ _____    ______ ____
ROOT
ATOM      1  C   UNL     1       4.184   5.261  17.309  0.00  0.00    +0.000 A 
ATOM      2  C   UNL     1       3.698   3.949  17.198  0.00  0.00    +0.000 A 
ATOM      3  C   UNL     1       2.578   3.548  17.928  0.00  0.00    +0.000 A 
ATOM      4  C   UNL     1       1.935   4.442  18.788  0.00  0.00    +0.000 A 
ATOM      5  F   UNL     1       0.851   3.975  19.420  0.00  0.00    +0.000 F 
ATOM      6  C   UNL     1       2.374   5.759  18.933  0.00  0.00    +0.000 A 
ATOM      7  C   UNL     1       3.486   6.153  18.169  0.00  0.00    +0.000 A 
ENDROOT
BRANCH   6   8
ATOM      8  N   UNL     1       1.786   6.729  19.793  0.00  0.00    +0.000 N 
ATOM      9  C   UNL     1       1.678   8.089  19.532  0.00  0.00    +0.000 C 
ATOM     10  O   UNL     1       2.052   8.681  18.517  0.00  0.00    +0.000 OA
ATOM     11  H   UNL     1       1.269   6.405  20.605  0.00  0.00    +0.000 HD
BRANCH   9  12
ATOM     12  C   UNL     1       0.933   8.890  20.556  0.00  0.00    +0.000 A 
ATOM     13  C   UNL     1       1.163   8.654  21.909  0.00  0.00    +0.000 A 
ATOM     14  C   UNL     1       0.572   9.496  22.842  0.00  0.00    +0.000 A 
ATOM     15  C   UNL     1      -0.222  10.548  22.395  0.00  0.00    +0.000 A 
ATOM     16  C   UNL     1      -0.425  10.721  21.020  0.00  0.00    +0.000 A 
ATOM     17  N   UNL     1       0.137   9.889  20.090  0.00  0.00    +0.000 NA
BRANCH  16  18
ATOM     18  C   UNL     1      -1.245  11.902  20.521  0.00  0.00    +0.000 C 
ATOM     19  F   UNL     1      -0.492  12.888  19.952  0.00  0.00    +0.000 F 
ATOM     20  F   UNL     1      -2.152  11.537  19.568  0.00  0.00    +0.000 F 
ATOM     21  F   UNL     1      -1.960  12.509  21.508  0.00  0.00    +0.000 F 
ENDBRANCH  16  18
ENDBRANCH   9  12
ENDBRANCH   6   8
BRANCH   1  23
ATOM     22  C   UNL     1       6.402   6.466  17.477  0.00  0.00    +0.000 C 
ATOM     23  C   UNL     1       5.467   5.674  16.552  0.00  0.00    +0.000 C 
BRANCH  23  24
ATOM     24  S   UNL     1       6.258   4.160  15.806  0.00  0.00    +0.000 S 
BRANCH  24  25
ATOM     25  C   UNL     1       6.958   4.687  14.305  0.00  0.00    +0.000 A 
ATOM     26  N   UNL     1       7.951   5.534  14.160  0.00  0.00    +0.000 NA
ATOM     27  N   UNL     1       8.270   5.594  12.818  0.00  0.00    +0.000 NA
ATOM     28  C   UNL     1       7.442   4.803  12.177  0.00  0.00    +0.000 A 
ATOM     29  N   UNL     1       6.568   4.239  13.065  0.00  0.00    +0.000 N 
ATOM     30  C   UNL     1       5.508   3.342  12.689  0.00  0.00    +0.000 C 
ENDBRANCH  24  25
ENDBRANCH  23  24
ENDBRANCH   1  23
TORSDOF 6
ENDMDL
MODEL 7
REMARK VINA RESULT:      -8.0      1.954      2.427
REMARK  Name = 
REMARK  8 active torsions:
REMARK  status: ('A' for Active; 'I' for Inactive)
REMARK    1  A    between atoms: C_1  and  C_2
REMARK    2  A    between atoms: C_2  and  S_3
REMARK    3  A    between atoms: C_2  and  C_10
REMARK    4  A    between atoms: S_3  and  C_4
REMARK    5  A    between atoms: N_8  and  C_9
REMARK    6  A    between atoms: C_15  and  N_16
REMARK    7  A    between atoms: C_17  and  C_19
REMARK    8  A    between atoms: C_23  and  C_24
REMARK                            x       y       z     vdW  Elec       q    Type
REMARK                         _______ _______ _______ _____ _____    ______ ____
ROOT
ATOM      1  C   UNL     1       4.797   5.337  17.245  0.00  0.00    +0.000 A 
ATOM      2  C   UNL     1       4.178   4.078  17.230  0.00  0.00    +0.000 A 
ATOM      3  C   UNL     1       2.931   3.897  17.833  0.00  0.00    +0.000 A 
ATOM      4  C   UNL     1       2.292   4.963  18.470  0.00  0.00    +0.000 A 
ATOM      5  F   UNL     1       1.087   4.701  18.990  0.00  0.00    +0.000 F 
ATOM      6  C   UNL     1       2.861   6.237  18.510  0.00  0.00    +0.000 A 
ATOM      7  C   UNL     1       4.102   6.407  17.874  0.00  0.00    +0.000 A 
ENDROOT
BRANCH   6   8
ATOM      8  N   UNL     1       2.284   7.372  19.147  0.00  0.00    +0.000 N 
ATOM      9  C   UNL     1       1.909   8.553  18.519  0.00  0.00    +0.000 C 
ATOM     10  O   UNL     1       1.992   8.813  17.317  0.00  0.00    +0.000 OA
ATOM     11  H   UNL     1       1.980   7.284  20.112  0.00  0.00    +0.000 HD
BRANCH   9  12
ATOM     12  C   UNL     1       1.236   9.568  19.392  0.00  0.00    +0.000 A 
ATOM     13  C   UNL     1       0.836   9.208  20.677  0.00  0.00    +0.000 A 
ATOM     14  C   UNL     1       0.341  10.193  21.522  0.00  0.00    +0.000 A 
ATOM     15  C   UNL     1       0.270  11.504  21.061  0.00  0.00    +0.000 A 
ATOM     16  C   UNL     1       0.676  11.797  19.753  0.00  0.00    +0.000 A 
ATOM     17  N   UNL     1       1.148  10.834  18.903  0.00  0.00    +0.000 NA
BRANCH  16  18
ATOM     18  C   UNL     1       0.655  13.238  19.260  0.00  0.00    +0.000 C 
ATOM     19  F   UNL     1       1.344  14.099  20.064  0.00  0.00    +0.000 F 
ATOM     20  F   UNL     1       1.209  13.369  18.020  0.00  0.00    +0.000 F 
ATOM     21  F   UNL     1      -0.604  13.750  19.167  0.00  0.00    +0.000 F 
ENDBRANCH  16  18
ENDBRANCH   9  12
ENDBRANCH   6   8
BRANCH   1  23
ATOM     22  C   UNL     1       7.239   5.764  17.746  0.00  0.00    +0.000 C 
ATOM     23  C   UNL     1       6.208   5.509  16.638  0.00  0.00    +0.000 C 
BRANCH  23  24
ATOM     24  S   UNL     1       6.605   4.033  15.571  0.00  0.00    +0.000 S 
BRANCH  24  25
ATOM     25  C   UNL     1       7.163   4.683  14.059  0.00  0.00    +0.000 A 
ATOM     26  N   UNL     1       8.066   5.622  13.898  0.00  0.00    +0.000 NA
ATOM     27  N   UNL     1       8.297   5.766  12.544  0.00  0.00    +0.000 NA
ATOM     28  C   UNL     1       7.505   4.929  11.914  0.00  0.00    +0.000 A 
ATOM     29  N   UNL     1       6.741   4.251  12.824  0.00  0.00    +0.000 N 
ATOM     30  C   UNL     1       5.744   3.276  12.467  0.00  0.00    +0.000 C 
ENDBRANCH  24  25
ENDBRANCH  23  24
ENDBRANCH   1  23
TORSDOF 6
ENDMDL
MODEL 8
REMARK VINA RESULT:      -8.0      2.307      2.663
REMARK  Name = 
REMARK  8 active torsions:
REMARK  status: ('A' for Active; 'I' for Inactive)
REMARK    1  A    between atoms: C_1  and  C_2
REMARK    2  A    between atoms: C_2  and  S_3
REMARK    3  A    between atoms: C_2  and  C_10
REMARK    4  A    between atoms: S_3  and  C_4
REMARK    5  A    between atoms: N_8  and  C_9
REMARK    6  A    between atoms: C_15  and  N_16
REMARK    7  A    between atoms: C_17  and  C_19
REMARK    8  A    between atoms: C_23  and  C_24
REMARK                            x       y       z     vdW  Elec       q    Type
REMARK                         _______ _______ _______ _____ _____    ______ ____
ROOT
ATOM      1  C   UNL     1       4.426   5.998  17.764  0.00  0.00    +0.000 A 
ATOM      2  C   UNL     1       4.243   4.812  18.492  0.00  0.00    +0.000 A 
ATOM      3  C   UNL     1       3.195   4.703  19.408  0.00  0.00    +0.000 A 
ATOM      4  C   UNL     1       2.325   5.775  19.622  0.00  0.00    +0.000 A 
ATOM      5  F   UNL     1       1.333   5.564  20.496  0.00  0.00    +0.000 F 
ATOM      6  C   UNL     1       2.460   6.975  18.921  0.00  0.00    +0.000 A 
ATOM      7  C   UNL     1       3.503   7.057  17.983  0.00  0.00    +0.000 A 
ENDROOT
BRANCH   6   8
ATOM      8  N   UNL     1       1.628   8.118  19.086  0.00  0.00    +0.000 N 
ATOM      9  C   UNL     1       1.315   8.729  20.293  0.00  0.00    +0.000 C 
ATOM     10  O   UNL     1       1.712   8.403  21.414  0.00  0.00    +0.000 OA
ATOM     11  H   UNL     1       1.344   8.633  18.257  0.00  0.00    +0.000 HD
BRANCH   9  12
ATOM     12  C   UNL     1       0.492   9.978  20.195  0.00  0.00    +0.000 A 
ATOM     13  C   UNL     1       0.910  11.127  20.863  0.00  0.00    +0.000 A 
ATOM     14  C   UNL     1       0.215  12.310  20.651  0.00  0.00    +0.000 A 
ATOM     15  C   UNL     1      -0.868  12.310  19.777  0.00  0.00    +0.000 A 
ATOM     16  C   UNL     1      -1.245  11.117  19.149  0.00  0.00    +0.000 A 
ATOM     17  N   UNL     1      -0.581   9.939  19.361  0.00  0.00    +0.000 NA
BRANCH  16  18
ATOM     18  C   UNL     1      -2.393  11.120  18.148  0.00  0.00    +0.000 C 
ATOM     19  F   UNL     1      -2.088  11.739  16.971  0.00  0.00    +0.000 F 
ATOM     20  F   UNL     1      -2.787   9.859  17.809  0.00  0.00    +0.000 F 
ATOM     21  F   UNL     1      -3.506  11.750  18.617  0.00  0.00    +0.000 F 
ENDBRANCH  16  18
ENDBRANCH   9  12
ENDBRANCH   6   8
BRANCH   1  23
ATOM     22  C   UNL     1       6.856   6.671  17.559  0.00  0.00    +0.000 C 
ATOM     23  C   UNL     1       5.632   6.134  16.805  0.00  0.00    +0.000 C 
BRANCH  23  24
ATOM     24  S   UNL     1       5.931   4.503  15.955  0.00  0.00    +0.000 S 
BRANCH  24  25
ATOM     25  C   UNL     1       6.843   4.880  14.524  0.00  0.00    +0.000 A 
ATOM     26  N   UNL     1       7.883   5.677  14.448  0.00  0.00    +0.000 NA
ATOM     27  N   UNL     1       8.377   5.616  13.160  0.00  0.00    +0.000 NA
ATOM     28  C   UNL     1       7.605   4.802  12.477  0.00  0.00    +0.000 A 
ATOM     29  N   UNL     1       6.599   4.344  13.282  0.00  0.00    +0.000 N 
ATOM     30  C   UNL     1       5.557   3.454  12.839  0.00  0.00    +0.000 C 
ENDBRANCH  24  25
ENDBRANCH  23  24
ENDBRANCH   1  23
TORSDOF 6
ENDMDL
MODEL 9
REMARK VINA RESULT:      -8.0      2.115      3.105
REMARK  Name = 
REMARK  8 active torsions:
REMARK  status: ('A' for Active; 'I' for Inactive)
REMARK    1  A    between atoms: C_1  and  C_2
REMARK    2  A    between atoms: C_2  and  S_3
REMARK    3  A    between atoms: C_2  and  C_10
REMARK    4  A    between atoms: S_3  and  C_4
REMARK    5  A    between atoms: N_8  and  C_9
REMARK    6  A    between atoms: C_15  and  N_16
REMARK    7  A    between atoms: C_17  and  C_19
REMARK    8  A    between atoms: C_23  and  C_24
REMARK                            x       y       z     vdW  Elec       q    Type
REMARK                         _______ _______ _______ _____ _____    ______ ____
ROOT
ATOM      1  C   UNL     1       4.168   4.224  16.969  0.00  0.00    +0.000 A 
ATOM      2  C   UNL     1       3.517   3.016  17.262  0.00  0.00    +0.000 A 
ATOM      3  C   UNL     1       2.403   3.001  18.104  0.00  0.00    +0.000 A 
ATOM      4  C   UNL     1       1.932   4.185  18.676  0.00  0.00    +0.000 A 
ATOM      5  F   UNL     1       0.840   4.075  19.443  0.00  0.00    +0.000 F 
ATOM      6  C   UNL     1       2.539   5.415  18.415  0.00  0.00    +0.000 A 
ATOM      7  C   UNL     1       3.641   5.414  17.543  0.00  0.00    +0.000 A 
ENDROOT
BRANCH   6   8
ATOM      8  N   UNL     1       2.131   6.663  18.964  0.00  0.00    +0.000 N 
ATOM      9  C   UNL     1       2.245   7.900  18.343  0.00  0.00    +0.000 C 
ATOM     10  O   UNL     1       2.697   8.127  17.219  0.00  0.00    +0.000 OA
ATOM     11  H   UNL     1       1.578   6.659  19.816  0.00  0.00    +0.000 HD
BRANCH   9  12
ATOM     12  C   UNL     1       1.657   9.058  19.090  0.00  0.00    +0.000 A 
ATOM     13  C   UNL     1       1.493  10.279  18.440  0.00  0.00    +0.000 A 
ATOM     14  C   UNL     1       0.821  11.301  19.099  0.00  0.00    +0.000 A 
ATOM     15  C   UNL     1       0.329  11.068  20.380  0.00  0.00    +0.000 A 
ATOM     16  C   UNL     1       0.541   9.822  20.983  0.00  0.00    +0.000 A 
ATOM     17  N   UNL     1       1.216   8.812  20.352  0.00  0.00    +0.000 NA
BRANCH  16  18
ATOM     18  C   UNL     1      -0.044   9.540  22.360  0.00  0.00    +0.000 C 
ATOM     19  F   UNL     1      -0.766  10.580  22.869  0.00  0.00    +0.000 F 
ATOM     20  F   UNL     1      -0.892   8.471  22.354  0.00  0.00    +0.000 F 
ATOM     21  F   UNL     1       0.907   9.261  23.295  0.00  0.00    +0.000 F 
ENDBRANCH  16  18
ENDBRANCH   9  12
ENDBRANCH   6   8
BRANCH   1  23
ATOM     22  C   UNL     1       5.102   3.812  14.655  0.00  0.00    +0.000 C 
ATOM     23  C   UNL     1       5.443   4.220  16.094  0.00  0.00    +0.000 C 
BRANCH  23  24
ATOM     24  S   UNL     1       6.284   5.878  16.223  0.00  0.00    +0.000 S 
BRANCH  24  25
ATOM     25  C   UNL     1       7.077   5.883  17.770  0.00  0.00    +0.000 A 
ATOM     26  N   UNL     1       7.139   4.884  18.620  0.00  0.00    +0.000 NA
ATOM     27  N   UNL     1       7.951   5.265  19.670  0.00  0.00    +0.000 NA
ATOM     28  C   UNL     1       8.339   6.499  19.445  0.00  0.00    +0.000 A 
ATOM     29  N   UNL     1       7.781   6.948  18.280  0.00  0.00    +0.000 N 
ATOM     30  C   UNL     1       7.978   8.274  17.754  0.00  0.00    +0.000 C 
ENDBRANCH  24  25
ENDBRANCH  23  24
ENDBRANCH   1  23
TORSDOF 6
ENDMDL
