MODEL 1
REMARK VINA RESULT:     -10.5      0.000      0.000
REMARK  Name = 
REMARK  8 active torsions:
REMARK  status: ('A' for Active; 'I' for Inactive)
REMARK    1  A    between atoms: C_1  and  N_2
REMARK    2  A    between atoms: C_6  and  C_7
REMARK    3  A    between atoms: C_7  and  C_8
REMARK    4  A    between atoms: C_8  and  C_9
REMARK    5  A    between atoms: C_13  and  N_14
REMARK    6  A    between atoms: C_19  and  C_20
REMARK    7  A    between atoms: C_20  and  N_21
REMARK    8  A    between atoms: C_30  and  C_31
REMARK                            x       y       z     vdW  Elec       q    Type
REMARK                         _______ _______ _______ _____ _____    ______ ____
ROOT
ATOM      1  N   UNL     1       1.328   8.115  20.290  0.00  0.00    +0.000 N 
ATOM      2  C   UNL     1       1.487   6.797  20.866  0.00  0.00    +0.000 C 
ATOM      3  C   UNL     1       2.132   6.009  19.797  0.00  0.00    +0.000 A 
ATOM      4  C   UNL     1       2.498   6.840  18.739  0.00  0.00    +0.000 A 
ATOM      5  C   UNL     1       3.284   6.349  17.702  0.00  0.00    +0.000 A 
ATOM      6  C   UNL     1       3.677   4.991  17.744  0.00  0.00    +0.000 A 
ATOM      7  C   UNL     1       3.214   4.160  18.790  0.00  0.00    +0.000 A 
ATOM      8  C   UNL     1       2.423   4.652  19.828  0.00  0.00    +0.000 A 
ATOM      9  C   UNL     1       1.892   8.189  19.008  0.00  0.00    +0.000 C 
ATOM     10  O   UNL     1       1.914   9.118  18.221  0.00  0.00    +0.000 OA
ENDROOT
BRANCH   1  15
ATOM     11  C   UNL     1      -0.849  11.113  20.822  0.00  0.00    +0.000 A 
ATOM     12  C   UNL     1      -0.836  11.164  22.223  0.00  0.00    +0.000 A 
ATOM     13  C   UNL     1      -0.217  10.164  22.993  0.00  0.00    +0.000 A 
ATOM     14  C   UNL     1       0.448   9.088  22.387  0.00  0.00    +0.000 A 
ATOM     15  C   UNL     1       0.521   9.035  21.003  0.00  0.00    +0.000 A 
ATOM     16  C   UNL     1      -0.162  10.025  20.262  0.00  0.00    +0.000 A 
BRANCH  11  17
ATOM     17  C   UNL     1      -1.576  12.197  19.869  0.00  0.00    +0.000 C 
ATOM     18  C   UNL     1      -0.695  12.778  18.729  0.00  0.00    +0.000 C 
ATOM     19  O   UNL     1      -0.809  14.123  19.228  0.00  0.00    +0.000 OA
ATOM     20  C   UNL     1      -1.614  13.685  20.341  0.00  0.00    +0.000 C 
BRANCH  17  21
ATOM     21  C   UNL     1      -2.942  11.674  19.371  0.00  0.00    +0.000 C 
BRANCH  21  27
ATOM     22  C   UNL     1      -5.208  12.213  17.213  0.00  0.00    +0.000 C 
ATOM     23  N   UNL     1      -3.984  11.480  17.031  0.00  0.00    +0.000 N 
ATOM     24  C   UNL     1      -3.629  10.830  15.887  0.00  0.00    +0.000 A 
ATOM     25  N   UNL     1      -2.459  10.266  16.051  0.00  0.00    +0.000 NA
ATOM     26  N   UNL     1      -2.039  10.540  17.328  0.00  0.00    +0.000 NA
ATOM     27  C   UNL     1      -2.967  11.261  17.930  0.00  0.00    +0.000 A 
ENDBRANCH  21  27
ENDBRANCH  17  21
ENDBRANCH  11  17
ENDBRANCH   1  15
BRANCH   8  28
ATOM     28  C   UNL     1       1.900   3.737  20.905  0.00  0.00    +0.000 C 
ATOM     29  F   UNL     1       2.288   2.444  20.757  0.00  0.00    +0.000 F 
ATOM     30  F   UNL     1       2.337   4.107  22.141  0.00  0.00    +0.000 F 
ATOM     31  F   UNL     1       0.544   3.716  20.970  0.00  0.00    +0.000 F 
ENDBRANCH   8  28
BRANCH   6  32
ATOM     32  C   UNL     1       4.642   4.365  16.740  0.00  0.00    +0.000 C 
BRANCH  32  33
ATOM     33  N   UNL     1       4.934   5.283  15.625  0.00  0.00    +0.000 NA
ATOM     34  C   UNL     1       5.820   4.688  14.611  0.00  0.00    +0.000 C 
ATOM     35  C   UNL     1       7.284   4.513  15.050  0.00  0.00    +0.000 C 
ATOM     36  O   UNL     1       7.843   5.624  15.753  0.00  0.00    +0.000 OA
ATOM     37  C   UNL     1       6.931   6.364  16.599  0.00  0.00    +0.000 C 
ATOM     38  C   UNL     1       7.129   6.335  18.093  0.00  0.00    +0.000 C 
ATOM     39  C   UNL     1       7.639   7.503  17.304  0.00  0.00    +0.000 C 
ATOM     40  C   UNL     1       5.539   6.555  16.054  0.00  0.00    +0.000 C 
ENDBRANCH  32  33
ENDBRANCH   6  32
TORSDOF 7
ENDMDL
MODEL 2
REMARK VINA RESULT:     -10.5      2.020      3.070
REMARK  Name = 
REMARK  8 active torsions:
REMARK  status: ('A' for Active; 'I' for Inactive)
REMARK    1  A    between atoms: C_1  and  N_2
REMARK    2  A    between atoms: C_6  and  C_7
REMARK    3  A    between atoms: C_7  and  C_8
REMARK    4  A    between atoms: C_8  and  C_9
REMARK    5  A    between atoms: C_13  and  N_14
REMARK    6  A    between atoms: C_19  and  C_20
REMARK    7  A    between atoms: C_20  and  N_21
REMARK    8  A    between atoms: C_30  and  C_31
REMARK                            x       y       z     vdW  Elec       q    Type
REMARK                         _______ _______ _______ _____ _____    ______ ____
ROOT
ATOM      1  N   UNL     1       1.337   7.987  20.500  0.00  0.00    +0.000 N 
ATOM      2  C   UNL     1       1.504   6.652  21.031  0.00  0.00    +0.000 C 
ATOM      3  C   UNL     1       2.135   5.899  19.928  0.00  0.00    +0.000 A 
ATOM      4  C   UNL     1       2.488   6.764  18.894  0.00  0.00    +0.000 A 
ATOM      5  C   UNL     1       3.260   6.308  17.831  0.00  0.00    +0.000 A 
ATOM      6  C   UNL     1       3.655   4.949  17.824  0.00  0.00    +0.000 A 
ATOM      7  C   UNL     1       3.206   4.085  18.849  0.00  0.00    +0.000 A 
ATOM      8  C   UNL     1       2.428   4.542  19.913  0.00  0.00    +0.000 A 
ATOM      9  C   UNL     1       1.885   8.104  19.214  0.00  0.00    +0.000 C 
ATOM     10  O   UNL     1       1.896   9.057  18.457  0.00  0.00    +0.000 OA
ENDROOT
BRANCH   1  15
ATOM     11  C   UNL     1      -0.659  11.072  21.214  0.00  0.00    +0.000 A 
ATOM     12  C   UNL     1      -0.764  10.963  22.609  0.00  0.00    +0.000 A 
ATOM     13  C   UNL     1      -0.286   9.836  23.299  0.00  0.00    +0.000 A 
ATOM     14  C   UNL     1       0.350   8.786  22.623  0.00  0.00    +0.000 A 
ATOM     15  C   UNL     1       0.539   8.883  21.253  0.00  0.00    +0.000 A 
ATOM     16  C   UNL     1      -0.005  10.003  20.585  0.00  0.00    +0.000 A 
BRANCH  11  17
ATOM     17  C   UNL     1      -1.222  12.312  20.344  0.00  0.00    +0.000 C 
ATOM     18  C   UNL     1      -2.265  13.211  21.062  0.00  0.00    +0.000 C 
ATOM     19  O   UNL     1      -3.288  12.923  20.092  0.00  0.00    +0.000 OA
ATOM     20  C   UNL     1      -2.408  12.045  19.364  0.00  0.00    +0.000 C 
BRANCH  17  21
ATOM     21  C   UNL     1      -0.066  13.116  19.707  0.00  0.00    +0.000 C 
BRANCH  21  27
ATOM     22  C   UNL     1      -0.270  16.260  20.105  0.00  0.00    +0.000 C 
ATOM     23  N   UNL     1       0.610  15.348  20.784  0.00  0.00    +0.000 N 
ATOM     24  C   UNL     1       1.564  15.714  21.685  0.00  0.00    +0.000 A 
ATOM     25  N   UNL     1       2.188  14.647  22.118  0.00  0.00    +0.000 NA
ATOM     26  N   UNL     1       1.641  13.560  21.484  0.00  0.00    +0.000 NA
ATOM     27  C   UNL     1       0.697  13.981  20.665  0.00  0.00    +0.000 A 
ENDBRANCH  21  27
ENDBRANCH  17  21
ENDBRANCH  11  17
ENDBRANCH   1  15
BRANCH   8  28
ATOM     28  C   UNL     1       1.919   3.592  20.965  0.00  0.00    +0.000 C 
ATOM     29  F   UNL     1       0.565   3.555  21.058  0.00  0.00    +0.000 F 
ATOM     30  F   UNL     1       2.300   2.308  20.715  0.00  0.00    +0.000 F 
ATOM     31  F   UNL     1       2.372   3.889  22.210  0.00  0.00    +0.000 F 
ENDBRANCH   8  28
BRANCH   6  32
ATOM     32  C   UNL     1       4.608   4.357  16.789  0.00  0.00    +0.000 C 
BRANCH  32  33
ATOM     33  N   UNL     1       4.871   5.305  15.691  0.00  0.00    +0.000 NA
ATOM     34  C   UNL     1       5.743   4.743  14.647  0.00  0.00    +0.000 C 
ATOM     35  C   UNL     1       7.216   4.568  15.054  0.00  0.00    +0.000 C 
ATOM     36  O   UNL     1       7.780   5.667  15.774  0.00  0.00    +0.000 OA
ATOM     37  C   UNL     1       6.878   6.377  16.655  0.00  0.00    +0.000 C 
ATOM     38  C   UNL     1       7.105   6.313  18.144  0.00  0.00    +0.000 C 
ATOM     39  C   UNL     1       7.590   7.505  17.375  0.00  0.00    +0.000 C 
ATOM     40  C   UNL     1       5.474   6.571  16.141  0.00  0.00    +0.000 C 
ENDBRANCH  32  33
ENDBRANCH   6  32
TORSDOF 7
ENDMDL
MODEL 3
REMARK VINA RESULT:     -10.4      1.760      2.781
REMARK  Name = 
REMARK  8 active torsions:
REMARK  status: ('A' for Active; 'I' for Inactive)
REMARK    1  A    between atoms: C_1  and  N_2
REMARK    2  A    between atoms: C_6  and  C_7
REMARK    3  A    between atoms: C_7  and  C_8
REMARK    4  A    between atoms: C_8  and  C_9
REMARK    5  A    between atoms: C_13  and  N_14
REMARK    6  A    between atoms: C_19  and  C_20
REMARK    7  A    between atoms: C_20  and  N_21
REMARK    8  A    between atoms: C_30  and  C_31
REMARK                            x       y       z     vdW  Elec       q    Type
REMARK                         _______ _______ _______ _____ _____    ______ ____
ROOT
ATOM      1  N   UNL     1       1.284   8.136  20.402  0.00  0.00    +0.000 N 
ATOM      2  C   UNL     1       1.446   6.807  20.950  0.00  0.00    +0.000 C 
ATOM      3  C   UNL     1       2.082   6.040  19.860  0.00  0.00    +0.000 A 
ATOM      4  C   UNL     1       2.442   6.891  18.817  0.00  0.00    +0.000 A 
ATOM      5  C   UNL     1       3.219   6.421  17.764  0.00  0.00    +0.000 A 
ATOM      6  C   UNL     1       3.612   5.061  17.776  0.00  0.00    +0.000 A 
ATOM      7  C   UNL     1       3.155   4.210  18.809  0.00  0.00    +0.000 A 
ATOM      8  C   UNL     1       2.372   4.682  19.863  0.00  0.00    +0.000 A 
ATOM      9  C   UNL     1       1.839   8.236  19.117  0.00  0.00    +0.000 C 
ATOM     10  O   UNL     1       1.856   9.180  18.349  0.00  0.00    +0.000 OA
ENDROOT
BRANCH   1  15
ATOM     11  C   UNL     1      -0.877  11.131  21.011  0.00  0.00    +0.000 A 
ATOM     12  C   UNL     1      -0.860  11.148  22.413  0.00  0.00    +0.000 A 
ATOM     13  C   UNL     1      -0.244  10.126  23.157  0.00  0.00    +0.000 A 
ATOM     14  C   UNL     1       0.413   9.062  22.523  0.00  0.00    +0.000 A 
ATOM     15  C   UNL     1       0.483   9.042  21.139  0.00  0.00    +0.000 A 
ATOM     16  C   UNL     1      -0.196  10.054  20.424  0.00  0.00    +0.000 A 
BRANCH  11  17
ATOM     17  C   UNL     1      -1.600  12.241  20.087  0.00  0.00    +0.000 C 
ATOM     18  C   UNL     1      -3.120  12.432  20.342  0.00  0.00    +0.000 C 
ATOM     19  O   UNL     1      -3.469  12.046  19.000  0.00  0.00    +0.000 OA
ATOM     20  C   UNL     1      -2.086  11.813  18.666  0.00  0.00    +0.000 C 
BRANCH  17  21
ATOM     21  C   UNL     1      -0.814  13.571  20.093  0.00  0.00    +0.000 C 
BRANCH  21  27
ATOM     22  C   UNL     1       1.794  14.587  21.591  0.00  0.00    +0.000 C 
ATOM     23  N   UNL     1       1.719  13.942  20.308  0.00  0.00    +0.000 N 
ATOM     24  C   UNL     1       2.782  13.719  19.486  0.00  0.00    +0.000 A 
ATOM     25  N   UNL     1       2.374  13.112  18.400  0.00  0.00    +0.000 NA
ATOM     26  N   UNL     1       1.016  12.941  18.503  0.00  0.00    +0.000 NA
ATOM     27  C   UNL     1       0.614  13.456  19.650  0.00  0.00    +0.000 A 
ENDBRANCH  21  27
ENDBRANCH  17  21
ENDBRANCH  11  17
ENDBRANCH   1  15
BRANCH   8  28
ATOM     28  C   UNL     1       1.856   3.746  20.924  0.00  0.00    +0.000 C 
ATOM     29  F   UNL     1       2.258   4.071  22.180  0.00  0.00    +0.000 F 
ATOM     30  F   UNL     1       0.494   3.734  20.971  0.00  0.00    +0.000 F 
ATOM     31  F   UNL     1       2.242   2.459  20.728  0.00  0.00    +0.000 F 
ENDBRANCH   8  28
BRANCH   6  32
ATOM     32  C   UNL     1       4.569   4.455  16.753  0.00  0.00    +0.000 C 
BRANCH  32  33
ATOM     33  N   UNL     1       4.891   5.411  15.680  0.00  0.00    +0.000 NA
ATOM     34  C   UNL     1       5.771   4.839  14.648  0.00  0.00    +0.000 C 
ATOM     35  C   UNL     1       7.227   4.611  15.090  0.00  0.00    +0.000 C 
ATOM     36  O   UNL     1       7.806   5.678  15.844  0.00  0.00    +0.000 OA
ATOM     37  C   UNL     1       6.905   6.402  16.714  0.00  0.00    +0.000 C 
ATOM     38  C   UNL     1       7.090   6.306  18.207  0.00  0.00    +0.000 C 
ATOM     39  C   UNL     1       7.634   7.494  17.471  0.00  0.00    +0.000 C 
ATOM     40  C   UNL     1       5.522   6.650  16.166  0.00  0.00    +0.000 C 
ENDBRANCH  32  33
ENDBRANCH   6  32
TORSDOF 7
ENDMDL
MODEL 4
REMARK VINA RESULT:     -10.4      1.953      2.648
REMARK  Name = 
REMARK  8 active torsions:
REMARK  status: ('A' for Active; 'I' for Inactive)
REMARK    1  A    between atoms: C_1  and  N_2
REMARK    2  A    between atoms: C_6  and  C_7
REMARK    3  A    between atoms: C_7  and  C_8
REMARK    4  A    between atoms: C_8  and  C_9
REMARK    5  A    between atoms: C_13  and  N_14
REMARK    6  A    between atoms: C_19  and  C_20
REMARK    7  A    between atoms: C_20  and  N_21
REMARK    8  A    between atoms: C_30  and  C_31
REMARK                            x       y       z     vdW  Elec       q    Type
REMARK                         _______ _______ _______ _____ _____    ______ ____
ROOT
ATOM      1  N   UNL     1       1.343   8.055  20.463  0.00  0.00    +0.000 N 
ATOM      2  C   UNL     1       1.512   6.725  21.006  0.00  0.00    +0.000 C 
ATOM      3  C   UNL     1       2.145   5.963  19.912  0.00  0.00    +0.000 A 
ATOM      4  C   UNL     1       2.496   6.818  18.869  0.00  0.00    +0.000 A 
ATOM      5  C   UNL     1       3.270   6.353  17.811  0.00  0.00    +0.000 A 
ATOM      6  C   UNL     1       3.667   4.994  17.817  0.00  0.00    +0.000 A 
ATOM      7  C   UNL     1       3.218   4.139  18.850  0.00  0.00    +0.000 A 
ATOM      8  C   UNL     1       2.439   4.606  19.909  0.00  0.00    +0.000 A 
ATOM      9  C   UNL     1       1.891   8.160  19.176  0.00  0.00    +0.000 C 
ATOM     10  O   UNL     1       1.901   9.106  18.409  0.00  0.00    +0.000 OA
ENDROOT
BRANCH   1  15
ATOM     11  C   UNL     1      -0.683  11.130  21.136  0.00  0.00    +0.000 A 
ATOM     12  C   UNL     1      -0.769  11.050  22.534  0.00  0.00    +0.000 A 
ATOM     13  C   UNL     1      -0.268   9.944  23.242  0.00  0.00    +0.000 A 
ATOM     14  C   UNL     1       0.373   8.887  22.580  0.00  0.00    +0.000 A 
ATOM     15  C   UNL     1       0.543   8.956  21.206  0.00  0.00    +0.000 A 
ATOM     16  C   UNL     1      -0.024  10.054  20.521  0.00  0.00    +0.000 A 
BRANCH  11  17
ATOM     17  C   UNL     1      -1.273  12.342  20.247  0.00  0.00    +0.000 C 
ATOM     18  C   UNL     1      -2.821  12.403  20.146  0.00  0.00    +0.000 C 
ATOM     19  O   UNL     1      -2.807  12.238  18.716  0.00  0.00    +0.000 OA
ATOM     20  C   UNL     1      -1.369  12.143  18.701  0.00  0.00    +0.000 C 
BRANCH  17  21
ATOM     21  C   UNL     1      -0.640  13.692  20.654  0.00  0.00    +0.000 C 
BRANCH  21  27
ATOM     22  C   UNL     1       0.091  16.100  18.717  0.00  0.00    +0.000 C 
ATOM     23  N   UNL     1       0.947  15.023  19.135  0.00  0.00    +0.000 N 
ATOM     24  C   UNL     1       2.224  14.831  18.698  0.00  0.00    +0.000 A 
ATOM     25  N   UNL     1       2.724  13.765  19.270  0.00  0.00    +0.000 NA
ATOM     26  N   UNL     1       1.758  13.240  20.091  0.00  0.00    +0.000 NA
ATOM     27  C   UNL     1       0.676  13.989  20.000  0.00  0.00    +0.000 A 
ENDBRANCH  21  27
ENDBRANCH  17  21
ENDBRANCH  11  17
ENDBRANCH   1  15
BRANCH   8  28
ATOM     28  C   UNL     1       1.932   3.665  20.971  0.00  0.00    +0.000 C 
ATOM     29  F   UNL     1       2.335   2.380  20.798  0.00  0.00    +0.000 F 
ATOM     30  F   UNL     1       2.370   4.019  22.212  0.00  0.00    +0.000 F 
ATOM     31  F   UNL     1       0.576   3.627  21.041  0.00  0.00    +0.000 F 
ENDBRANCH   8  28
BRANCH   6  32
ATOM     32  C   UNL     1       4.621   4.393  16.788  0.00  0.00    +0.000 C 
BRANCH  32  33
ATOM     33  N   UNL     1       4.889   5.334  15.685  0.00  0.00    +0.000 NA
ATOM     34  C   UNL     1       5.757   4.761  14.644  0.00  0.00    +0.000 C 
ATOM     35  C   UNL     1       7.229   4.580  15.051  0.00  0.00    +0.000 C 
ATOM     36  O   UNL     1       7.800   5.679  15.766  0.00  0.00    +0.000 OA
ATOM     37  C   UNL     1       6.903   6.399  16.643  0.00  0.00    +0.000 C 
ATOM     38  C   UNL     1       7.129   6.341  18.133  0.00  0.00    +0.000 C 
ATOM     39  C   UNL     1       7.622   7.526  17.357  0.00  0.00    +0.000 C 
ATOM     40  C   UNL     1       5.500   6.599  16.128  0.00  0.00    +0.000 C 
ENDBRANCH  32  33
ENDBRANCH   6  32
TORSDOF 7
ENDMDL
MODEL 5
REMARK VINA RESULT:     -10.4      2.432      3.024
REMARK  Name = 
REMARK  8 active torsions:
REMARK  status: ('A' for Active; 'I' for Inactive)
REMARK    1  A    between atoms: C_1  and  N_2
REMARK    2  A    between atoms: C_6  and  C_7
REMARK    3  A    between atoms: C_7  and  C_8
REMARK    4  A    between atoms: C_8  and  C_9
REMARK    5  A    between atoms: C_13  and  N_14
REMARK    6  A    between atoms: C_19  and  C_20
REMARK    7  A    between atoms: C_20  and  N_21
REMARK    8  A    between atoms: C_30  and  C_31
REMARK                            x       y       z     vdW  Elec       q    Type
REMARK                         _______ _______ _______ _____ _____    ______ ____
ROOT
ATOM      1  N   UNL     1       1.254   8.524  20.337  0.00  0.00    +0.000 N 
ATOM      2  C   UNL     1       1.471   7.200  20.876  0.00  0.00    +0.000 C 
ATOM      3  C   UNL     1       2.060   6.443  19.753  0.00  0.00    +0.000 A 
ATOM      4  C   UNL     1       2.345   7.299  18.690  0.00  0.00    +0.000 A 
ATOM      5  C   UNL     1       3.071   6.842  17.596  0.00  0.00    +0.000 A 
ATOM      6  C   UNL     1       3.489   5.490  17.587  0.00  0.00    +0.000 A 
ATOM      7  C   UNL     1       3.107   4.632  18.644  0.00  0.00    +0.000 A 
ATOM      8  C   UNL     1       2.375   5.091  19.740  0.00  0.00    +0.000 A 
ATOM      9  C   UNL     1       1.734   8.633  19.023  0.00  0.00    +0.000 C 
ATOM     10  O   UNL     1       1.691   9.575  18.254  0.00  0.00    +0.000 OA
ENDROOT
BRANCH   1  15
ATOM     11  C   UNL     1      -0.125  11.811  21.482  0.00  0.00    +0.000 A 
ATOM     12  C   UNL     1      -0.690  11.413  22.702  0.00  0.00    +0.000 A 
ATOM     13  C   UNL     1      -0.720  10.064  23.097  0.00  0.00    +0.000 A 
ATOM     14  C   UNL     1      -0.153   9.061  22.299  0.00  0.00    +0.000 A 
ATOM     15  C   UNL     1       0.479   9.416  21.117  0.00  0.00    +0.000 A 
ATOM     16  C   UNL     1       0.439  10.773  20.724  0.00  0.00    +0.000 A 
BRANCH  11  17
ATOM     17  C   UNL     1      -0.091  13.331  20.936  0.00  0.00    +0.000 C 
ATOM     18  C   UNL     1       0.847  14.296  21.711  0.00  0.00    +0.000 C 
ATOM     19  O   UNL     1      -0.239  15.159  22.097  0.00  0.00    +0.000 OA
ATOM     20  C   UNL     1      -1.199  14.316  21.429  0.00  0.00    +0.000 C 
BRANCH  17  21
ATOM     21  C   UNL     1       0.130  13.371  19.407  0.00  0.00    +0.000 C 
BRANCH  21  27
ATOM     22  C   UNL     1       0.869  16.363  18.645  0.00  0.00    +0.000 C 
ATOM     23  N   UNL     1       1.736  15.216  18.622  0.00  0.00    +0.000 N 
ATOM     24  C   UNL     1       3.030  15.227  18.196  0.00  0.00    +0.000 A 
ATOM     25  N   UNL     1       3.536  14.025  18.305  0.00  0.00    +0.000 NA
ATOM     26  N   UNL     1       2.556  13.204  18.803  0.00  0.00    +0.000 NA
ATOM     27  C   UNL     1       1.460  13.918  18.982  0.00  0.00    +0.000 A 
ENDBRANCH  21  27
ENDBRANCH  17  21
ENDBRANCH  11  17
ENDBRANCH   1  15
BRANCH   8  28
ATOM     28  C   UNL     1       1.938   4.147  20.829  0.00  0.00    +0.000 C 
ATOM     29  F   UNL     1       0.590   4.066  20.971  0.00  0.00    +0.000 F 
ATOM     30  F   UNL     1       2.354   2.872  20.591  0.00  0.00    +0.000 F 
ATOM     31  F   UNL     1       2.424   4.486  22.051  0.00  0.00    +0.000 F 
ENDBRANCH   8  28
BRANCH   6  32
ATOM     32  C   UNL     1       4.399   4.900  16.512  0.00  0.00    +0.000 C 
BRANCH  32  33
ATOM     33  N   UNL     1       5.352   5.901  16.001  0.00  0.00    +0.000 NA
ATOM     34  C   UNL     1       6.278   5.350  14.999  0.00  0.00    +0.000 C 
ATOM     35  C   UNL     1       7.347   4.394  15.558  0.00  0.00    +0.000 C 
ATOM     36  O   UNL     1       7.967   4.823  16.772  0.00  0.00    +0.000 OA
ATOM     37  C   UNL     1       7.125   5.562  17.688  0.00  0.00    +0.000 C 
ATOM     38  C   UNL     1       6.769   4.947  19.017  0.00  0.00    +0.000 C 
ATOM     39  C   UNL     1       7.884   5.946  18.942  0.00  0.00    +0.000 C 
ATOM     40  C   UNL     1       6.162   6.534  17.055  0.00  0.00    +0.000 C 
ENDBRANCH  32  33
ENDBRANCH   6  32
TORSDOF 7
ENDMDL
MODEL 6
REMARK VINA RESULT:     -10.4      1.953      2.533
REMARK  Name = 
REMARK  8 active torsions:
REMARK  status: ('A' for Active; 'I' for Inactive)
REMARK    1  A    between atoms: C_1  and  N_2
REMARK    2  A    between atoms: C_6  and  C_7
REMARK    3  A    between atoms: C_7  and  C_8
REMARK    4  A    between atoms: C_8  and  C_9
REMARK    5  A    between atoms: C_13  and  N_14
REMARK    6  A    between atoms: C_19  and  C_20
REMARK    7  A    between atoms: C_20  and  N_21
REMARK    8  A    between atoms: C_30  and  C_31
REMARK                            x       y       z     vdW  Elec       q    Type
REMARK                         _______ _______ _______ _____ _____    ______ ____
ROOT
ATOM      1  N   UNL     1       1.231   8.297  20.445  0.00  0.00    +0.000 N 
ATOM      2  C   UNL     1       1.421   6.948  20.931  0.00  0.00    +0.000 C 
ATOM      3  C   UNL     1       2.024   6.233  19.789  0.00  0.00    +0.000 A 
ATOM      4  C   UNL     1       2.341   7.130  18.770  0.00  0.00    +0.000 A 
ATOM      5  C   UNL     1       3.084   6.710  17.673  0.00  0.00    +0.000 A 
ATOM      6  C   UNL     1       3.486   5.355  17.614  0.00  0.00    +0.000 A 
ATOM      7  C   UNL     1       3.072   4.457  18.625  0.00  0.00    +0.000 A 
ATOM      8  C   UNL     1       2.323   4.879  19.725  0.00  0.00    +0.000 A 
ATOM      9  C   UNL     1       1.740   8.455  19.148  0.00  0.00    +0.000 C 
ATOM     10  O   UNL     1       1.723   9.431  18.419  0.00  0.00    +0.000 OA
ENDROOT
BRANCH   1  15
ATOM     11  C   UNL     1      -0.890  11.271  21.265  0.00  0.00    +0.000 A 
ATOM     12  C   UNL     1      -0.853  11.204  22.665  0.00  0.00    +0.000 A 
ATOM     13  C   UNL     1      -0.237  10.134  23.337  0.00  0.00    +0.000 A 
ATOM     14  C   UNL     1       0.401   9.104  22.631  0.00  0.00    +0.000 A 
ATOM     15  C   UNL     1       0.450   9.165  21.247  0.00  0.00    +0.000 A 
ATOM     16  C   UNL     1      -0.229  10.224  20.604  0.00  0.00    +0.000 A 
BRANCH  11  17
ATOM     17  C   UNL     1      -1.616  12.441  20.419  0.00  0.00    +0.000 C 
ATOM     18  C   UNL     1      -2.569  11.955  19.294  0.00  0.00    +0.000 C 
ATOM     19  O   UNL     1      -1.798  12.599  18.263  0.00  0.00    +0.000 OA
ATOM     20  C   UNL     1      -0.837  13.078  19.225  0.00  0.00    +0.000 C 
BRANCH  17  21
ATOM     21  C   UNL     1      -2.267  13.484  21.355  0.00  0.00    +0.000 C 
BRANCH  21  27
ATOM     22  C   UNL     1      -5.011  14.678  20.294  0.00  0.00    +0.000 C 
ATOM     23  N   UNL     1      -4.825  13.711  21.341  0.00  0.00    +0.000 N 
ATOM     24  C   UNL     1      -5.827  13.190  22.105  0.00  0.00    +0.000 A 
ATOM     25  N   UNL     1      -5.323  12.339  22.963  0.00  0.00    +0.000 NA
ATOM     26  N   UNL     1      -3.966  12.305  22.768  0.00  0.00    +0.000 NA
ATOM     27  C   UNL     1      -3.659  13.145  21.798  0.00  0.00    +0.000 A 
ENDBRANCH  21  27
ENDBRANCH  17  21
ENDBRANCH  11  17
ENDBRANCH   1  15
BRANCH   8  28
ATOM     28  C   UNL     1       1.852   3.895  20.763  0.00  0.00    +0.000 C 
ATOM     29  F   UNL     1       2.310   4.161  22.014  0.00  0.00    +0.000 F 
ATOM     30  F   UNL     1       0.494   3.882  20.870  0.00  0.00    +0.000 F 
ATOM     31  F   UNL     1       2.226   2.618  20.492  0.00  0.00    +0.000 F 
ENDBRANCH   8  28
BRANCH   6  32
ATOM     32  C   UNL     1       4.411   4.799  16.534  0.00  0.00    +0.000 C 
BRANCH  32  33
ATOM     33  N   UNL     1       5.361   5.820  16.057  0.00  0.00    +0.000 NA
ATOM     34  C   UNL     1       6.273   5.313  15.019  0.00  0.00    +0.000 C 
ATOM     35  C   UNL     1       7.345   4.330  15.519  0.00  0.00    +0.000 C 
ATOM     36  O   UNL     1       7.982   4.700  16.744  0.00  0.00    +0.000 OA
ATOM     37  C   UNL     1       7.154   5.398  17.704  0.00  0.00    +0.000 C 
ATOM     38  C   UNL     1       6.813   4.722  19.008  0.00  0.00    +0.000 C 
ATOM     39  C   UNL     1       7.930   5.721  18.965  0.00  0.00    +0.000 C 
ATOM     40  C   UNL     1       6.186   6.401  17.130  0.00  0.00    +0.000 C 
ENDBRANCH  32  33
ENDBRANCH   6  32
TORSDOF 7
ENDMDL
MODEL 7
REMARK VINA RESULT:     -10.3      2.069      3.066
REMARK  Name = 
REMARK  8 active torsions:
REMARK  status: ('A' for Active; 'I' for Inactive)
REMARK    1  A    between atoms: C_1  and  N_2
REMARK    2  A    between atoms: C_6  and  C_7
REMARK    3  A    between atoms: C_7  and  C_8
REMARK    4  A    between atoms: C_8  and  C_9
REMARK    5  A    between atoms: C_13  and  N_14
REMARK    6  A    between atoms: C_19  and  C_20
REMARK    7  A    between atoms: C_20  and  N_21
REMARK    8  A    between atoms: C_30  and  C_31
REMARK                            x       y       z     vdW  Elec       q    Type
REMARK                         _______ _______ _______ _____ _____    ______ ____
ROOT
ATOM      1  N   UNL     1       1.195   8.253  20.464  0.00  0.00    +0.000 N 
ATOM      2  C   UNL     1       1.412   6.915  20.967  0.00  0.00    +0.000 C 
ATOM      3  C   UNL     1       2.009   6.191  19.827  0.00  0.00    +0.000 A 
ATOM      4  C   UNL     1       2.297   7.077  18.790  0.00  0.00    +0.000 A 
ATOM      5  C   UNL     1       3.029   6.652  17.688  0.00  0.00    +0.000 A 
ATOM      6  C   UNL     1       3.451   5.302  17.643  0.00  0.00    +0.000 A 
ATOM      7  C   UNL     1       3.066   4.414  18.674  0.00  0.00    +0.000 A 
ATOM      8  C   UNL     1       2.327   4.841  19.778  0.00  0.00    +0.000 A 
ATOM      9  C   UNL     1       1.681   8.399  19.157  0.00  0.00    +0.000 C 
ATOM     10  O   UNL     1       1.639   9.363  18.414  0.00  0.00    +0.000 OA
ENDROOT
BRANCH   1  15
ATOM     11  C   UNL     1      -0.798  11.304  21.324  0.00  0.00    +0.000 A 
ATOM     12  C   UNL     1      -0.862  11.154  22.717  0.00  0.00    +0.000 A 
ATOM     13  C   UNL     1      -0.359  10.010  23.361  0.00  0.00    +0.000 A 
ATOM     14  C   UNL     1       0.264   8.984  22.636  0.00  0.00    +0.000 A 
ATOM     15  C   UNL     1       0.413   9.122  21.265  0.00  0.00    +0.000 A 
ATOM     16  C   UNL     1      -0.156  10.257  20.645  0.00  0.00    +0.000 A 
BRANCH  11  17
ATOM     17  C   UNL     1      -1.392  12.564  20.507  0.00  0.00    +0.000 C 
ATOM     18  C   UNL     1      -2.162  13.609  21.360  0.00  0.00    +0.000 C 
ATOM     19  O   UNL     1      -3.388  13.404  20.635  0.00  0.00    +0.000 OA
ATOM     20  C   UNL     1      -2.776  12.399  19.803  0.00  0.00    +0.000 C 
BRANCH  17  21
ATOM     21  C   UNL     1      -0.314  13.200  19.601  0.00  0.00    +0.000 C 
BRANCH  21  27
ATOM     22  C   UNL     1       2.661  13.135  18.494  0.00  0.00    +0.000 C 
ATOM     23  N   UNL     1       2.227  13.514  19.811  0.00  0.00    +0.000 N 
ATOM     24  C   UNL     1       3.058  13.853  20.836  0.00  0.00    +0.000 A 
ATOM     25  N   UNL     1       2.347  14.146  21.896  0.00  0.00    +0.000 NA
ATOM     26  N   UNL     1       1.024  13.988  21.566  0.00  0.00    +0.000 NA
ATOM     27  C   UNL     1       0.948  13.591  20.310  0.00  0.00    +0.000 A 
ENDBRANCH  21  27
ENDBRANCH  17  21
ENDBRANCH  11  17
ENDBRANCH   1  15
BRANCH   8  28
ATOM     28  C   UNL     1       1.886   3.866  20.838  0.00  0.00    +0.000 C 
ATOM     29  F   UNL     1       2.322   2.597  20.628  0.00  0.00    +0.000 F 
ATOM     30  F   UNL     1       2.356   4.210  22.070  0.00  0.00    +0.000 F 
ATOM     31  F   UNL     1       0.536   3.783  20.954  0.00  0.00    +0.000 F 
ENDBRANCH   8  28
BRANCH   6  32
ATOM     32  C   UNL     1       4.368   4.744  16.557  0.00  0.00    +0.000 C 
BRANCH  32  33
ATOM     33  N   UNL     1       5.189   5.804  15.945  0.00  0.00    +0.000 NA
ATOM     34  C   UNL     1       6.117   5.291  14.924  0.00  0.00    +0.000 C 
ATOM     35  C   UNL     1       7.302   4.478  15.472  0.00  0.00    +0.000 C 
ATOM     36  O   UNL     1       7.934   5.031  16.628  0.00  0.00    +0.000 OA
ATOM     37  C   UNL     1       7.067   5.734  17.550  0.00  0.00    +0.000 C 
ATOM     38  C   UNL     1       6.841   5.161  18.925  0.00  0.00    +0.000 C 
ATOM     39  C   UNL     1       7.844   6.259  18.740  0.00  0.00    +0.000 C 
ATOM     40  C   UNL     1       5.982   6.570  16.922  0.00  0.00    +0.000 C 
ENDBRANCH  32  33
ENDBRANCH   6  32
TORSDOF 7
ENDMDL
MODEL 8
REMARK VINA RESULT:     -10.3      0.829      1.253
REMARK  Name = 
REMARK  8 active torsions:
REMARK  status: ('A' for Active; 'I' for Inactive)
REMARK    1  A    between atoms: C_1  and  N_2
REMARK    2  A    between atoms: C_6  and  C_7
REMARK    3  A    between atoms: C_7  and  C_8
REMARK    4  A    between atoms: C_8  and  C_9
REMARK    5  A    between atoms: C_13  and  N_14
REMARK    6  A    between atoms: C_19  and  C_20
REMARK    7  A    between atoms: C_20  and  N_21
REMARK    8  A    between atoms: C_30  and  C_31
REMARK                            x       y       z     vdW  Elec       q    Type
REMARK                         _______ _______ _______ _____ _____    ______ ____
ROOT
ATOM      1  N   UNL     1       1.333   8.122  20.409  0.00  0.00    +0.000 N 
ATOM      2  C   UNL     1       1.539   6.805  20.971  0.00  0.00    +0.000 C 
ATOM      3  C   UNL     1       2.151   6.033  19.871  0.00  0.00    +0.000 A 
ATOM      4  C   UNL     1       2.458   6.874  18.803  0.00  0.00    +0.000 A 
ATOM      5  C   UNL     1       3.206   6.402  17.731  0.00  0.00    +0.000 A 
ATOM      6  C   UNL     1       3.625   5.050  17.749  0.00  0.00    +0.000 A 
ATOM      7  C   UNL     1       3.220   4.207  18.809  0.00  0.00    +0.000 A 
ATOM      8  C   UNL     1       2.466   4.681  19.883  0.00  0.00    +0.000 A 
ATOM      9  C   UNL     1       1.841   8.212  19.105  0.00  0.00    +0.000 C 
ATOM     10  O   UNL     1       1.814   9.144  18.322  0.00  0.00    +0.000 OA
ENDROOT
BRANCH   1  15
ATOM     11  C   UNL     1      -0.438  11.320  21.215  0.00  0.00    +0.000 A 
ATOM     12  C   UNL     1      -0.707  11.100  22.574  0.00  0.00    +0.000 A 
ATOM     13  C   UNL     1      -0.415   9.874  23.196  0.00  0.00    +0.000 A 
ATOM     14  C   UNL     1       0.193   8.827  22.488  0.00  0.00    +0.000 A 
ATOM     15  C   UNL     1       0.541   9.025  21.160  0.00  0.00    +0.000 A 
ATOM     16  C   UNL     1       0.181  10.249  20.553  0.00  0.00    +0.000 A 
BRANCH  11  17
ATOM     17  C   UNL     1      -0.784  12.682  20.418  0.00  0.00    +0.000 C 
ATOM     18  C   UNL     1       0.247  13.832  20.585  0.00  0.00    +0.000 C 
ATOM     19  O   UNL     1      -0.724  14.713  21.177  0.00  0.00    +0.000 OA
ATOM     20  C   UNL     1      -1.751  13.706  21.093  0.00  0.00    +0.000 C 
BRANCH  17  21
ATOM     21  C   UNL     1      -1.131  12.391  18.940  0.00  0.00    +0.000 C 
BRANCH  21  27
ATOM     22  C   UNL     1      -1.985  10.070  16.949  0.00  0.00    +0.000 C 
ATOM     23  N   UNL     1      -2.838  10.832  17.821  0.00  0.00    +0.000 N 
ATOM     24  C   UNL     1      -4.194  10.713  17.880  0.00  0.00    +0.000 A 
ATOM     25  N   UNL     1      -4.666  11.545  18.774  0.00  0.00    +0.000 NA
ATOM     26  N   UNL     1      -3.604  12.231  19.306  0.00  0.00    +0.000 NA
ATOM     27  C   UNL     1      -2.498  11.813  18.721  0.00  0.00    +0.000 A 
ENDBRANCH  21  27
ENDBRANCH  17  21
ENDBRANCH  11  17
ENDBRANCH   1  15
BRANCH   8  28
ATOM     28  C   UNL     1       2.005   3.752  20.976  0.00  0.00    +0.000 C 
ATOM     29  F   UNL     1       2.494   2.490  20.861  0.00  0.00    +0.000 F 
ATOM     30  F   UNL     1       2.400   4.183  22.207  0.00  0.00    +0.000 F 
ATOM     31  F   UNL     1       0.654   3.627  21.031  0.00  0.00    +0.000 F 
ENDBRANCH   8  28
BRANCH   6  32
ATOM     32  C   UNL     1       4.557   4.445  16.702  0.00  0.00    +0.000 C 
BRANCH  32  33
ATOM     33  N   UNL     1       4.888   5.418  15.646  0.00  0.00    +0.000 NA
ATOM     34  C   UNL     1       5.765   4.858  14.606  0.00  0.00    +0.000 C 
ATOM     35  C   UNL     1       7.219   4.611  15.046  0.00  0.00    +0.000 C 
ATOM     36  O   UNL     1       7.804   5.660  15.819  0.00  0.00    +0.000 OA
ATOM     37  C   UNL     1       6.907   6.376  16.700  0.00  0.00    +0.000 C 
ATOM     38  C   UNL     1       7.089   6.253  18.191  0.00  0.00    +0.000 C 
ATOM     39  C   UNL     1       7.642   7.449  17.477  0.00  0.00    +0.000 C 
ATOM     40  C   UNL     1       5.527   6.644  16.155  0.00  0.00    +0.000 C 
ENDBRANCH  32  33
ENDBRANCH   6  32
TORSDOF 7
ENDMDL
MODEL 9
REMARK VINA RESULT:     -10.2      2.378      3.549
REMARK  Name = 
REMARK  8 active torsions:
REMARK  status: ('A' for Active; 'I' for Inactive)
REMARK    1  A    between atoms: C_1  and  N_2
REMARK    2  A    between atoms: C_6  and  C_7
REMARK    3  A    between atoms: C_7  and  C_8
REMARK    4  A    between atoms: C_8  and  C_9
REMARK    5  A    between atoms: C_13  and  N_14
REMARK    6  A    between atoms: C_19  and  C_20
REMARK    7  A    between atoms: C_20  and  N_21
REMARK    8  A    between atoms: C_30  and  C_31
REMARK                            x       y       z     vdW  Elec       q    Type
REMARK                         _______ _______ _______ _____ _____    ______ ____
ROOT
ATOM      1  N   UNL     1       1.250   8.469  20.353  0.00  0.00    +0.000 N 
ATOM      2  C   UNL     1       1.477   7.147  20.895  0.00  0.00    +0.000 C 
ATOM      3  C   UNL     1       2.064   6.390  19.772  0.00  0.00    +0.000 A 
ATOM      4  C   UNL     1       2.339   7.244  18.705  0.00  0.00    +0.000 A 
ATOM      5  C   UNL     1       3.062   6.787  17.609  0.00  0.00    +0.000 A 
ATOM      6  C   UNL     1       3.488   5.438  17.603  0.00  0.00    +0.000 A 
ATOM      7  C   UNL     1       3.116   4.581  18.664  0.00  0.00    +0.000 A 
ATOM      8  C   UNL     1       2.387   5.040  19.762  0.00  0.00    +0.000 A 
ATOM      9  C   UNL     1       1.723   8.575  19.037  0.00  0.00    +0.000 C 
ATOM     10  O   UNL     1       1.670   9.515  18.265  0.00  0.00    +0.000 OA
ENDROOT
BRANCH   1  15
ATOM     11  C   UNL     1      -0.222  11.738  21.429  0.00  0.00    +0.000 A 
ATOM     12  C   UNL     1      -0.707  11.370  22.692  0.00  0.00    +0.000 A 
ATOM     13  C   UNL     1      -0.656  10.040  23.144  0.00  0.00    +0.000 A 
ATOM     14  C   UNL     1      -0.083   9.028  22.360  0.00  0.00    +0.000 A 
ATOM     15  C   UNL     1       0.473   9.359  21.134  0.00  0.00    +0.000 A 
ATOM     16  C   UNL     1       0.352  10.694  20.687  0.00  0.00    +0.000 A 
BRANCH  11  17
ATOM     17  C   UNL     1      -0.285  13.233  20.819  0.00  0.00    +0.000 C 
ATOM     18  C   UNL     1      -0.501  14.367  21.859  0.00  0.00    +0.000 C 
ATOM     19  O   UNL     1      -1.741  14.782  21.257  0.00  0.00    +0.000 OA
ATOM     20  C   UNL     1      -1.651  13.744  20.260  0.00  0.00    +0.000 C 
BRANCH  17  21
ATOM     21  C   UNL     1       0.906  13.500  19.872  0.00  0.00    +0.000 C 
BRANCH  21  27
ATOM     22  C   UNL     1       2.454  16.224  19.357  0.00  0.00    +0.000 C 
ATOM     23  N   UNL     1       2.810  15.176  20.275  0.00  0.00    +0.000 N 
ATOM     24  C   UNL     1       3.937  15.164  21.041  0.00  0.00    +0.000 A 
ATOM     25  N   UNL     1       3.960  14.072  21.764  0.00  0.00    +0.000 NA
ATOM     26  N   UNL     1       2.835  13.348  21.462  0.00  0.00    +0.000 NA
ATOM     27  C   UNL     1       2.144  14.005  20.550  0.00  0.00    +0.000 A 
ENDBRANCH  21  27
ENDBRANCH  17  21
ENDBRANCH  11  17
ENDBRANCH   1  15
BRANCH   8  28
ATOM     28  C   UNL     1       1.960   4.097  20.857  0.00  0.00    +0.000 C 
ATOM     29  F   UNL     1       2.408   4.453  22.088  0.00  0.00    +0.000 F 
ATOM     30  F   UNL     1       0.604   4.032  20.969  0.00  0.00    +0.000 F 
ATOM     31  F   UNL     1       2.388   2.824  20.656  0.00  0.00    +0.000 F 
ENDBRANCH   8  28
BRANCH   6  32
ATOM     32  C   UNL     1       4.396   4.849  16.526  0.00  0.00    +0.000 C 
BRANCH  32  33
ATOM     33  N   UNL     1       5.332   5.857  15.996  0.00  0.00    +0.000 NA
ATOM     34  C   UNL     1       6.260   5.307  14.995  0.00  0.00    +0.000 C 
ATOM     35  C   UNL     1       7.344   4.373  15.557  0.00  0.00    +0.000 C 
ATOM     36  O   UNL     1       7.967   4.823  16.762  0.00  0.00    +0.000 OA
ATOM     37  C   UNL     1       7.121   5.561  17.676  0.00  0.00    +0.000 C 
ATOM     38  C   UNL     1       6.782   4.956  19.014  0.00  0.00    +0.000 C 
ATOM     39  C   UNL     1       7.883   5.969  18.920  0.00  0.00    +0.000 C 
ATOM     40  C   UNL     1       6.141   6.513  17.039  0.00  0.00    +0.000 C 
ENDBRANCH  32  33
ENDBRANCH   6  32
TORSDOF 7
ENDMDL
