MODEL 1
REMARK VINA RESULT:      -9.1      0.000      0.000
REMARK  Name = 
REMARK  12 active torsions:
REMARK  status: ('A' for Active; 'I' for Inactive)
REMARK    1  A    between atoms: C_1  and  C_2
REMARK    2  A    between atoms: C_2  and  S_3
REMARK    3  A    between atoms: C_2  and  C_10
REMARK    4  A    between atoms: S_3  and  C_4
REMARK    5  A    between atoms: N_8  and  C_9
REMARK    6  A    between atoms: C_14  and  N_15
REMARK    7  A    between atoms: C_16  and  C_18
REMARK    8  A    between atoms: C_20  and  C_21
REMARK    9  A    between atoms: C_21  and  C_22
REMARK   10  A    between atoms: C_21  and  C_23
REMARK   11  A    between atoms: C_21  and  O_24
REMARK   12  A    between atoms: C_26  and  C_27
REMARK                            x       y       z     vdW  Elec       q    Type
REMARK                         _______ _______ _______ _____ _____    ______ ____
ROOT
ATOM      1  N   UNL     1       2.057   7.492  20.032  0.00  0.00    +0.000 N 
ATOM      2  C   UNL     1       2.510   7.385  18.726  0.00  0.00    +0.000 C 
ATOM      3  O   UNL     1       2.382   8.220  17.836  0.00  0.00    +0.000 OA
ATOM      4  H   UNL     1       2.349   6.743  20.656  0.00  0.00    +0.000 HD
ENDROOT
BRANCH   1   9
ATOM      5  C   UNL     1       0.112  10.667  20.191  0.00  0.00    +0.000 A 
ATOM      6  C   UNL     1      -0.168  10.733  21.565  0.00  0.00    +0.000 A 
ATOM      7  C   UNL     1       0.295   9.748  22.430  0.00  0.00    +0.000 A 
ATOM      8  C   UNL     1       1.033   8.676  21.936  0.00  0.00    +0.000 A 
ATOM      9  C   UNL     1       1.326   8.572  20.575  0.00  0.00    +0.000 A 
ATOM     10  C   UNL     1       0.884   9.586  19.711  0.00  0.00    +0.000 A 
BRANCH   5  12
ATOM     11  C   UNL     1       0.371  13.099  19.470  0.00  0.00    +0.000 C 
ATOM     12  C   UNL     1      -0.400  11.787  19.296  0.00  0.00    +0.000 C 
BRANCH  12  13
ATOM     13  S   UNL     1      -2.183  12.095  19.579  0.00  0.00    +0.000 S 
BRANCH  13  14
ATOM     14  C   UNL     1      -2.829  11.632  18.044  0.00  0.00    +0.000 A 
ATOM     15  N   UNL     1      -2.156  11.237  16.990  0.00  0.00    +0.000 NA
ATOM     16  N   UNL     1      -3.069  10.960  15.991  0.00  0.00    +0.000 NA
ATOM     17  C   UNL     1      -4.269  11.194  16.475  0.00  0.00    +0.000 A 
ATOM     18  N   UNL     1      -4.165  11.614  17.767  0.00  0.00    +0.000 N 
ATOM     19  C   UNL     1      -5.253  11.931  18.650  0.00  0.00    +0.000 C 
ENDBRANCH  13  14
ENDBRANCH  12  13
ENDBRANCH   5  12
ENDBRANCH   1   9
BRANCH   2  20
ATOM     20  C   UNL     1       3.249   6.122  18.413  0.00  0.00    +0.000 A 
ATOM     21  C   UNL     1       4.558   6.216  17.946  0.00  0.00    +0.000 A 
ATOM     22  C   UNL     1       5.273   5.053  17.657  0.00  0.00    +0.000 A 
ATOM     23  C   UNL     1       4.618   3.831  17.880  0.00  0.00    +0.000 A 
ATOM     24  C   UNL     1       3.296   3.802  18.348  0.00  0.00    +0.000 A 
ATOM     25  N   UNL     1       2.599   4.947  18.616  0.00  0.00    +0.000 NA
BRANCH  24  26
ATOM     26  C   UNL     1       2.608   2.460  18.575  0.00  0.00    +0.000 C 
ATOM     27  F   UNL     1       2.506   2.111  19.892  0.00  0.00    +0.000 F 
ATOM     28  F   UNL     1       1.334   2.431  18.089  0.00  0.00    +0.000 F 
ATOM     29  F   UNL     1       3.263   1.425  17.974  0.00  0.00    +0.000 F 
ENDBRANCH  24  26
BRANCH  22  30
ATOM     30  C   UNL     1       6.723   5.100  17.185  0.00  0.00    +0.000 C 
ATOM     31  C   UNL     1       6.933   4.655  15.729  0.00  0.00    +0.000 C 
ATOM     32  C   UNL     1       7.285   6.511  17.379  0.00  0.00    +0.000 C 
BRANCH  30  33
ATOM     33  O   UNL     1       7.497   4.220  18.009  0.00  0.00    +0.000 OA
ATOM     34  H   UNL     1       7.355   4.486  18.935  0.00  0.00    +0.000 HD
ENDBRANCH  30  33
ENDBRANCH  22  30
ENDBRANCH   2  20
TORSDOF 8
ENDMDL
MODEL 2
REMARK VINA RESULT:      -9.1      0.833      1.119
REMARK  Name = 
REMARK  12 active torsions:
REMARK  status: ('A' for Active; 'I' for Inactive)
REMARK    1  A    between atoms: C_1  and  C_2
REMARK    2  A    between atoms: C_2  and  S_3
REMARK    3  A    between atoms: C_2  and  C_10
REMARK    4  A    between atoms: S_3  and  C_4
REMARK    5  A    between atoms: N_8  and  C_9
REMARK    6  A    between atoms: C_14  and  N_15
REMARK    7  A    between atoms: C_16  and  C_18
REMARK    8  A    between atoms: C_20  and  C_21
REMARK    9  A    between atoms: C_21  and  C_22
REMARK   10  A    between atoms: C_21  and  C_23
REMARK   11  A    between atoms: C_21  and  O_24
REMARK   12  A    between atoms: C_26  and  C_27
REMARK                            x       y       z     vdW  Elec       q    Type
REMARK                         _______ _______ _______ _____ _____    ______ ____
ROOT
ATOM      1  N   UNL     1       1.834   7.651  19.793  0.00  0.00    +0.000 N 
ATOM      2  C   UNL     1       2.427   7.693  18.541  0.00  0.00    +0.000 C 
ATOM      3  O   UNL     1       2.516   8.670  17.803  0.00  0.00    +0.000 OA
ATOM      4  H   UNL     1       1.950   6.778  20.300  0.00  0.00    +0.000 HD
ENDROOT
BRANCH   1   9
ATOM      5  C   UNL     1      -0.001  10.863  20.255  0.00  0.00    +0.000 A 
ATOM      6  C   UNL     1      -0.157  10.875  21.650  0.00  0.00    +0.000 A 
ATOM      7  C   UNL     1       0.353   9.843  22.429  0.00  0.00    +0.000 A 
ATOM      8  C   UNL     1       1.015   8.776  21.828  0.00  0.00    +0.000 A 
ATOM      9  C   UNL     1       1.184   8.725  20.443  0.00  0.00    +0.000 A 
ATOM     10  C   UNL     1       0.696   9.786  19.664  0.00  0.00    +0.000 A 
BRANCH   5  12
ATOM     11  C   UNL     1       0.029  13.383  19.874  0.00  0.00    +0.000 C 
ATOM     12  C   UNL     1      -0.558  12.032  19.456  0.00  0.00    +0.000 C 
BRANCH  12  13
ATOM     13  S   UNL     1      -2.384  12.106  19.581  0.00  0.00    +0.000 S 
BRANCH  13  14
ATOM     14  C   UNL     1      -2.828  11.610  17.985  0.00  0.00    +0.000 A 
ATOM     15  N   UNL     1      -2.024  11.204  17.032  0.00  0.00    +0.000 NA
ATOM     16  N   UNL     1      -2.802  10.900  15.931  0.00  0.00    +0.000 NA
ATOM     17  C   UNL     1      -4.055  11.130  16.256  0.00  0.00    +0.000 A 
ATOM     18  N   UNL     1      -4.118  11.574  17.543  0.00  0.00    +0.000 N 
ATOM     19  C   UNL     1      -5.311  11.895  18.275  0.00  0.00    +0.000 C 
ENDBRANCH  13  14
ENDBRANCH  12  13
ENDBRANCH   5  12
ENDBRANCH   1   9
BRANCH   2  20
ATOM     20  C   UNL     1       3.035   6.403  18.085  0.00  0.00    +0.000 A 
ATOM     21  C   UNL     1       4.272   6.441  17.447  0.00  0.00    +0.000 A 
ATOM     22  C   UNL     1       4.866   5.251  17.022  0.00  0.00    +0.000 A 
ATOM     23  C   UNL     1       4.168   4.061  17.288  0.00  0.00    +0.000 A 
ATOM     24  C   UNL     1       2.921   4.090  17.930  0.00  0.00    +0.000 A 
ATOM     25  N   UNL     1       2.342   5.262  18.331  0.00  0.00    +0.000 NA
BRANCH  24  26
ATOM     26  C   UNL     1       2.184   2.782  18.199  0.00  0.00    +0.000 C 
ATOM     27  F   UNL     1       0.826   2.918  18.253  0.00  0.00    +0.000 F 
ATOM     28  F   UNL     1       2.420   1.838  17.244  0.00  0.00    +0.000 F 
ATOM     29  F   UNL     1       2.541   2.212  19.386  0.00  0.00    +0.000 F 
ENDBRANCH  24  26
BRANCH  22  30
ATOM     30  C   UNL     1       6.240   5.232  16.360  0.00  0.00    +0.000 C 
ATOM     31  C   UNL     1       7.342   4.566  17.199  0.00  0.00    +0.000 C 
ATOM     32  C   UNL     1       6.146   4.545  14.994  0.00  0.00    +0.000 C 
BRANCH  30  33
ATOM     33  O   UNL     1       6.649   6.585  16.126  0.00  0.00    +0.000 OA
ATOM     34  H   UNL     1       5.960   7.166  16.493  0.00  0.00    +0.000 HD
ENDBRANCH  30  33
ENDBRANCH  22  30
ENDBRANCH   2  20
TORSDOF 8
ENDMDL
MODEL 3
REMARK VINA RESULT:      -9.0      2.144      3.130
REMARK  Name = 
REMARK  12 active torsions:
REMARK  status: ('A' for Active; 'I' for Inactive)
REMARK    1  A    between atoms: C_1  and  C_2
REMARK    2  A    between atoms: C_2  and  S_3
REMARK    3  A    between atoms: C_2  and  C_10
REMARK    4  A    between atoms: S_3  and  C_4
REMARK    5  A    between atoms: N_8  and  C_9
REMARK    6  A    between atoms: C_14  and  N_15
REMARK    7  A    between atoms: C_16  and  C_18
REMARK    8  A    between atoms: C_20  and  C_21
REMARK    9  A    between atoms: C_21  and  C_22
REMARK   10  A    between atoms: C_21  and  C_23
REMARK   11  A    between atoms: C_21  and  O_24
REMARK   12  A    between atoms: C_26  and  C_27
REMARK                            x       y       z     vdW  Elec       q    Type
REMARK                         _______ _______ _______ _____ _____    ______ ____
ROOT
ATOM      1  N   UNL     1       2.241   7.516  20.079  0.00  0.00    +0.000 N 
ATOM      2  C   UNL     1       2.585   7.262  18.761  0.00  0.00    +0.000 C 
ATOM      3  O   UNL     1       2.196   7.872  17.770  0.00  0.00    +0.000 OA
ATOM      4  H   UNL     1       2.746   6.971  20.773  0.00  0.00    +0.000 HD
ENDROOT
BRANCH   1   9
ATOM      5  C   UNL     1       0.044  10.527  20.021  0.00  0.00    +0.000 A 
ATOM      6  C   UNL     1      -0.474  10.497  21.326  0.00  0.00    +0.000 A 
ATOM      7  C   UNL     1      -0.088   9.504  22.218  0.00  0.00    +0.000 A 
ATOM      8  C   UNL     1       0.810   8.517  21.819  0.00  0.00    +0.000 A 
ATOM      9  C   UNL     1       1.341   8.509  20.528  0.00  0.00    +0.000 A 
ATOM     10  C   UNL     1       0.973   9.533  19.641  0.00  0.00    +0.000 A 
BRANCH   5  12
ATOM     11  C   UNL     1       0.506  12.886  19.175  0.00  0.00    +0.000 C 
ATOM     12  C   UNL     1      -0.396  11.653  19.097  0.00  0.00    +0.000 C 
BRANCH  12  13
ATOM     13  S   UNL     1      -2.126  12.150  19.439  0.00  0.00    +0.000 S 
BRANCH  13  14
ATOM     14  C   UNL     1      -2.888  11.671  17.963  0.00  0.00    +0.000 A 
ATOM     15  N   UNL     1      -2.298  11.280  16.859  0.00  0.00    +0.000 NA
ATOM     16  N   UNL     1      -3.285  10.985  15.939  0.00  0.00    +0.000 NA
ATOM     17  C   UNL     1      -4.445  11.206  16.519  0.00  0.00    +0.000 A 
ATOM     18  N   UNL     1      -4.242  11.634  17.796  0.00  0.00    +0.000 N 
ATOM     19  C   UNL     1      -5.258  11.941  18.764  0.00  0.00    +0.000 C 
ENDBRANCH  13  14
ENDBRANCH  12  13
ENDBRANCH   5  12
ENDBRANCH   1   9
BRANCH   2  20
ATOM     20  C   UNL     1       3.554   6.138  18.565  0.00  0.00    +0.000 A 
ATOM     21  C   UNL     1       3.300   4.923  19.197  0.00  0.00    +0.000 A 
ATOM     22  C   UNL     1       4.182   3.855  19.022  0.00  0.00    +0.000 A 
ATOM     23  C   UNL     1       5.288   4.075  18.184  0.00  0.00    +0.000 A 
ATOM     24  C   UNL     1       5.492   5.324  17.579  0.00  0.00    +0.000 A 
ATOM     25  N   UNL     1       4.629   6.367  17.767  0.00  0.00    +0.000 NA
BRANCH  24  26
ATOM     26  C   UNL     1       6.705   5.533  16.678  0.00  0.00    +0.000 C 
ATOM     27  F   UNL     1       6.385   5.739  15.367  0.00  0.00    +0.000 F 
ATOM     28  F   UNL     1       7.455   6.612  17.046  0.00  0.00    +0.000 F 
ATOM     29  F   UNL     1       7.555   4.466  16.684  0.00  0.00    +0.000 F 
ENDBRANCH  24  26
BRANCH  22  30
ATOM     30  C   UNL     1       3.926   2.492  19.656  0.00  0.00    +0.000 C 
ATOM     31  C   UNL     1       2.994   2.522  20.877  0.00  0.00    +0.000 C 
ATOM     32  C   UNL     1       3.366   1.530  18.603  0.00  0.00    +0.000 C 
BRANCH  30  33
ATOM     33  O   UNL     1       5.179   1.954  20.096  0.00  0.00    +0.000 OA
ATOM     34  H   UNL     1       5.885   2.467  19.665  0.00  0.00    +0.000 HD
ENDBRANCH  30  33
ENDBRANCH  22  30
ENDBRANCH   2  20
TORSDOF 8
ENDMDL
MODEL 4
REMARK VINA RESULT:      -9.0      2.273      3.282
REMARK  Name = 
REMARK  12 active torsions:
REMARK  status: ('A' for Active; 'I' for Inactive)
REMARK    1  A    between atoms: C_1  and  C_2
REMARK    2  A    between atoms: C_2  and  S_3
REMARK    3  A    between atoms: C_2  and  C_10
REMARK    4  A    between atoms: S_3  and  C_4
REMARK    5  A    between atoms: N_8  and  C_9
REMARK    6  A    between atoms: C_14  and  N_15
REMARK    7  A    between atoms: C_16  and  C_18
REMARK    8  A    between atoms: C_20  and  C_21
REMARK    9  A    between atoms: C_21  and  C_22
REMARK   10  A    between atoms: C_21  and  C_23
REMARK   11  A    between atoms: C_21  and  O_24
REMARK   12  A    between atoms: C_26  and  C_27
REMARK                            x       y       z     vdW  Elec       q    Type
REMARK                         _______ _______ _______ _____ _____    ______ ____
ROOT
ATOM      1  N   UNL     1       2.065   8.675  17.863  0.00  0.00    +0.000 N 
ATOM      2  C   UNL     1       2.290   7.654  18.773  0.00  0.00    +0.000 C 
ATOM      3  O   UNL     1       2.059   7.682  19.979  0.00  0.00    +0.000 OA
ATOM      4  H   UNL     1       2.221   8.431  16.889  0.00  0.00    +0.000 HD
ENDROOT
BRANCH   1   9
ATOM      5  C   UNL     1      -0.337  11.340  18.875  0.00  0.00    +0.000 A 
ATOM      6  C   UNL     1       0.490  12.473  18.812  0.00  0.00    +0.000 A 
ATOM      7  C   UNL     1       1.819  12.359  18.424  0.00  0.00    +0.000 A 
ATOM      8  C   UNL     1       2.350  11.112  18.105  0.00  0.00    +0.000 A 
ATOM      9  C   UNL     1       1.561   9.961  18.162  0.00  0.00    +0.000 A 
ATOM     10  C   UNL     1       0.211  10.086  18.524  0.00  0.00    +0.000 A 
BRANCH   5  12
ATOM     11  C   UNL     1      -2.777  11.272  18.141  0.00  0.00    +0.000 C 
ATOM     12  C   UNL     1      -1.790  11.529  19.283  0.00  0.00    +0.000 C 
BRANCH  12  13
ATOM     13  S   UNL     1      -2.074  13.210  19.955  0.00  0.00    +0.000 S 
BRANCH  13  14
ATOM     14  C   UNL     1      -2.994  12.831  21.369  0.00  0.00    +0.000 A 
ATOM     15  N   UNL     1      -4.298  12.729  21.459  0.00  0.00    +0.000 NA
ATOM     16  N   UNL     1      -4.602  12.403  22.767  0.00  0.00    +0.000 NA
ATOM     17  C   UNL     1      -3.468  12.317  23.427  0.00  0.00    +0.000 A 
ATOM     18  N   UNL     1      -2.429  12.573  22.584  0.00  0.00    +0.000 N 
ATOM     19  C   UNL     1      -1.033  12.537  22.918  0.00  0.00    +0.000 C 
ENDBRANCH  13  14
ENDBRANCH  12  13
ENDBRANCH   5  12
ENDBRANCH   1   9
BRANCH   2  20
ATOM     20  C   UNL     1       2.846   6.394  18.187  0.00  0.00    +0.000 A 
ATOM     21  C   UNL     1       3.981   6.478  17.385  0.00  0.00    +0.000 A 
ATOM     22  C   UNL     1       4.526   5.317  16.835  0.00  0.00    +0.000 A 
ATOM     23  C   UNL     1       3.889   4.105  17.148  0.00  0.00    +0.000 A 
ATOM     24  C   UNL     1       2.744   4.086  17.959  0.00  0.00    +0.000 A 
ATOM     25  N   UNL     1       2.210   5.231  18.482  0.00  0.00    +0.000 NA
BRANCH  24  26
ATOM     26  C   UNL     1       2.071   2.755  18.277  0.00  0.00    +0.000 C 
ATOM     27  F   UNL     1       2.413   2.245  19.497  0.00  0.00    +0.000 F 
ATOM     28  F   UNL     1       0.709   2.841  18.285  0.00  0.00    +0.000 F 
ATOM     29  F   UNL     1       2.379   1.780  17.375  0.00  0.00    +0.000 F 
ENDBRANCH  24  26
BRANCH  22  30
ATOM     30  C   UNL     1       5.794   5.349  15.987  0.00  0.00    +0.000 C 
ATOM     31  C   UNL     1       7.093   5.519  16.791  0.00  0.00    +0.000 C 
ATOM     32  C   UNL     1       5.877   4.080  15.134  0.00  0.00    +0.000 C 
BRANCH  30  33
ATOM     33  O   UNL     1       5.708   6.459  15.086  0.00  0.00    +0.000 OA
ATOM     34  H   UNL     1       5.357   7.216  15.588  0.00  0.00    +0.000 HD
ENDBRANCH  30  33
ENDBRANCH  22  30
ENDBRANCH   2  20
TORSDOF 8
ENDMDL
MODEL 5
REMARK VINA RESULT:      -8.9      1.245      1.583
REMARK  Name = 
REMARK  12 active torsions:
REMARK  status: ('A' for Active; 'I' for Inactive)
REMARK    1  A    between atoms: C_1  and  C_2
REMARK    2  A    between atoms: C_2  and  S_3
REMARK    3  A    between atoms: C_2  and  C_10
REMARK    4  A    between atoms: S_3  and  C_4
REMARK    5  A    between atoms: N_8  and  C_9
REMARK    6  A    between atoms: C_14  and  N_15
REMARK    7  A    between atoms: C_16  and  C_18
REMARK    8  A    between atoms: C_20  and  C_21
REMARK    9  A    between atoms: C_21  and  C_22
REMARK   10  A    between atoms: C_21  and  C_23
REMARK   11  A    between atoms: C_21  and  O_24
REMARK   12  A    between atoms: C_26  and  C_27
REMARK                            x       y       z     vdW  Elec       q    Type
REMARK                         _______ _______ _______ _____ _____    ______ ____
ROOT
ATOM      1  N   UNL     1       1.000   7.845  20.832  0.00  0.00    +0.000 N 
ATOM      2  C   UNL     1       1.857   7.745  19.747  0.00  0.00    +0.000 C 
ATOM      3  O   UNL     1       2.216   8.658  19.010  0.00  0.00    +0.000 OA
ATOM      4  H   UNL     1       0.902   7.000  21.388  0.00  0.00    +0.000 HD
ENDROOT
BRANCH   1   9
ATOM      5  C   UNL     1      -0.746  11.136  20.691  0.00  0.00    +0.000 A 
ATOM      6  C   UNL     1      -0.996  11.356  22.055  0.00  0.00    +0.000 A 
ATOM      7  C   UNL     1      -0.579  10.437  23.009  0.00  0.00    +0.000 A 
ATOM      8  C   UNL     1       0.084   9.276  22.618  0.00  0.00    +0.000 A 
ATOM      9  C   UNL     1       0.346   9.018  21.271  0.00  0.00    +0.000 A 
ATOM     10  C   UNL     1      -0.049   9.966  20.314  0.00  0.00    +0.000 A 
BRANCH   5  12
ATOM     11  C   UNL     1      -0.858  13.618  20.122  0.00  0.00    +0.000 C 
ATOM     12  C   UNL     1      -1.204  12.190  19.693  0.00  0.00    +0.000 C 
BRANCH  12  13
ATOM     13  S   UNL     1      -3.007  12.073  19.391  0.00  0.00    +0.000 S 
BRANCH  13  14
ATOM     14  C   UNL     1      -3.015  11.432  17.786  0.00  0.00    +0.000 A 
ATOM     15  N   UNL     1      -2.028  10.827  17.172  0.00  0.00    +0.000 NA
ATOM     16  N   UNL     1      -2.473  10.473  15.913  0.00  0.00    +0.000 NA
ATOM     17  C   UNL     1      -3.721  10.875  15.806  0.00  0.00    +0.000 A 
ATOM     18  N   UNL     1      -4.104  11.479  16.965  0.00  0.00    +0.000 N 
ATOM     19  C   UNL     1      -5.405  12.015  17.256  0.00  0.00    +0.000 C 
ENDBRANCH  13  14
ENDBRANCH  12  13
ENDBRANCH   5  12
ENDBRANCH   1   9
BRANCH   2  20
ATOM     20  C   UNL     1       2.402   6.374  19.496  0.00  0.00    +0.000 A 
ATOM     21  C   UNL     1       3.607   6.254  18.807  0.00  0.00    +0.000 A 
ATOM     22  C   UNL     1       4.143   4.987  18.569  0.00  0.00    +0.000 A 
ATOM     23  C   UNL     1       3.424   3.888  19.069  0.00  0.00    +0.000 A 
ATOM     24  C   UNL     1       2.213   4.075  19.751  0.00  0.00    +0.000 A 
ATOM     25  N   UNL     1       1.690   5.319  19.967  0.00  0.00    +0.000 NA
BRANCH  24  26
ATOM     26  C   UNL     1       1.453   2.861  20.276  0.00  0.00    +0.000 C 
ATOM     27  F   UNL     1       0.224   2.694  19.704  0.00  0.00    +0.000 F 
ATOM     28  F   UNL     1       2.118   1.689  20.064  0.00  0.00    +0.000 F 
ATOM     29  F   UNL     1       1.224   2.925  21.619  0.00  0.00    +0.000 F 
ENDBRANCH  24  26
BRANCH  22  30
ATOM     30  C   UNL     1       5.481   4.803  17.860  0.00  0.00    +0.000 C 
ATOM     31  C   UNL     1       5.376   4.190  16.454  0.00  0.00    +0.000 C 
ATOM     32  C   UNL     1       6.215   6.145  17.784  0.00  0.00    +0.000 C 
BRANCH  30  33
ATOM     33  O   UNL     1       6.292   3.920  18.643  0.00  0.00    +0.000 OA
ATOM     34  H   UNL     1       7.213   4.031  18.349  0.00  0.00    +0.000 HD
ENDBRANCH  30  33
ENDBRANCH  22  30
ENDBRANCH   2  20
TORSDOF 8
ENDMDL
MODEL 6
REMARK VINA RESULT:      -8.9      4.382      9.130
REMARK  Name = 
REMARK  12 active torsions:
REMARK  status: ('A' for Active; 'I' for Inactive)
REMARK    1  A    between atoms: C_1  and  C_2
REMARK    2  A    between atoms: C_2  and  S_3
REMARK    3  A    between atoms: C_2  and  C_10
REMARK    4  A    between atoms: S_3  and  C_4
REMARK    5  A    between atoms: N_8  and  C_9
REMARK    6  A    between atoms: C_14  and  N_15
REMARK    7  A    between atoms: C_16  and  C_18
REMARK    8  A    between atoms: C_20  and  C_21
REMARK    9  A    between atoms: C_21  and  C_22
REMARK   10  A    between atoms: C_21  and  C_23
REMARK   11  A    between atoms: C_21  and  O_24
REMARK   12  A    between atoms: C_26  and  C_27
REMARK                            x       y       z     vdW  Elec       q    Type
REMARK                         _______ _______ _______ _____ _____    ______ ____
ROOT
ATOM      1  N   UNL     1       2.110   7.169  18.981  0.00  0.00    +0.000 N 
ATOM      2  C   UNL     1       1.952   8.421  18.407  0.00  0.00    +0.000 C 
ATOM      3  O   UNL     1       2.161   8.723  17.236  0.00  0.00    +0.000 OA
ATOM      4  H   UNL     1       1.786   7.087  19.941  0.00  0.00    +0.000 HD
ENDROOT
BRANCH   1   9
ATOM      5  C   UNL     1       4.277   4.965  16.898  0.00  0.00    +0.000 A 
ATOM      6  C   UNL     1       3.607   3.739  17.032  0.00  0.00    +0.000 A 
ATOM      7  C   UNL     1       2.445   3.646  17.788  0.00  0.00    +0.000 A 
ATOM      8  C   UNL     1       1.939   4.772  18.433  0.00  0.00    +0.000 A 
ATOM      9  C   UNL     1       2.581   6.008  18.328  0.00  0.00    +0.000 A 
ATOM     10  C   UNL     1       3.736   6.102  17.537  0.00  0.00    +0.000 A 
BRANCH   5  12
ATOM     11  C   UNL     1       5.475   4.063  14.836  0.00  0.00    +0.000 C 
ATOM     12  C   UNL     1       5.531   5.012  16.037  0.00  0.00    +0.000 C 
BRANCH  12  13
ATOM     13  S   UNL     1       7.026   4.639  17.027  0.00  0.00    +0.000 S 
BRANCH  13  14
ATOM     14  C   UNL     1       7.516   6.237  17.470  0.00  0.00    +0.000 A 
ATOM     15  N   UNL     1       7.480   7.311  16.719  0.00  0.00    +0.000 NA
ATOM     16  N   UNL     1       7.954   8.366  17.475  0.00  0.00    +0.000 NA
ATOM     17  C   UNL     1       8.259   7.894  18.665  0.00  0.00    +0.000 A 
ATOM     18  N   UNL     1       7.994   6.559  18.707  0.00  0.00    +0.000 N 
ATOM     19  C   UNL     1       8.156   5.694  19.842  0.00  0.00    +0.000 C 
ENDBRANCH  13  14
ENDBRANCH  12  13
ENDBRANCH   5  12
ENDBRANCH   1   9
BRANCH   2  20
ATOM     20  C   UNL     1       1.446   9.483  19.333  0.00  0.00    +0.000 A 
ATOM     21  C   UNL     1       1.529  10.813  18.928  0.00  0.00    +0.000 A 
ATOM     22  C   UNL     1       1.054  11.821  19.769  0.00  0.00    +0.000 A 
ATOM     23  C   UNL     1       0.493  11.418  20.992  0.00  0.00    +0.000 A 
ATOM     24  C   UNL     1       0.443  10.062  21.345  0.00  0.00    +0.000 A 
ATOM     25  N   UNL     1       0.922   9.082  20.520  0.00  0.00    +0.000 NA
BRANCH  24  26
ATOM     26  C   UNL     1      -0.168   9.656  22.682  0.00  0.00    +0.000 C 
ATOM     27  F   UNL     1       0.758   9.362  23.642  0.00  0.00    +0.000 F 
ATOM     28  F   UNL     1      -0.956  10.631  23.220  0.00  0.00    +0.000 F 
ATOM     29  F   UNL     1      -0.957   8.547  22.585  0.00  0.00    +0.000 F 
ENDBRANCH  24  26
BRANCH  22  30
ATOM     30  C   UNL     1       1.080  13.289  19.354  0.00  0.00    +0.000 C 
ATOM     31  C   UNL     1       2.127  13.628  18.281  0.00  0.00    +0.000 C 
ATOM     32  C   UNL     1      -0.309  13.714  18.872  0.00  0.00    +0.000 C 
BRANCH  30  33
ATOM     33  O   UNL     1       1.389  14.080  20.508  0.00  0.00    +0.000 OA
ATOM     34  H   UNL     1       0.932  14.934  20.407  0.00  0.00    +0.000 HD
ENDBRANCH  30  33
ENDBRANCH  22  30
ENDBRANCH   2  20
TORSDOF 8
ENDMDL
MODEL 7
REMARK VINA RESULT:      -8.9      1.814      2.219
REMARK  Name = 
REMARK  12 active torsions:
REMARK  status: ('A' for Active; 'I' for Inactive)
REMARK    1  A    between atoms: C_1  and  C_2
REMARK    2  A    between atoms: C_2  and  S_3
REMARK    3  A    between atoms: C_2  and  C_10
REMARK    4  A    between atoms: S_3  and  C_4
REMARK    5  A    between atoms: N_8  and  C_9
REMARK    6  A    between atoms: C_14  and  N_15
REMARK    7  A    between atoms: C_16  and  C_18
REMARK    8  A    between atoms: C_20  and  C_21
REMARK    9  A    between atoms: C_21  and  C_22
REMARK   10  A    between atoms: C_21  and  C_23
REMARK   11  A    between atoms: C_21  and  O_24
REMARK   12  A    between atoms: C_26  and  C_27
REMARK                            x       y       z     vdW  Elec       q    Type
REMARK                         _______ _______ _______ _____ _____    ______ ____
ROOT
ATOM      1  N   UNL     1       2.156   8.782  17.842  0.00  0.00    +0.000 N 
ATOM      2  C   UNL     1       2.272   7.747  18.757  0.00  0.00    +0.000 C 
ATOM      3  O   UNL     1       1.919   7.765  19.933  0.00  0.00    +0.000 OA
ATOM      4  H   UNL     1       2.407   8.546  16.885  0.00  0.00    +0.000 HD
ENDROOT
BRANCH   1   9
ATOM      5  C   UNL     1      -0.307  11.480  18.579  0.00  0.00    +0.000 A 
ATOM      6  C   UNL     1       0.545  12.593  18.669  0.00  0.00    +0.000 A 
ATOM      7  C   UNL     1       1.914  12.455  18.472  0.00  0.00    +0.000 A 
ATOM      8  C   UNL     1       2.457  11.203  18.195  0.00  0.00    +0.000 A 
ATOM      9  C   UNL     1       1.643  10.071  18.104  0.00  0.00    +0.000 A 
ATOM     10  C   UNL     1       0.258  10.223  18.272  0.00  0.00    +0.000 A 
BRANCH   5  12
ATOM     11  C   UNL     1      -2.151  12.231  20.171  0.00  0.00    +0.000 C 
ATOM     12  C   UNL     1      -1.800  11.697  18.780  0.00  0.00    +0.000 C 
BRANCH  12  13
ATOM     13  S   UNL     1      -2.738  10.154  18.473  0.00  0.00    +0.000 S 
BRANCH  13  14
ATOM     14  C   UNL     1      -3.033  10.298  16.776  0.00  0.00    +0.000 A 
ATOM     15  N   UNL     1      -2.359   9.730  15.805  0.00  0.00    +0.000 NA
ATOM     16  N   UNL     1      -2.943  10.110  14.612  0.00  0.00    +0.000 NA
ATOM     17  C   UNL     1      -3.956  10.897  14.901  0.00  0.00    +0.000 A 
ATOM     18  N   UNL     1      -4.053  11.038  16.252  0.00  0.00    +0.000 N 
ATOM     19  C   UNL     1      -5.053  11.787  16.961  0.00  0.00    +0.000 C 
ENDBRANCH  13  14
ENDBRANCH  12  13
ENDBRANCH   5  12
ENDBRANCH   1   9
BRANCH   2  20
ATOM     20  C   UNL     1       2.866   6.485  18.214  0.00  0.00    +0.000 A 
ATOM     21  C   UNL     1       4.030   6.571  17.454  0.00  0.00    +0.000 A 
ATOM     22  C   UNL     1       4.611   5.408  16.946  0.00  0.00    +0.000 A 
ATOM     23  C   UNL     1       3.978   4.193  17.257  0.00  0.00    +0.000 A 
ATOM     24  C   UNL     1       2.804   4.172  18.024  0.00  0.00    +0.000 A 
ATOM     25  N   UNL     1       2.236   5.318  18.507  0.00  0.00    +0.000 NA
BRANCH  24  26
ATOM     26  C   UNL     1       2.137   2.837  18.340  0.00  0.00    +0.000 C 
ATOM     27  F   UNL     1       2.459   2.342  19.571  0.00  0.00    +0.000 F 
ATOM     28  F   UNL     1       0.775   2.911  18.320  0.00  0.00    +0.000 F 
ATOM     29  F   UNL     1       2.474   1.858  17.453  0.00  0.00    +0.000 F 
ENDBRANCH  24  26
BRANCH  22  30
ATOM     30  C   UNL     1       5.909   5.444  16.146  0.00  0.00    +0.000 C 
ATOM     31  C   UNL     1       7.122   5.980  16.924  0.00  0.00    +0.000 C 
ATOM     32  C   UNL     1       6.221   4.045  15.606  0.00  0.00    +0.000 C 
BRANCH  30  33
ATOM     33  O   UNL     1       5.722   6.302  15.015  0.00  0.00    +0.000 OA
ATOM     34  H   UNL     1       4.931   5.991  14.540  0.00  0.00    +0.000 HD
ENDBRANCH  30  33
ENDBRANCH  22  30
ENDBRANCH   2  20
TORSDOF 8
ENDMDL
MODEL 8
REMARK VINA RESULT:      -8.8      2.206      3.154
REMARK  Name = 
REMARK  12 active torsions:
REMARK  status: ('A' for Active; 'I' for Inactive)
REMARK    1  A    between atoms: C_1  and  C_2
REMARK    2  A    between atoms: C_2  and  S_3
REMARK    3  A    between atoms: C_2  and  C_10
REMARK    4  A    between atoms: S_3  and  C_4
REMARK    5  A    between atoms: N_8  and  C_9
REMARK    6  A    between atoms: C_14  and  N_15
REMARK    7  A    between atoms: C_16  and  C_18
REMARK    8  A    between atoms: C_20  and  C_21
REMARK    9  A    between atoms: C_21  and  C_22
REMARK   10  A    between atoms: C_21  and  C_23
REMARK   11  A    between atoms: C_21  and  O_24
REMARK   12  A    between atoms: C_26  and  C_27
REMARK                            x       y       z     vdW  Elec       q    Type
REMARK                         _______ _______ _______ _____ _____    ______ ____
ROOT
ATOM      1  N   UNL     1       2.063   7.515  19.684  0.00  0.00    +0.000 N 
ATOM      2  C   UNL     1       2.592   7.512  18.402  0.00  0.00    +0.000 C 
ATOM      3  O   UNL     1       2.579   8.441  17.601  0.00  0.00    +0.000 OA
ATOM      4  H   UNL     1       2.263   6.687  20.239  0.00  0.00    +0.000 HD
ENDROOT
BRANCH   1   9
ATOM      5  C   UNL     1       0.151  10.695  20.038  0.00  0.00    +0.000 A 
ATOM      6  C   UNL     1      -0.050  10.725  21.427  0.00  0.00    +0.000 A 
ATOM      7  C   UNL     1       0.455   9.715  22.238  0.00  0.00    +0.000 A 
ATOM      8  C   UNL     1       1.157   8.652  21.674  0.00  0.00    +0.000 A 
ATOM      9  C   UNL     1       1.371   8.584  20.296  0.00  0.00    +0.000 A 
ATOM     10  C   UNL     1       0.887   9.624  19.486  0.00  0.00    +0.000 A 
BRANCH   5  12
ATOM     11  C   UNL     1       0.308  13.173  19.459  0.00  0.00    +0.000 C 
ATOM     12  C   UNL     1      -0.403  11.841  19.204  0.00  0.00    +0.000 C 
BRANCH  12  13
ATOM     13  S   UNL     1      -2.200  12.056  19.489  0.00  0.00    +0.000 S 
BRANCH  13  14
ATOM     14  C   UNL     1      -2.820  11.595  17.943  0.00  0.00    +0.000 A 
ATOM     15  N   UNL     1      -2.128  11.234  16.889  0.00  0.00    +0.000 NA
ATOM     16  N   UNL     1      -3.025  10.944  15.879  0.00  0.00    +0.000 NA
ATOM     17  C   UNL     1      -4.235  11.138  16.357  0.00  0.00    +0.000 A 
ATOM     18  N   UNL     1      -4.153  11.543  17.655  0.00  0.00    +0.000 N 
ATOM     19  C   UNL     1      -5.256  11.818  18.532  0.00  0.00    +0.000 C 
ENDBRANCH  13  14
ENDBRANCH  12  13
ENDBRANCH   5  12
ENDBRANCH   1   9
BRANCH   2  20
ATOM     20  C   UNL     1       3.265   6.237  17.999  0.00  0.00    +0.000 A 
ATOM     21  C   UNL     1       2.697   5.030  18.398  0.00  0.00    +0.000 A 
ATOM     22  C   UNL     1       3.299   3.826  18.026  0.00  0.00    +0.000 A 
ATOM     23  C   UNL     1       4.458   3.912  17.237  0.00  0.00    +0.000 A 
ATOM     24  C   UNL     1       4.984   5.160  16.871  0.00  0.00    +0.000 A 
ATOM     25  N   UNL     1       4.395   6.333  17.251  0.00  0.00    +0.000 NA
BRANCH  24  26
ATOM     26  C   UNL     1       6.248   5.221  16.018  0.00  0.00    +0.000 C 
ATOM     27  F   UNL     1       7.099   6.229  16.370  0.00  0.00    +0.000 F 
ATOM     28  F   UNL     1       6.986   4.076  16.086  0.00  0.00    +0.000 F 
ATOM     29  F   UNL     1       5.980   5.416  14.694  0.00  0.00    +0.000 F 
ENDBRANCH  24  26
BRANCH  22  30
ATOM     30  C   UNL     1       2.693   2.477  18.399  0.00  0.00    +0.000 C 
ATOM     31  C   UNL     1       3.721   1.406  18.797  0.00  0.00    +0.000 C 
ATOM     32  C   UNL     1       1.677   2.663  19.531  0.00  0.00    +0.000 C 
BRANCH  30  33
ATOM     33  O   UNL     1       1.977   1.972  17.266  0.00  0.00    +0.000 OA
ATOM     34  H   UNL     1       1.606   1.108  17.516  0.00  0.00    +0.000 HD
ENDBRANCH  30  33
ENDBRANCH  22  30
ENDBRANCH   2  20
TORSDOF 8
ENDMDL
MODEL 9
REMARK VINA RESULT:      -8.8      1.290      1.474
REMARK  Name = 
REMARK  12 active torsions:
REMARK  status: ('A' for Active; 'I' for Inactive)
REMARK    1  A    between atoms: C_1  and  C_2
REMARK    2  A    between atoms: C_2  and  S_3
REMARK    3  A    between atoms: C_2  and  C_10
REMARK    4  A    between atoms: S_3  and  C_4
REMARK    5  A    between atoms: N_8  and  C_9
REMARK    6  A    between atoms: C_14  and  N_15
REMARK    7  A    between atoms: C_16  and  C_18
REMARK    8  A    between atoms: C_20  and  C_21
REMARK    9  A    between atoms: C_21  and  C_22
REMARK   10  A    between atoms: C_21  and  C_23
REMARK   11  A    between atoms: C_21  and  O_24
REMARK   12  A    between atoms: C_26  and  C_27
REMARK                            x       y       z     vdW  Elec       q    Type
REMARK                         _______ _______ _______ _____ _____    ______ ____
ROOT
ATOM      1  N   UNL     1       2.175   7.569  20.034  0.00  0.00    +0.000 N 
ATOM      2  C   UNL     1       1.994   6.219  20.291  0.00  0.00    +0.000 C 
ATOM      3  O   UNL     1       1.107   5.715  20.974  0.00  0.00    +0.000 OA
ATOM      4  H   UNL     1       2.903   7.789  19.360  0.00  0.00    +0.000 HD
ENDROOT
BRANCH   1   9
ATOM      5  C   UNL     1       0.041  10.624  20.096  0.00  0.00    +0.000 A 
ATOM      6  C   UNL     1      -0.217  10.734  21.472  0.00  0.00    +0.000 A 
ATOM      7  C   UNL     1       0.322   9.819  22.369  0.00  0.00    +0.000 A 
ATOM      8  C   UNL     1       1.116   8.772  21.906  0.00  0.00    +0.000 A 
ATOM      9  C   UNL     1       1.389   8.626  20.544  0.00  0.00    +0.000 A 
ATOM     10  C   UNL     1       0.869   9.572  19.647  0.00  0.00    +0.000 A 
BRANCH   5  12
ATOM     11  C   UNL     1       0.371  12.864  18.925  0.00  0.00    +0.000 C 
ATOM     12  C   UNL     1      -0.556  11.670  19.165  0.00  0.00    +0.000 C 
BRANCH  12  13
ATOM     13  S   UNL     1      -2.165  12.275  19.797  0.00  0.00    +0.000 S 
BRANCH  13  14
ATOM     14  C   UNL     1      -3.204  11.824  18.491  0.00  0.00    +0.000 A 
ATOM     15  N   UNL     1      -2.843  11.393  17.306  0.00  0.00    +0.000 NA
ATOM     16  N   UNL     1      -3.994  11.143  16.584  0.00  0.00    +0.000 NA
ATOM     17  C   UNL     1      -5.018  11.429  17.359  0.00  0.00    +0.000 A 
ATOM     18  N   UNL     1      -4.566  11.856  18.571  0.00  0.00    +0.000 N 
ATOM     19  C   UNL     1      -5.375  12.224  19.699  0.00  0.00    +0.000 C 
ENDBRANCH  13  14
ENDBRANCH  12  13
ENDBRANCH   5  12
ENDBRANCH   1   9
BRANCH   2  20
ATOM     20  C   UNL     1       2.983   5.310  19.631  0.00  0.00    +0.000 A 
ATOM     21  C   UNL     1       4.273   5.784  19.403  0.00  0.00    +0.000 A 
ATOM     22  C   UNL     1       5.217   4.953  18.798  0.00  0.00    +0.000 A 
ATOM     23  C   UNL     1       4.801   3.653  18.467  0.00  0.00    +0.000 A 
ATOM     24  C   UNL     1       3.486   3.236  18.718  0.00  0.00    +0.000 A 
ATOM     25  N   UNL     1       2.564   4.061  19.299  0.00  0.00    +0.000 NA
BRANCH  24  26
ATOM     26  C   UNL     1       3.062   1.819  18.342  0.00  0.00    +0.000 C 
ATOM     27  F   UNL     1       2.543   1.718  17.083  0.00  0.00    +0.000 F 
ATOM     28  F   UNL     1       4.096   0.931  18.384  0.00  0.00    +0.000 F 
ATOM     29  F   UNL     1       2.103   1.319  19.173  0.00  0.00    +0.000 F 
ENDBRANCH  24  26
BRANCH  22  30
ATOM     30  C   UNL     1       6.655   5.408  18.567  0.00  0.00    +0.000 C 
ATOM     31  C   UNL     1       7.482   4.471  17.672  0.00  0.00    +0.000 C 
ATOM     32  C   UNL     1       6.660   6.822  17.979  0.00  0.00    +0.000 C 
BRANCH  30  33
ATOM     33  O   UNL     1       7.319   5.474  19.834  0.00  0.00    +0.000 OA
ATOM     34  H   UNL     1       8.164   4.998  19.746  0.00  0.00    +0.000 HD
ENDBRANCH  30  33
ENDBRANCH  22  30
ENDBRANCH   2  20
TORSDOF 8
ENDMDL
