MODEL 1
REMARK VINA RESULT:      -9.8      0.000      0.000
REMARK  Name = 
REMARK  8 active torsions:
REMARK  status: ('A' for Active; 'I' for Inactive)
REMARK    1  A    between atoms: C_1  and  N_2
REMARK    2  A    between atoms: C_6  and  C_7
REMARK    3  A    between atoms: C_7  and  C_9
REMARK    4  A    between atoms: C_9  and  C_10
REMARK    5  A    between atoms: C_14  and  N_15
REMARK    6  A    between atoms: C_20  and  C_21
REMARK    7  A    between atoms: C_21  and  N_22
REMARK    8  A    between atoms: C_30  and  C_31
REMARK                            x       y       z     vdW  Elec       q    Type
REMARK                         _______ _______ _______ _____ _____    ______ ____
ROOT
ATOM      1  N   UNL     1       2.138   7.525  19.467  0.00  0.00    +0.000 N 
ATOM      2  C   UNL     1       1.388   7.876  20.646  0.00  0.00    +0.000 C 
ATOM      3  C   UNL     1       0.846   9.219  20.378  0.00  0.00    +0.000 A 
ATOM      4  C   UNL     1       1.174   9.621  19.086  0.00  0.00    +0.000 A 
ATOM      5  C   UNL     1       0.722  10.852  18.606  0.00  0.00    +0.000 A 
ATOM      6  C   UNL     1      -0.061  11.664  19.467  0.00  0.00    +0.000 A 
ATOM      7  C   UNL     1      -0.347  11.216  20.782  0.00  0.00    +0.000 A 
ATOM      8  C   UNL     1       0.118   9.997  21.267  0.00  0.00    +0.000 A 
ATOM      9  C   UNL     1       2.041   8.537  18.498  0.00  0.00    +0.000 C 
ATOM     10  O   UNL     1       2.556   8.613  17.390  0.00  0.00    +0.000 OA
ENDROOT
BRANCH   1  15
ATOM     11  C   UNL     1       5.146   5.325  18.949  0.00  0.00    +0.000 A 
ATOM     12  C   UNL     1       4.598   4.078  19.262  0.00  0.00    +0.000 A 
ATOM     13  C   UNL     1       3.265   3.951  19.689  0.00  0.00    +0.000 A 
ATOM     14  C   UNL     1       2.417   5.070  19.794  0.00  0.00    +0.000 A 
ATOM     15  C   UNL     1       2.917   6.333  19.516  0.00  0.00    +0.000 A 
ATOM     16  C   UNL     1       4.288   6.419  19.162  0.00  0.00    +0.000 A 
BRANCH  11  17
ATOM     17  C   UNL     1       6.575   5.559  18.202  0.00  0.00    +0.000 C 
ATOM     18  C   UNL     1       7.582   4.388  18.094  0.00  0.00    +0.000 C 
ATOM     19  O   UNL     1       8.350   4.907  19.216  0.00  0.00    +0.000 OA
ATOM     20  C   UNL     1       7.719   6.198  19.044  0.00  0.00    +0.000 C 
BRANCH  17  21
ATOM     21  C   UNL     1       6.334   6.362  16.915  0.00  0.00    +0.000 C 
ATOM     22  F   UNL     1       7.199   7.420  16.876  0.00  0.00    +0.000 F 
BRANCH  21  28
ATOM     23  C   UNL     1       4.358   4.179  15.854  0.00  0.00    +0.000 C 
ATOM     24  N   UNL     1       5.578   4.614  15.227  0.00  0.00    +0.000 N 
ATOM     25  C   UNL     1       6.077   4.138  14.054  0.00  0.00    +0.000 A 
ATOM     26  N   UNL     1       7.246   4.685  13.822  0.00  0.00    +0.000 NA
ATOM     27  N   UNL     1       7.504   5.567  14.843  0.00  0.00    +0.000 NA
ATOM     28  C   UNL     1       6.481   5.545  15.676  0.00  0.00    +0.000 A 
ENDBRANCH  21  28
ENDBRANCH  17  21
ENDBRANCH  11  17
ENDBRANCH   1  15
BRANCH   8  29
ATOM     29  C   UNL     1      -0.139   9.580  22.692  0.00  0.00    +0.000 C 
ATOM     30  F   UNL     1      -0.784  10.528  23.433  0.00  0.00    +0.000 F 
ATOM     31  F   UNL     1      -0.921   8.470  22.775  0.00  0.00    +0.000 F 
ATOM     32  F   UNL     1       1.002   9.303  23.374  0.00  0.00    +0.000 F 
ENDBRANCH   8  29
BRANCH   6  33
ATOM     33  C   UNL     1      -0.674  13.007  19.054  0.00  0.00    +0.000 C 
BRANCH  33  34
ATOM     34  N   UNL     1      -0.237  14.094  19.945  0.00  0.00    +0.000 NA
ATOM     35  C   UNL     1       1.213  14.256  20.049  0.00  0.00    +0.000 C 
ATOM     36  C   UNL     1       1.843  15.017  18.884  0.00  0.00    +0.000 C 
ATOM     37  C   UNL     1       1.126  16.327  18.592  0.00  0.00    +0.000 C 
ATOM     38  F   UNL     1       1.461  17.225  19.563  0.00  0.00    +0.000 F 
ATOM     39  C   UNL     1      -0.388  16.192  18.567  0.00  0.00    +0.000 C 
ATOM     40  C   UNL     1      -0.903  15.384  19.752  0.00  0.00    +0.000 C 
ENDBRANCH  33  34
ENDBRANCH   6  33
TORSDOF 7
ENDMDL
MODEL 2
REMARK VINA RESULT:      -9.5      0.522      1.021
REMARK  Name = 
REMARK  8 active torsions:
REMARK  status: ('A' for Active; 'I' for Inactive)
REMARK    1  A    between atoms: C_1  and  N_2
REMARK    2  A    between atoms: C_6  and  C_7
REMARK    3  A    between atoms: C_7  and  C_9
REMARK    4  A    between atoms: C_9  and  C_10
REMARK    5  A    between atoms: C_14  and  N_15
REMARK    6  A    between atoms: C_20  and  C_21
REMARK    7  A    between atoms: C_21  and  N_22
REMARK    8  A    between atoms: C_30  and  C_31
REMARK                            x       y       z     vdW  Elec       q    Type
REMARK                         _______ _______ _______ _____ _____    ______ ____
ROOT
ATOM      1  N   UNL     1       2.045   7.571  19.515  0.00  0.00    +0.000 N 
ATOM      2  C   UNL     1       1.293   7.914  20.696  0.00  0.00    +0.000 C 
ATOM      3  C   UNL     1       0.762   9.264  20.442  0.00  0.00    +0.000 A 
ATOM      4  C   UNL     1       1.097   9.678  19.155  0.00  0.00    +0.000 A 
ATOM      5  C   UNL     1       0.655  10.918  18.688  0.00  0.00    +0.000 A 
ATOM      6  C   UNL     1      -0.125  11.726  19.556  0.00  0.00    +0.000 A 
ATOM      7  C   UNL     1      -0.418  11.265  20.864  0.00  0.00    +0.000 A 
ATOM      8  C   UNL     1       0.036  10.036  21.337  0.00  0.00    +0.000 A 
ATOM      9  C   UNL     1       1.959   8.595  18.558  0.00  0.00    +0.000 C 
ATOM     10  O   UNL     1       2.478   8.680  17.452  0.00  0.00    +0.000 OA
ENDROOT
BRANCH   1  15
ATOM     11  C   UNL     1       5.044   5.359  18.994  0.00  0.00    +0.000 A 
ATOM     12  C   UNL     1       4.484   4.111  19.280  0.00  0.00    +0.000 A 
ATOM     13  C   UNL     1       3.145   3.987  19.691  0.00  0.00    +0.000 A 
ATOM     14  C   UNL     1       2.304   5.109  19.806  0.00  0.00    +0.000 A 
ATOM     15  C   UNL     1       2.815   6.373  19.553  0.00  0.00    +0.000 A 
ATOM     16  C   UNL     1       4.190   6.455  19.215  0.00  0.00    +0.000 A 
BRANCH  11  17
ATOM     17  C   UNL     1       6.482   5.595  18.266  0.00  0.00    +0.000 C 
ATOM     18  C   UNL     1       7.481   4.419  18.148  0.00  0.00    +0.000 C 
ATOM     19  O   UNL     1       8.241   4.913  19.287  0.00  0.00    +0.000 OA
ATOM     20  C   UNL     1       7.621   6.211  19.130  0.00  0.00    +0.000 C 
BRANCH  17  21
ATOM     21  C   UNL     1       6.260   6.422  16.990  0.00  0.00    +0.000 C 
ATOM     22  F   UNL     1       7.010   7.562  17.057  0.00  0.00    +0.000 F 
BRANCH  21  28
ATOM     23  C   UNL     1       4.577   4.139  15.665  0.00  0.00    +0.000 C 
ATOM     24  N   UNL     1       5.810   4.697  15.174  0.00  0.00    +0.000 N 
ATOM     25  C   UNL     1       6.453   4.314  14.037  0.00  0.00    +0.000 A 
ATOM     26  N   UNL     1       7.589   4.961  13.938  0.00  0.00    +0.000 NA
ATOM     27  N   UNL     1       7.678   5.814  15.012  0.00  0.00    +0.000 NA
ATOM     28  C   UNL     1       6.588   5.675  15.742  0.00  0.00    +0.000 A 
ENDBRANCH  21  28
ENDBRANCH  17  21
ENDBRANCH  11  17
ENDBRANCH   1  15
BRANCH   8  29
ATOM     29  C   UNL     1      -0.229   9.605  22.756  0.00  0.00    +0.000 C 
ATOM     30  F   UNL     1      -0.954  10.510  23.478  0.00  0.00    +0.000 F 
ATOM     31  F   UNL     1      -0.938   8.447  22.822  0.00  0.00    +0.000 F 
ATOM     32  F   UNL     1       0.911   9.404  23.468  0.00  0.00    +0.000 F 
ENDBRANCH   8  29
BRANCH   6  33
ATOM     33  C   UNL     1      -0.726  13.078  19.156  0.00  0.00    +0.000 C 
BRANCH  33  34
ATOM     34  N   UNL     1       0.316  14.104  18.994  0.00  0.00    +0.000 NA
ATOM     35  C   UNL     1      -0.183  15.433  18.638  0.00  0.00    +0.000 C 
ATOM     36  C   UNL     1      -0.725  16.234  19.821  0.00  0.00    +0.000 C 
ATOM     37  C   UNL     1       0.245  16.264  20.993  0.00  0.00    +0.000 C 
ATOM     38  F   UNL     1       1.265  17.116  20.684  0.00  0.00    +0.000 F 
ATOM     39  C   UNL     1       0.839  14.905  21.319  0.00  0.00    +0.000 C 
ATOM     40  C   UNL     1       1.311  14.178  20.065  0.00  0.00    +0.000 C 
ENDBRANCH  33  34
ENDBRANCH   6  33
TORSDOF 7
ENDMDL
MODEL 3
REMARK VINA RESULT:      -9.5      1.547      2.379
REMARK  Name = 
REMARK  8 active torsions:
REMARK  status: ('A' for Active; 'I' for Inactive)
REMARK    1  A    between atoms: C_1  and  N_2
REMARK    2  A    between atoms: C_6  and  C_7
REMARK    3  A    between atoms: C_7  and  C_9
REMARK    4  A    between atoms: C_9  and  C_10
REMARK    5  A    between atoms: C_14  and  N_15
REMARK    6  A    between atoms: C_20  and  C_21
REMARK    7  A    between atoms: C_21  and  N_22
REMARK    8  A    between atoms: C_30  and  C_31
REMARK                            x       y       z     vdW  Elec       q    Type
REMARK                         _______ _______ _______ _____ _____    ______ ____
ROOT
ATOM      1  N   UNL     1       2.172   7.476  19.236  0.00  0.00    +0.000 N 
ATOM      2  C   UNL     1       1.460   7.849  20.432  0.00  0.00    +0.000 C 
ATOM      3  C   UNL     1       0.995   9.227  20.196  0.00  0.00    +0.000 A 
ATOM      4  C   UNL     1       1.329   9.632  18.906  0.00  0.00    +0.000 A 
ATOM      5  C   UNL     1       0.943  10.897  18.455  0.00  0.00    +0.000 A 
ATOM      6  C   UNL     1       0.222  11.738  19.342  0.00  0.00    +0.000 A 
ATOM      7  C   UNL     1      -0.072  11.283  20.653  0.00  0.00    +0.000 A 
ATOM      8  C   UNL     1       0.326  10.029  21.109  0.00  0.00    +0.000 A 
ATOM      9  C   UNL     1       2.122   8.511  18.287  0.00  0.00    +0.000 C 
ATOM     10  O   UNL     1       2.626   8.576  17.173  0.00  0.00    +0.000 OA
ENDROOT
BRANCH   1  15
ATOM     11  C   UNL     1       4.618   4.866  18.070  0.00  0.00    +0.000 A 
ATOM     12  C   UNL     1       4.251   3.797  18.894  0.00  0.00    +0.000 A 
ATOM     13  C   UNL     1       3.243   3.934  19.863  0.00  0.00    +0.000 A 
ATOM     14  C   UNL     1       2.541   5.143  20.029  0.00  0.00    +0.000 A 
ATOM     15  C   UNL     1       2.880   6.240  19.252  0.00  0.00    +0.000 A 
ATOM     16  C   UNL     1       3.954   6.076  18.340  0.00  0.00    +0.000 A 
BRANCH  11  17
ATOM     17  C   UNL     1       5.571   4.749  16.755  0.00  0.00    +0.000 C 
ATOM     18  C   UNL     1       5.215   5.547  15.478  0.00  0.00    +0.000 C 
ATOM     19  O   UNL     1       4.627   4.364  14.868  0.00  0.00    +0.000 OA
ATOM     20  C   UNL     1       5.336   3.530  15.814  0.00  0.00    +0.000 C 
BRANCH  17  21
ATOM     21  C   UNL     1       7.041   4.814  17.202  0.00  0.00    +0.000 C 
ATOM     22  F   UNL     1       7.834   4.297  16.217  0.00  0.00    +0.000 F 
BRANCH  21  28
ATOM     23  C   UNL     1       8.119   5.818  19.964  0.00  0.00    +0.000 C 
ATOM     24  N   UNL     1       7.985   6.593  18.758  0.00  0.00    +0.000 N 
ATOM     25  C   UNL     1       8.310   7.907  18.623  0.00  0.00    +0.000 A 
ATOM     26  N   UNL     1       7.978   8.318  17.423  0.00  0.00    +0.000 NA
ATOM     27  N   UNL     1       7.458   7.244  16.743  0.00  0.00    +0.000 NA
ATOM     28  C   UNL     1       7.491   6.194  17.541  0.00  0.00    +0.000 A 
ENDBRANCH  21  28
ENDBRANCH  17  21
ENDBRANCH  11  17
ENDBRANCH   1  15
BRANCH   8  29
ATOM     29  C   UNL     1       0.064   9.602  22.531  0.00  0.00    +0.000 C 
ATOM     30  F   UNL     1      -0.508  10.574  23.299  0.00  0.00    +0.000 F 
ATOM     31  F   UNL     1      -0.785   8.543  22.606  0.00  0.00    +0.000 F 
ATOM     32  F   UNL     1       1.196   9.239  23.189  0.00  0.00    +0.000 F 
ENDBRANCH   8  29
BRANCH   6  33
ATOM     33  C   UNL     1      -0.316  13.122  18.963  0.00  0.00    +0.000 C 
BRANCH  33  34
ATOM     34  N   UNL     1       0.155  14.157  19.897  0.00  0.00    +0.000 NA
ATOM     35  C   UNL     1       1.576  14.488  19.780  0.00  0.00    +0.000 C 
ATOM     36  C   UNL     1       1.903  15.439  18.630  0.00  0.00    +0.000 C 
ATOM     37  C   UNL     1       1.011  16.671  18.626  0.00  0.00    +0.000 C 
ATOM     38  F   UNL     1       1.416  17.499  19.632  0.00  0.00    +0.000 F 
ATOM     39  C   UNL     1      -0.460  16.351  18.834  0.00  0.00    +0.000 C 
ATOM     40  C   UNL     1      -0.668  15.365  19.979  0.00  0.00    +0.000 C 
ENDBRANCH  33  34
ENDBRANCH   6  33
TORSDOF 7
ENDMDL
MODEL 4
REMARK VINA RESULT:      -9.2      1.772      2.636
REMARK  Name = 
REMARK  8 active torsions:
REMARK  status: ('A' for Active; 'I' for Inactive)
REMARK    1  A    between atoms: C_1  and  N_2
REMARK    2  A    between atoms: C_6  and  C_7
REMARK    3  A    between atoms: C_7  and  C_9
REMARK    4  A    between atoms: C_9  and  C_10
REMARK    5  A    between atoms: C_14  and  N_15
REMARK    6  A    between atoms: C_20  and  C_21
REMARK    7  A    between atoms: C_21  and  N_22
REMARK    8  A    between atoms: C_30  and  C_31
REMARK                            x       y       z     vdW  Elec       q    Type
REMARK                         _______ _______ _______ _____ _____    ______ ____
ROOT
ATOM      1  N   UNL     1       2.093   7.471  18.878  0.00  0.00    +0.000 N 
ATOM      2  C   UNL     1       1.443   7.797  20.122  0.00  0.00    +0.000 C 
ATOM      3  C   UNL     1       1.173   9.243  20.054  0.00  0.00    +0.000 A 
ATOM      4  C   UNL     1       1.557   9.746  18.813  0.00  0.00    +0.000 A 
ATOM      5  C   UNL     1       1.350  11.095  18.517  0.00  0.00    +0.000 A 
ATOM      6  C   UNL     1       0.755  11.919  19.508  0.00  0.00    +0.000 A 
ATOM      7  C   UNL     1       0.405  11.360  20.763  0.00  0.00    +0.000 A 
ATOM      8  C   UNL     1       0.626  10.019  21.065  0.00  0.00    +0.000 A 
ATOM      9  C   UNL     1       2.185   8.605  18.054  0.00  0.00    +0.000 C 
ATOM     10  O   UNL     1       2.689   8.729  16.946  0.00  0.00    +0.000 OA
ENDROOT
BRANCH   1  15
ATOM     11  C   UNL     1       4.377   4.769  17.597  0.00  0.00    +0.000 A 
ATOM     12  C   UNL     1       3.719   3.636  18.085  0.00  0.00    +0.000 A 
ATOM     13  C   UNL     1       2.560   3.746  18.872  0.00  0.00    +0.000 A 
ATOM     14  C   UNL     1       1.997   4.999  19.181  0.00  0.00    +0.000 A 
ATOM     15  C   UNL     1       2.621   6.155  18.738  0.00  0.00    +0.000 A 
ATOM     16  C   UNL     1       3.829   5.996  18.012  0.00  0.00    +0.000 A 
BRANCH  11  17
ATOM     17  C   UNL     1       5.556   4.755  16.473  0.00  0.00    +0.000 C 
ATOM     18  C   UNL     1       5.424   5.645  15.214  0.00  0.00    +0.000 C 
ATOM     19  O   UNL     1       4.978   4.508  14.422  0.00  0.00    +0.000 OA
ATOM     20  C   UNL     1       5.517   3.609  15.419  0.00  0.00    +0.000 C 
BRANCH  17  21
ATOM     21  C   UNL     1       6.918   4.792  17.185  0.00  0.00    +0.000 C 
ATOM     22  F   UNL     1       7.851   4.171  16.403  0.00  0.00    +0.000 F 
BRANCH  21  28
ATOM     23  C   UNL     1       8.134   5.781  19.895  0.00  0.00    +0.000 C 
ATOM     24  N   UNL     1       7.928   6.566  18.706  0.00  0.00    +0.000 N 
ATOM     25  C   UNL     1       8.232   7.884  18.566  0.00  0.00    +0.000 A 
ATOM     26  N   UNL     1       7.830   8.304  17.391  0.00  0.00    +0.000 NA
ATOM     27  N   UNL     1       7.285   7.230  16.729  0.00  0.00    +0.000 NA
ATOM     28  C   UNL     1       7.372   6.173  17.513  0.00  0.00    +0.000 A 
ENDBRANCH  21  28
ENDBRANCH  17  21
ENDBRANCH  11  17
ENDBRANCH   1  15
BRANCH   8  29
ATOM     29  C   UNL     1       0.310   9.470  22.433  0.00  0.00    +0.000 C 
ATOM     30  F   UNL     1       1.407   9.016  23.107  0.00  0.00    +0.000 F 
ATOM     31  F   UNL     1      -0.250  10.402  23.250  0.00  0.00    +0.000 F 
ATOM     32  F   UNL     1      -0.551   8.420  22.394  0.00  0.00    +0.000 F 
ENDBRANCH   8  29
BRANCH   6  33
ATOM     33  C   UNL     1       0.415  13.399  19.299  0.00  0.00    +0.000 C 
BRANCH  33  34
ATOM     34  N   UNL     1       1.409  14.275  19.939  0.00  0.00    +0.000 NA
ATOM     35  C   UNL     1       2.796  14.012  19.556  0.00  0.00    +0.000 C 
ATOM     36  C   UNL     1       3.197  14.614  18.209  0.00  0.00    +0.000 C 
ATOM     37  C   UNL     1       2.826  16.085  18.099  0.00  0.00    +0.000 C 
ATOM     38  F   UNL     1       3.702  16.806  18.859  0.00  0.00    +0.000 F 
ATOM     39  C   UNL     1       1.416  16.389  18.578  0.00  0.00    +0.000 C 
ATOM     40  C   UNL     1       1.111  15.708  19.907  0.00  0.00    +0.000 C 
ENDBRANCH  33  34
ENDBRANCH   6  33
TORSDOF 7
ENDMDL
MODEL 5
REMARK VINA RESULT:      -9.2      2.733      9.512
REMARK  Name = 
REMARK  8 active torsions:
REMARK  status: ('A' for Active; 'I' for Inactive)
REMARK    1  A    between atoms: C_1  and  N_2
REMARK    2  A    between atoms: C_6  and  C_7
REMARK    3  A    between atoms: C_7  and  C_9
REMARK    4  A    between atoms: C_9  and  C_10
REMARK    5  A    between atoms: C_14  and  N_15
REMARK    6  A    between atoms: C_20  and  C_21
REMARK    7  A    between atoms: C_21  and  N_22
REMARK    8  A    between atoms: C_30  and  C_31
REMARK                            x       y       z     vdW  Elec       q    Type
REMARK                         _______ _______ _______ _____ _____    ______ ____
ROOT
ATOM      1  N   UNL     1       1.404   7.930  20.433  0.00  0.00    +0.000 N 
ATOM      2  C   UNL     1       1.518   6.583  20.932  0.00  0.00    +0.000 C 
ATOM      3  C   UNL     1       2.256   5.843  19.895  0.00  0.00    +0.000 A 
ATOM      4  C   UNL     1       2.642   6.705  18.871  0.00  0.00    +0.000 A 
ATOM      5  C   UNL     1       3.394   6.219  17.800  0.00  0.00    +0.000 A 
ATOM      6  C   UNL     1       3.738   4.842  17.789  0.00  0.00    +0.000 A 
ATOM      7  C   UNL     1       3.300   4.003  18.845  0.00  0.00    +0.000 A 
ATOM      8  C   UNL     1       2.535   4.484  19.905  0.00  0.00    +0.000 A 
ATOM      9  C   UNL     1       2.064   8.058  19.199  0.00  0.00    +0.000 C 
ATOM     10  O   UNL     1       2.164   9.031  18.462  0.00  0.00    +0.000 OA
ENDROOT
BRANCH   1  15
ATOM     11  C   UNL     1      -0.757  10.953  21.019  0.00  0.00    +0.000 A 
ATOM     12  C   UNL     1      -0.872  10.910  22.411  0.00  0.00    +0.000 A 
ATOM     13  C   UNL     1      -0.289   9.873  23.161  0.00  0.00    +0.000 A 
ATOM     14  C   UNL     1       0.456   8.850  22.546  0.00  0.00    +0.000 A 
ATOM     15  C   UNL     1       0.583   8.834  21.165  0.00  0.00    +0.000 A 
ATOM     16  C   UNL     1      -0.085   9.858  20.446  0.00  0.00    +0.000 A 
BRANCH  11  17
ATOM     17  C   UNL     1      -1.158  12.227  20.086  0.00  0.00    +0.000 C 
ATOM     18  C   UNL     1      -2.034  13.360  20.673  0.00  0.00    +0.000 C 
ATOM     19  O   UNL     1      -3.220  12.814  20.030  0.00  0.00    +0.000 OA
ATOM     20  C   UNL     1      -2.377  12.053  19.133  0.00  0.00    +0.000 C 
BRANCH  17  21
ATOM     21  C   UNL     1       0.085  12.675  19.300  0.00  0.00    +0.000 C 
ATOM     22  F   UNL     1      -0.292  13.552  18.323  0.00  0.00    +0.000 F 
BRANCH  21  28
ATOM     23  C   UNL     1       2.987  13.485  18.450  0.00  0.00    +0.000 C 
ATOM     24  N   UNL     1       2.387  13.666  19.746  0.00  0.00    +0.000 N 
ATOM     25  C   UNL     1       2.995  14.226  20.827  0.00  0.00    +0.000 A 
ATOM     26  N   UNL     1       2.197  14.150  21.864  0.00  0.00    +0.000 NA
ATOM     27  N   UNL     1       1.027  13.562  21.449  0.00  0.00    +0.000 NA
ATOM     28  C   UNL     1       1.131  13.297  20.161  0.00  0.00    +0.000 A 
ENDBRANCH  21  28
ENDBRANCH  17  21
ENDBRANCH  11  17
ENDBRANCH   1  15
BRANCH   8  29
ATOM     29  C   UNL     1       2.022   3.555  20.976  0.00  0.00    +0.000 C 
ATOM     30  F   UNL     1       0.660   3.483  21.032  0.00  0.00    +0.000 F 
ATOM     31  F   UNL     1       2.440   2.274  20.794  0.00  0.00    +0.000 F 
ATOM     32  F   UNL     1       2.417   3.920  22.223  0.00  0.00    +0.000 F 
ENDBRANCH   8  29
BRANCH   6  33
ATOM     33  C   UNL     1       4.608   4.185  16.711  0.00  0.00    +0.000 C 
BRANCH  33  34
ATOM     34  N   UNL     1       5.011   5.155  15.680  0.00  0.00    +0.000 NA
ATOM     35  C   UNL     1       6.282   5.833  15.940  0.00  0.00    +0.000 C 
ATOM     36  C   UNL     1       7.516   5.005  15.582  0.00  0.00    +0.000 C 
ATOM     37  C   UNL     1       7.436   4.424  14.178  0.00  0.00    +0.000 C 
ATOM     38  F   UNL     1       7.659   5.431  13.284  0.00  0.00    +0.000 F 
ATOM     39  C   UNL     1       6.090   3.794  13.862  0.00  0.00    +0.000 C 
ATOM     40  C   UNL     1       4.932   4.686  14.296  0.00  0.00    +0.000 C 
ENDBRANCH  33  34
ENDBRANCH   6  33
TORSDOF 7
ENDMDL
MODEL 6
REMARK VINA RESULT:      -9.2      1.036      1.384
REMARK  Name = 
REMARK  8 active torsions:
REMARK  status: ('A' for Active; 'I' for Inactive)
REMARK    1  A    between atoms: C_1  and  N_2
REMARK    2  A    between atoms: C_6  and  C_7
REMARK    3  A    between atoms: C_7  and  C_9
REMARK    4  A    between atoms: C_9  and  C_10
REMARK    5  A    between atoms: C_14  and  N_15
REMARK    6  A    between atoms: C_20  and  C_21
REMARK    7  A    between atoms: C_21  and  N_22
REMARK    8  A    between atoms: C_30  and  C_31
REMARK                            x       y       z     vdW  Elec       q    Type
REMARK                         _______ _______ _______ _____ _____    ______ ____
ROOT
ATOM      1  N   UNL     1       2.190   7.414  19.142  0.00  0.00    +0.000 N 
ATOM      2  C   UNL     1       1.481   7.762  20.348  0.00  0.00    +0.000 C 
ATOM      3  C   UNL     1       1.046   9.156  20.157  0.00  0.00    +0.000 A 
ATOM      4  C   UNL     1       1.394   9.598  18.883  0.00  0.00    +0.000 A 
ATOM      5  C   UNL     1       1.037  10.885  18.474  0.00  0.00    +0.000 A 
ATOM      6  C   UNL     1       0.330  11.710  19.387  0.00  0.00    +0.000 A 
ATOM      7  C   UNL     1       0.022  11.218  20.680  0.00  0.00    +0.000 A 
ATOM      8  C   UNL     1       0.391   9.941  21.095  0.00  0.00    +0.000 A 
ATOM      9  C   UNL     1       2.166   8.481  18.228  0.00  0.00    +0.000 C 
ATOM     10  O   UNL     1       2.675   8.574  17.119  0.00  0.00    +0.000 OA
ENDROOT
BRANCH   1  15
ATOM     11  C   UNL     1       4.873   4.945  18.217  0.00  0.00    +0.000 A 
ATOM     12  C   UNL     1       4.299   3.764  18.696  0.00  0.00    +0.000 A 
ATOM     13  C   UNL     1       3.062   3.771  19.365  0.00  0.00    +0.000 A 
ATOM     14  C   UNL     1       2.337   4.961  19.557  0.00  0.00    +0.000 A 
ATOM     15  C   UNL     1       2.871   6.164  19.119  0.00  0.00    +0.000 A 
ATOM     16  C   UNL     1       4.155   6.116  18.518  0.00  0.00    +0.000 A 
BRANCH  11  17
ATOM     17  C   UNL     1       6.152   5.022  17.211  0.00  0.00    +0.000 C 
ATOM     18  C   UNL     1       7.570   4.716  17.751  0.00  0.00    +0.000 C 
ATOM     19  O   UNL     1       7.866   6.137  17.860  0.00  0.00    +0.000 OA
ATOM     20  C   UNL     1       6.772   6.428  16.959  0.00  0.00    +0.000 C 
BRANCH  17  21
ATOM     21  C   UNL     1       5.777   4.348  15.882  0.00  0.00    +0.000 C 
ATOM     22  F   UNL     1       4.479   4.648  15.576  0.00  0.00    +0.000 F 
BRANCH  21  28
ATOM     23  C   UNL     1       5.588   3.379  12.911  0.00  0.00    +0.000 C 
ATOM     24  N   UNL     1       6.536   4.317  13.453  0.00  0.00    +0.000 N 
ATOM     25  C   UNL     1       7.519   4.942  12.750  0.00  0.00    +0.000 A 
ATOM     26  N   UNL     1       8.255   5.655  13.567  0.00  0.00    +0.000 NA
ATOM     27  N   UNL     1       7.723   5.527  14.827  0.00  0.00    +0.000 NA
ATOM     28  C   UNL     1       6.666   4.741  14.752  0.00  0.00    +0.000 A 
ENDBRANCH  21  28
ENDBRANCH  17  21
ENDBRANCH  11  17
ENDBRANCH   1  15
BRANCH   8  29
ATOM     29  C   UNL     1       0.115   9.472  22.500  0.00  0.00    +0.000 C 
ATOM     30  F   UNL     1      -0.704   8.382  22.563  0.00  0.00    +0.000 F 
ATOM     31  F   UNL     1       1.247   9.104  23.157  0.00  0.00    +0.000 F 
ATOM     32  F   UNL     1      -0.487  10.420  23.264  0.00  0.00    +0.000 F 
ENDBRANCH   8  29
BRANCH   6  33
ATOM     33  C   UNL     1      -0.177  13.118  19.052  0.00  0.00    +0.000 C 
BRANCH  33  34
ATOM     34  N   UNL     1       0.453  14.134  19.910  0.00  0.00    +0.000 NA
ATOM     35  C   UNL     1       1.901  14.261  19.749  0.00  0.00    +0.000 C 
ATOM     36  C   UNL     1       2.324  15.088  18.535  0.00  0.00    +0.000 C 
ATOM     37  C   UNL     1       1.606  16.427  18.467  0.00  0.00    +0.000 C 
ATOM     38  F   UNL     1       2.145  17.251  19.411  0.00  0.00    +0.000 F 
ATOM     39  C   UNL     1       0.111  16.323  18.720  0.00  0.00    +0.000 C 
ATOM     40  C   UNL     1      -0.198  15.446  19.929  0.00  0.00    +0.000 C 
ENDBRANCH  33  34
ENDBRANCH   6  33
TORSDOF 7
ENDMDL
MODEL 7
REMARK VINA RESULT:      -9.2      3.113      9.329
REMARK  Name = 
REMARK  8 active torsions:
REMARK  status: ('A' for Active; 'I' for Inactive)
REMARK    1  A    between atoms: C_1  and  N_2
REMARK    2  A    between atoms: C_6  and  C_7
REMARK    3  A    between atoms: C_7  and  C_9
REMARK    4  A    between atoms: C_9  and  C_10
REMARK    5  A    between atoms: C_14  and  N_15
REMARK    6  A    between atoms: C_20  and  C_21
REMARK    7  A    between atoms: C_21  and  N_22
REMARK    8  A    between atoms: C_30  and  C_31
REMARK                            x       y       z     vdW  Elec       q    Type
REMARK                         _______ _______ _______ _____ _____    ______ ____
ROOT
ATOM      1  N   UNL     1       1.427   8.160  20.143  0.00  0.00    +0.000 N 
ATOM      2  C   UNL     1       1.493   6.807  20.635  0.00  0.00    +0.000 C 
ATOM      3  C   UNL     1       2.256   6.060  19.622  0.00  0.00    +0.000 A 
ATOM      4  C   UNL     1       2.700   6.921  18.622  0.00  0.00    +0.000 A 
ATOM      5  C   UNL     1       3.484   6.427  17.578  0.00  0.00    +0.000 A 
ATOM      6  C   UNL     1       3.800   5.043  17.569  0.00  0.00    +0.000 A 
ATOM      7  C   UNL     1       3.303   4.206  18.600  0.00  0.00    +0.000 A 
ATOM      8  C   UNL     1       2.507   4.695  19.633  0.00  0.00    +0.000 A 
ATOM      9  C   UNL     1       2.138   8.284  18.938  0.00  0.00    +0.000 C 
ATOM     10  O   UNL     1       2.287   9.259  18.213  0.00  0.00    +0.000 OA
ENDROOT
BRANCH   1  15
ATOM     11  C   UNL     1      -0.965  11.028  20.601  0.00  0.00    +0.000 A 
ATOM     12  C   UNL     1      -0.930  11.160  21.992  0.00  0.00    +0.000 A 
ATOM     13  C   UNL     1      -0.170  10.288  22.791  0.00  0.00    +0.000 A 
ATOM     14  C   UNL     1       0.610   9.263  22.223  0.00  0.00    +0.000 A 
ATOM     15  C   UNL     1       0.596   9.076  20.849  0.00  0.00    +0.000 A 
ATOM     16  C   UNL     1      -0.245   9.932  20.093  0.00  0.00    +0.000 A 
BRANCH  11  17
ATOM     17  C   UNL     1      -1.589  12.126  19.573  0.00  0.00    +0.000 C 
ATOM     18  C   UNL     1      -0.693  12.736  18.468  0.00  0.00    +0.000 C 
ATOM     19  O   UNL     1      -0.487  13.940  19.259  0.00  0.00    +0.000 OA
ATOM     20  C   UNL     1      -1.644  13.604  20.061  0.00  0.00    +0.000 C 
BRANCH  17  21
ATOM     21  C   UNL     1      -2.981  11.650  19.126  0.00  0.00    +0.000 C 
ATOM     22  F   UNL     1      -3.885  12.656  19.323  0.00  0.00    +0.000 F 
BRANCH  21  28
ATOM     23  C   UNL     1      -5.298  12.116  17.074  0.00  0.00    +0.000 C 
ATOM     24  N   UNL     1      -4.045  11.453  16.822  0.00  0.00    +0.000 N 
ATOM     25  C   UNL     1      -3.660  10.913  15.634  0.00  0.00    +0.000 A 
ATOM     26  N   UNL     1      -2.506  10.310  15.781  0.00  0.00    +0.000 NA
ATOM     27  N   UNL     1      -2.104  10.489  17.083  0.00  0.00    +0.000 NA
ATOM     28  C   UNL     1      -3.021  11.206  17.704  0.00  0.00    +0.000 A 
ENDBRANCH  21  28
ENDBRANCH  17  21
ENDBRANCH  11  17
ENDBRANCH   1  15
BRANCH   8  29
ATOM     29  C   UNL     1       1.932   3.770  20.675  0.00  0.00    +0.000 C 
ATOM     30  F   UNL     1       0.568   3.766  20.712  0.00  0.00    +0.000 F 
ATOM     31  F   UNL     1       2.287   2.473  20.468  0.00  0.00    +0.000 F 
ATOM     32  F   UNL     1       2.328   4.085  21.935  0.00  0.00    +0.000 F 
ENDBRANCH   8  29
BRANCH   6  33
ATOM     33  C   UNL     1       4.698   4.376  16.521  0.00  0.00    +0.000 C 
BRANCH  33  34
ATOM     34  N   UNL     1       6.067   4.186  17.028  0.00  0.00    +0.000 NA
ATOM     35  C   UNL     1       7.088   4.985  16.351  0.00  0.00    +0.000 C 
ATOM     36  C   UNL     1       7.162   6.436  16.824  0.00  0.00    +0.000 C 
ATOM     37  C   UNL     1       7.238   6.548  18.339  0.00  0.00    +0.000 C 
ATOM     38  F   UNL     1       8.494   6.193  18.733  0.00  0.00    +0.000 F 
ATOM     39  C   UNL     1       6.241   5.657  19.060  0.00  0.00    +0.000 C 
ATOM     40  C   UNL     1       6.223   4.246  18.483  0.00  0.00    +0.000 C 
ENDBRANCH  33  34
ENDBRANCH   6  33
TORSDOF 7
ENDMDL
MODEL 8
REMARK VINA RESULT:      -9.2      3.111      9.553
REMARK  Name = 
REMARK  8 active torsions:
REMARK  status: ('A' for Active; 'I' for Inactive)
REMARK    1  A    between atoms: C_1  and  N_2
REMARK    2  A    between atoms: C_6  and  C_7
REMARK    3  A    between atoms: C_7  and  C_9
REMARK    4  A    between atoms: C_9  and  C_10
REMARK    5  A    between atoms: C_14  and  N_15
REMARK    6  A    between atoms: C_20  and  C_21
REMARK    7  A    between atoms: C_21  and  N_22
REMARK    8  A    between atoms: C_30  and  C_31
REMARK                            x       y       z     vdW  Elec       q    Type
REMARK                         _______ _______ _______ _____ _____    ______ ____
ROOT
ATOM      1  N   UNL     1       1.418   8.054  20.264  0.00  0.00    +0.000 N 
ATOM      2  C   UNL     1       1.521   6.719  20.798  0.00  0.00    +0.000 C 
ATOM      3  C   UNL     1       2.278   5.954  19.793  0.00  0.00    +0.000 A 
ATOM      4  C   UNL     1       2.683   6.791  18.756  0.00  0.00    +0.000 A 
ATOM      5  C   UNL     1       3.455   6.278  17.712  0.00  0.00    +0.000 A 
ATOM      6  C   UNL     1       3.797   4.900  17.740  0.00  0.00    +0.000 A 
ATOM      7  C   UNL     1       3.338   4.088  18.808  0.00  0.00    +0.000 A 
ATOM      8  C   UNL     1       2.555   4.595  19.842  0.00  0.00    +0.000 A 
ATOM      9  C   UNL     1       2.101   8.152  19.040  0.00  0.00    +0.000 C 
ATOM     10  O   UNL     1       2.217   9.106  18.282  0.00  0.00    +0.000 OA
ENDROOT
BRANCH   1  15
ATOM     11  C   UNL     1      -0.914  10.975  20.695  0.00  0.00    +0.000 A 
ATOM     12  C   UNL     1      -0.930  11.076  22.089  0.00  0.00    +0.000 A 
ATOM     13  C   UNL     1      -0.223  10.167  22.896  0.00  0.00    +0.000 A 
ATOM     14  C   UNL     1       0.551   9.134  22.336  0.00  0.00    +0.000 A 
ATOM     15  C   UNL     1       0.585   8.977  20.959  0.00  0.00    +0.000 A 
ATOM     16  C   UNL     1      -0.204   9.871  20.190  0.00  0.00    +0.000 A 
BRANCH  11  17
ATOM     17  C   UNL     1      -1.469  12.111  19.668  0.00  0.00    +0.000 C 
ATOM     18  C   UNL     1      -0.540  12.660  18.559  0.00  0.00    +0.000 C 
ATOM     19  O   UNL     1      -0.252  13.848  19.348  0.00  0.00    +0.000 OA
ATOM     20  C   UNL     1      -1.425  13.590  20.155  0.00  0.00    +0.000 C 
BRANCH  17  21
ATOM     21  C   UNL     1      -2.891  11.727  19.228  0.00  0.00    +0.000 C 
ATOM     22  F   UNL     1      -3.720  12.799  19.401  0.00  0.00    +0.000 F 
BRANCH  21  28
ATOM     23  C   UNL     1      -5.339  11.948  17.291  0.00  0.00    +0.000 C 
ATOM     24  N   UNL     1      -4.046  11.396  16.984  0.00  0.00    +0.000 N 
ATOM     25  C   UNL     1      -3.674  10.872  15.785  0.00  0.00    +0.000 A 
ATOM     26  N   UNL     1      -2.463  10.378  15.880  0.00  0.00    +0.000 NA
ATOM     27  N   UNL     1      -2.015  10.615  17.157  0.00  0.00    +0.000 NA
ATOM     28  C   UNL     1      -2.961  11.257  17.815  0.00  0.00    +0.000 A 
ENDBRANCH  21  28
ENDBRANCH  17  21
ENDBRANCH  11  17
ENDBRANCH   1  15
BRANCH   8  29
ATOM     29  C   UNL     1       2.020   3.693  20.925  0.00  0.00    +0.000 C 
ATOM     30  F   UNL     1       2.419   4.049  22.181  0.00  0.00    +0.000 F 
ATOM     31  F   UNL     1       0.661   3.687  20.970  0.00  0.00    +0.000 F 
ATOM     32  F   UNL     1       2.410   2.401  20.773  0.00  0.00    +0.000 F 
ENDBRANCH   8  29
BRANCH   6  33
ATOM     33  C   UNL     1       4.686   4.217  16.695  0.00  0.00    +0.000 C 
BRANCH  33  34
ATOM     34  N   UNL     1       5.028   5.134  15.597  0.00  0.00    +0.000 NA
ATOM     35  C   UNL     1       6.257   5.902  15.799  0.00  0.00    +0.000 C 
ATOM     36  C   UNL     1       7.537   5.125  15.488  0.00  0.00    +0.000 C 
ATOM     37  C   UNL     1       7.486   4.444  14.130  0.00  0.00    +0.000 C 
ATOM     38  F   UNL     1       7.645   5.396  13.166  0.00  0.00    +0.000 F 
ATOM     39  C   UNL     1       6.178   3.715  13.869  0.00  0.00    +0.000 C 
ATOM     40  C   UNL     1       4.971   4.566  14.249  0.00  0.00    +0.000 C 
ENDBRANCH  33  34
ENDBRANCH   6  33
TORSDOF 7
ENDMDL
MODEL 9
REMARK VINA RESULT:      -9.2      2.641      9.441
REMARK  Name = 
REMARK  8 active torsions:
REMARK  status: ('A' for Active; 'I' for Inactive)
REMARK    1  A    between atoms: C_1  and  N_2
REMARK    2  A    between atoms: C_6  and  C_7
REMARK    3  A    between atoms: C_7  and  C_9
REMARK    4  A    between atoms: C_9  and  C_10
REMARK    5  A    between atoms: C_14  and  N_15
REMARK    6  A    between atoms: C_20  and  C_21
REMARK    7  A    between atoms: C_21  and  N_22
REMARK    8  A    between atoms: C_30  and  C_31
REMARK                            x       y       z     vdW  Elec       q    Type
REMARK                         _______ _______ _______ _____ _____    ______ ____
ROOT
ATOM      1  N   UNL     1       1.323   8.185  20.335  0.00  0.00    +0.000 N 
ATOM      2  C   UNL     1       1.413   6.814  20.770  0.00  0.00    +0.000 C 
ATOM      3  C   UNL     1       2.170   6.118  19.717  0.00  0.00    +0.000 A 
ATOM      4  C   UNL     1       2.588   7.026  18.746  0.00  0.00    +0.000 A 
ATOM      5  C   UNL     1       3.363   6.584  17.671  0.00  0.00    +0.000 A 
ATOM      6  C   UNL     1       3.694   5.206  17.601  0.00  0.00    +0.000 A 
ATOM      7  C   UNL     1       3.223   4.322  18.604  0.00  0.00    +0.000 A 
ATOM      8  C   UNL     1       2.437   4.758  19.667  0.00  0.00    +0.000 A 
ATOM      9  C   UNL     1       2.014   8.367  19.126  0.00  0.00    +0.000 C 
ATOM     10  O   UNL     1       2.141   9.373  18.440  0.00  0.00    +0.000 OA
ENDROOT
BRANCH   1  15
ATOM     11  C   UNL     1      -0.988  11.086  20.966  0.00  0.00    +0.000 A 
ATOM     12  C   UNL     1      -1.013  11.083  22.364  0.00  0.00    +0.000 A 
ATOM     13  C   UNL     1      -0.321  10.111  23.106  0.00  0.00    +0.000 A 
ATOM     14  C   UNL     1       0.449   9.115  22.476  0.00  0.00    +0.000 A 
ATOM     15  C   UNL     1       0.492   9.061  21.091  0.00  0.00    +0.000 A 
ATOM     16  C   UNL     1      -0.283  10.016  20.385  0.00  0.00    +0.000 A 
BRANCH  11  17
ATOM     17  C   UNL     1      -1.526  12.300  20.023  0.00  0.00    +0.000 C 
ATOM     18  C   UNL     1      -2.168  13.548  20.674  0.00  0.00    +0.000 C 
ATOM     19  O   UNL     1      -3.504  13.046  20.388  0.00  0.00    +0.000 OA
ATOM     20  C   UNL     1      -2.947  12.142  19.405  0.00  0.00    +0.000 C 
BRANCH  17  21
ATOM     21  C   UNL     1      -0.484  12.573  18.926  0.00  0.00    +0.000 C 
ATOM     22  F   UNL     1      -1.097  12.535  17.705  0.00  0.00    +0.000 F 
BRANCH  21  28
ATOM     23  C   UNL     1       2.063  13.121  20.661  0.00  0.00    +0.000 C 
ATOM     24  N   UNL     1       1.355  14.073  19.846  0.00  0.00    +0.000 N 
ATOM     25  C   UNL     1       1.683  15.384  19.696  0.00  0.00    +0.000 A 
ATOM     26  N   UNL     1       0.778  15.981  18.960  0.00  0.00    +0.000 NA
ATOM     27  N   UNL     1      -0.145  15.034  18.585  0.00  0.00    +0.000 NA
ATOM     28  C   UNL     1       0.221  13.875  19.097  0.00  0.00    +0.000 A 
ENDBRANCH  21  28
ENDBRANCH  17  21
ENDBRANCH  11  17
ENDBRANCH   1  15
BRANCH   8  29
ATOM     29  C   UNL     1       1.890   3.783  20.679  0.00  0.00    +0.000 C 
ATOM     30  F   UNL     1       0.526   3.726  20.702  0.00  0.00    +0.000 F 
ATOM     31  F   UNL     1       2.295   2.507  20.441  0.00  0.00    +0.000 F 
ATOM     32  F   UNL     1       2.262   4.079  21.951  0.00  0.00    +0.000 F 
ENDBRANCH   8  29
BRANCH   6  33
ATOM     33  C   UNL     1       4.585   4.594  16.514  0.00  0.00    +0.000 C 
BRANCH  33  34
ATOM     34  N   UNL     1       5.913   4.242  17.041  0.00  0.00    +0.000 NA
ATOM     35  C   UNL     1       7.030   4.947  16.410  0.00  0.00    +0.000 C 
ATOM     36  C   UNL     1       7.247   6.367  16.932  0.00  0.00    +0.000 C 
ATOM     37  C   UNL     1       7.300   6.423  18.451  0.00  0.00    +0.000 C 
ATOM     38  F   UNL     1       8.502   5.923  18.858  0.00  0.00    +0.000 F 
ATOM     39  C   UNL     1       6.197   5.623  19.123  0.00  0.00    +0.000 C 
ATOM     40  C   UNL     1       6.042   4.240  18.499  0.00  0.00    +0.000 C 
ENDBRANCH  33  34
ENDBRANCH   6  33
TORSDOF 7
ENDMDL
