MODEL 1
REMARK VINA RESULT:      -8.5      0.000      0.000
REMARK  Name = 
REMARK  9 active torsions:
REMARK  status: ('A' for Active; 'I' for Inactive)
REMARK    1  A    between atoms: C_1  and  C_2
REMARK    2  A    between atoms: C_2  and  C_3
REMARK    3  A    between atoms: C_2  and  C_10
REMARK    4  A    between atoms: C_3  and  C_4
REMARK    5  A    between atoms: N_8  and  C_9
REMARK    6  A    between atoms: C_14  and  N_15
REMARK    7  A    between atoms: C_16  and  C_18
REMARK    8  A    between atoms: C_20  and  C_21
REMARK    9  A    between atoms: N_23  and  C_24
REMARK                            x       y       z     vdW  Elec       q    Type
REMARK                         _______ _______ _______ _____ _____    ______ ____
ROOT
ATOM      1  N   UNL     1       2.261   6.729  18.716  0.00  0.00    +0.000 N 
ATOM      2  C   UNL     1       1.969   6.812  20.074  0.00  0.00    +0.000 C 
ATOM      3  O   UNL     1       2.154   5.939  20.917  0.00  0.00    +0.000 OA
ATOM      4  H   UNL     1       2.131   7.592  18.192  0.00  0.00    +0.000 HD
ENDROOT
BRANCH   1   9
ATOM      5  C   UNL     1       4.559   4.620  16.664  0.00  0.00    +0.000 A 
ATOM      6  C   UNL     1       3.890   3.389  16.722  0.00  0.00    +0.000 A 
ATOM      7  C   UNL     1       2.683   3.265  17.403  0.00  0.00    +0.000 A 
ATOM      8  C   UNL     1       2.134   4.363  18.057  0.00  0.00    +0.000 A 
ATOM      9  C   UNL     1       2.776   5.600  18.045  0.00  0.00    +0.000 A 
ATOM     10  C   UNL     1       3.978   5.726  17.327  0.00  0.00    +0.000 A 
BRANCH   5  12
ATOM     11  C   UNL     1       6.068   3.775  14.759  0.00  0.00    +0.000 C 
ATOM     12  C   UNL     1       5.878   4.795  15.902  0.00  0.00    +0.000 C 
BRANCH  12  13
ATOM     13  C   UNL     1       7.074   4.758  16.884  0.00  0.00    +0.000 C 
BRANCH  13  14
ATOM     14  C   UNL     1       7.478   6.115  17.353  0.00  0.00    +0.000 A 
ATOM     15  N   UNL     1       7.554   7.208  16.618  0.00  0.00    +0.000 NA
ATOM     16  N   UNL     1       8.036   8.224  17.409  0.00  0.00    +0.000 NA
ATOM     17  C   UNL     1       8.232   7.736  18.609  0.00  0.00    +0.000 A 
ATOM     18  N   UNL     1       7.866   6.426  18.630  0.00  0.00    +0.000 N 
ATOM     19  C   UNL     1       7.885   5.556  19.775  0.00  0.00    +0.000 C 
ENDBRANCH  13  14
ENDBRANCH  12  13
ENDBRANCH   5  12
ENDBRANCH   1   9
BRANCH   2  20
ATOM     20  C   UNL     1       1.426   8.125  20.532  0.00  0.00    +0.000 A 
ATOM     21  C   UNL     1       0.827   8.962  19.593  0.00  0.00    +0.000 A 
ATOM     22  C   UNL     1       0.287  10.165  20.034  0.00  0.00    +0.000 A 
ATOM     23  C   UNL     1       0.413  10.510  21.383  0.00  0.00    +0.000 A 
ATOM     24  C   UNL     1       1.032   9.616  22.242  0.00  0.00    +0.000 A 
ATOM     25  N   UNL     1       1.532   8.420  21.856  0.00  0.00    +0.000 NA
BRANCH  22  26
ATOM     26  C   UNL     1      -0.397  11.108  19.107  0.00  0.00    +0.000 C 
ATOM     27  O   UNL     1       0.137  12.180  18.842  0.00  0.00    +0.000 OA
ATOM     28  N   UNL     1      -1.635  10.730  18.614  0.00  0.00    +0.000 N 
ATOM     29  H   UNL     1      -2.121   9.945  19.028  0.00  0.00    +0.000 HD
BRANCH  28  30
ATOM     30  C   UNL     1      -2.408  11.635  17.761  0.00  0.00    +0.000 C 
ATOM     31  C   UNL     1      -3.825  11.812  18.266  0.00  0.00    +0.000 C 
ATOM     32  C   UNL     1      -4.654  10.871  17.418  0.00  0.00    +0.000 C 
ATOM     33  O   UNL     1      -3.935  10.605  16.214  0.00  0.00    +0.000 OA
ATOM     34  C   UNL     1      -2.602  11.116  16.339  0.00  0.00    +0.000 C 
ENDBRANCH  28  30
ENDBRANCH  22  26
ENDBRANCH   2  20
TORSDOF 7
ENDMDL
MODEL 2
REMARK VINA RESULT:      -8.1      3.974      5.772
REMARK  Name = 
REMARK  9 active torsions:
REMARK  status: ('A' for Active; 'I' for Inactive)
REMARK    1  A    between atoms: C_1  and  C_2
REMARK    2  A    between atoms: C_2  and  C_3
REMARK    3  A    between atoms: C_2  and  C_10
REMARK    4  A    between atoms: C_3  and  C_4
REMARK    5  A    between atoms: N_8  and  C_9
REMARK    6  A    between atoms: C_14  and  N_15
REMARK    7  A    between atoms: C_16  and  C_18
REMARK    8  A    between atoms: C_20  and  C_21
REMARK    9  A    between atoms: N_23  and  C_24
REMARK                            x       y       z     vdW  Elec       q    Type
REMARK                         _______ _______ _______ _____ _____    ______ ____
ROOT
ATOM      1  N   UNL     1      -0.126  10.588  20.489  0.00  0.00    +0.000 N 
ATOM      2  C   UNL     1       0.265  11.692  21.241  0.00  0.00    +0.000 C 
ATOM      3  O   UNL     1       1.398  12.158  21.321  0.00  0.00    +0.000 OA
ATOM      4  H   UNL     1      -1.129  10.413  20.469  0.00  0.00    +0.000 HD
ENDROOT
BRANCH   1   9
ATOM      5  C   UNL     1       2.024   7.686  19.545  0.00  0.00    +0.000 A 
ATOM      6  C   UNL     1       2.375   8.048  18.237  0.00  0.00    +0.000 A 
ATOM      7  C   UNL     1       1.933   9.247  17.686  0.00  0.00    +0.000 A 
ATOM      8  C   UNL     1       1.115  10.095  18.423  0.00  0.00    +0.000 A 
ATOM      9  C   UNL     1       0.722   9.765  19.719  0.00  0.00    +0.000 A 
ATOM     10  C   UNL     1       1.199   8.568  20.281  0.00  0.00    +0.000 A 
BRANCH   5  12
ATOM     11  C   UNL     1       3.605   5.664  19.368  0.00  0.00    +0.000 C 
ATOM     12  C   UNL     1       2.515   6.384  20.189  0.00  0.00    +0.000 C 
BRANCH  12  13
ATOM     13  C   UNL     1       1.320   5.443  20.473  0.00  0.00    +0.000 C 
BRANCH  13  14
ATOM     14  C   UNL     1       1.747   4.074  20.884  0.00  0.00    +0.000 A 
ATOM     15  N   UNL     1       2.311   3.741  22.029  0.00  0.00    +0.000 NA
ATOM     16  N   UNL     1       2.615   2.401  21.983  0.00  0.00    +0.000 NA
ATOM     17  C   UNL     1       2.221   1.943  20.820  0.00  0.00    +0.000 A 
ATOM     18  N   UNL     1       1.642   2.948  20.110  0.00  0.00    +0.000 N 
ATOM     19  C   UNL     1       1.040   2.834  18.809  0.00  0.00    +0.000 C 
ENDBRANCH  13  14
ENDBRANCH  12  13
ENDBRANCH   5  12
ENDBRANCH   1   9
BRANCH   2  20
ATOM     20  C   UNL     1      -0.834  12.390  21.971  0.00  0.00    +0.000 A 
ATOM     21  C   UNL     1      -2.138  12.255  21.500  0.00  0.00    +0.000 A 
ATOM     22  C   UNL     1      -3.161  12.874  22.208  0.00  0.00    +0.000 A 
ATOM     23  C   UNL     1      -2.839  13.647  23.328  0.00  0.00    +0.000 A 
ATOM     24  C   UNL     1      -1.511  13.729  23.718  0.00  0.00    +0.000 A 
ATOM     25  N   UNL     1      -0.496  13.107  23.076  0.00  0.00    +0.000 NA
BRANCH  22  26
ATOM     26  C   UNL     1      -4.587  12.761  21.794  0.00  0.00    +0.000 C 
ATOM     27  O   UNL     1      -5.451  12.626  22.654  0.00  0.00    +0.000 OA
ATOM     28  N   UNL     1      -4.858  12.780  20.436  0.00  0.00    +0.000 N 
ATOM     29  H   UNL     1      -4.101  12.677  19.772  0.00  0.00    +0.000 HD
BRANCH  28  30
ATOM     30  C   UNL     1      -6.225  12.594  19.944  0.00  0.00    +0.000 C 
ATOM     31  C   UNL     1      -6.704  11.170  20.138  0.00  0.00    +0.000 C 
ATOM     32  C   UNL     1      -6.504  10.513  18.789  0.00  0.00    +0.000 C 
ATOM     33  O   UNL     1      -6.455  11.536  17.796  0.00  0.00    +0.000 OA
ATOM     34  C   UNL     1      -6.368  12.813  18.440  0.00  0.00    +0.000 C 
ENDBRANCH  28  30
ENDBRANCH  22  26
ENDBRANCH   2  20
TORSDOF 7
ENDMDL
MODEL 3
REMARK VINA RESULT:      -8.0      2.588      9.576
REMARK  Name = 
REMARK  9 active torsions:
REMARK  status: ('A' for Active; 'I' for Inactive)
REMARK    1  A    between atoms: C_1  and  C_2
REMARK    2  A    between atoms: C_2  and  C_3
REMARK    3  A    between atoms: C_2  and  C_10
REMARK    4  A    between atoms: C_3  and  C_4
REMARK    5  A    between atoms: N_8  and  C_9
REMARK    6  A    between atoms: C_14  and  N_15
REMARK    7  A    between atoms: C_16  and  C_18
REMARK    8  A    between atoms: C_20  and  C_21
REMARK    9  A    between atoms: N_23  and  C_24
REMARK                            x       y       z     vdW  Elec       q    Type
REMARK                         _______ _______ _______ _____ _____    ______ ____
ROOT
ATOM      1  N   UNL     1       0.728   7.660  21.142  0.00  0.00    +0.000 N 
ATOM      2  C   UNL     1       1.674   7.333  20.173  0.00  0.00    +0.000 C 
ATOM      3  O   UNL     1       2.217   8.108  19.391  0.00  0.00    +0.000 OA
ATOM      4  H   UNL     1       0.467   6.897  21.764  0.00  0.00    +0.000 HD
ENDROOT
BRANCH   1   9
ATOM      5  C   UNL     1      -0.764  11.006  20.425  0.00  0.00    +0.000 A 
ATOM      6  C   UNL     1      -0.969  11.474  21.730  0.00  0.00    +0.000 A 
ATOM      7  C   UNL     1      -0.592  10.710  22.830  0.00  0.00    +0.000 A 
ATOM      8  C   UNL     1      -0.024   9.454  22.646  0.00  0.00    +0.000 A 
ATOM      9  C   UNL     1       0.177   8.938  21.367  0.00  0.00    +0.000 A 
ATOM     10  C   UNL     1      -0.176   9.730  20.260  0.00  0.00    +0.000 A 
BRANCH   5  12
ATOM     11  C   UNL     1      -0.788  13.330  19.322  0.00  0.00    +0.000 C 
ATOM     12  C   UNL     1      -1.145  11.834  19.192  0.00  0.00    +0.000 C 
BRANCH  12  13
ATOM     13  C   UNL     1      -2.647  11.648  18.865  0.00  0.00    +0.000 C 
BRANCH  13  14
ATOM     14  C   UNL     1      -2.876  11.082  17.505  0.00  0.00    +0.000 A 
ATOM     15  N   UNL     1      -2.034  10.337  16.814  0.00  0.00    +0.000 NA
ATOM     16  N   UNL     1      -2.594  10.085  15.583  0.00  0.00    +0.000 NA
ATOM     17  C   UNL     1      -3.767  10.669  15.553  0.00  0.00    +0.000 A 
ATOM     18  N   UNL     1      -4.001  11.279  16.746  0.00  0.00    +0.000 N 
ATOM     19  C   UNL     1      -5.197  11.981  17.122  0.00  0.00    +0.000 C 
ENDBRANCH  13  14
ENDBRANCH  12  13
ENDBRANCH   5  12
ENDBRANCH   1   9
BRANCH   2  20
ATOM     20  C   UNL     1       2.088   5.900  20.142  0.00  0.00    +0.000 A 
ATOM     21  C   UNL     1       2.799   5.436  19.037  0.00  0.00    +0.000 A 
ATOM     22  C   UNL     1       3.217   4.110  19.034  0.00  0.00    +0.000 A 
ATOM     23  C   UNL     1       2.865   3.285  20.106  0.00  0.00    +0.000 A 
ATOM     24  C   UNL     1       2.149   3.834  21.158  0.00  0.00    +0.000 A 
ATOM     25  N   UNL     1       1.761   5.129  21.214  0.00  0.00    +0.000 NA
BRANCH  22  26
ATOM     26  C   UNL     1       4.006   3.536  17.909  0.00  0.00    +0.000 C 
ATOM     27  O   UNL     1       3.890   2.344  17.643  0.00  0.00    +0.000 OA
ATOM     28  N   UNL     1       4.866   4.388  17.235  0.00  0.00    +0.000 N 
ATOM     29  H   UNL     1       5.081   5.296  17.627  0.00  0.00    +0.000 HD
BRANCH  28  30
ATOM     30  C   UNL     1       5.735   3.883  16.170  0.00  0.00    +0.000 C 
ATOM     31  C   UNL     1       7.181   4.276  16.389  0.00  0.00    +0.000 C 
ATOM     32  C   UNL     1       7.387   5.487  15.503  0.00  0.00    +0.000 C 
ATOM     33  O   UNL     1       6.390   5.467  14.482  0.00  0.00    +0.000 OA
ATOM     34  C   UNL     1       5.415   4.465  14.795  0.00  0.00    +0.000 C 
ENDBRANCH  28  30
ENDBRANCH  22  26
ENDBRANCH   2  20
TORSDOF 7
ENDMDL
MODEL 4
REMARK VINA RESULT:      -8.0      5.280      7.447
REMARK  Name = 
REMARK  9 active torsions:
REMARK  status: ('A' for Active; 'I' for Inactive)
REMARK    1  A    between atoms: C_1  and  C_2
REMARK    2  A    between atoms: C_2  and  C_3
REMARK    3  A    between atoms: C_2  and  C_10
REMARK    4  A    between atoms: C_3  and  C_4
REMARK    5  A    between atoms: N_8  and  C_9
REMARK    6  A    between atoms: C_14  and  N_15
REMARK    7  A    between atoms: C_16  and  C_18
REMARK    8  A    between atoms: C_20  and  C_21
REMARK    9  A    between atoms: N_23  and  C_24
REMARK                            x       y       z     vdW  Elec       q    Type
REMARK                         _______ _______ _______ _____ _____    ______ ____
ROOT
ATOM      1  N   UNL     1       8.311   9.230  17.749  0.00  0.00    +0.000 N 
ATOM      2  C   UNL     1       8.989  10.036  18.659  0.00  0.00    +0.000 C 
ATOM      3  O   UNL     1       9.361   9.716  19.784  0.00  0.00    +0.000 OA
ATOM      4  H   UNL     1       8.175   9.639  16.827  0.00  0.00    +0.000 HD
ENDROOT
BRANCH   1   9
ATOM      5  C   UNL     1       6.469   6.018  17.268  0.00  0.00    +0.000 A 
ATOM      6  C   UNL     1       6.996   5.265  18.327  0.00  0.00    +0.000 A 
ATOM      7  C   UNL     1       7.922   5.820  19.204  0.00  0.00    +0.000 A 
ATOM      8  C   UNL     1       8.356   7.129  19.027  0.00  0.00    +0.000 A 
ATOM      9  C   UNL     1       7.876   7.907  17.974  0.00  0.00    +0.000 A 
ATOM     10  C   UNL     1       6.916   7.351  17.111  0.00  0.00    +0.000 A 
BRANCH   5  12
ATOM     11  C   UNL     1       4.102   5.051  16.982  0.00  0.00    +0.000 C 
ATOM     12  C   UNL     1       5.429   5.444  16.299  0.00  0.00    +0.000 C 
BRANCH  12  13
ATOM     13  C   UNL     1       6.026   4.249  15.517  0.00  0.00    +0.000 C 
BRANCH  13  14
ATOM     14  C   UNL     1       6.864   4.677  14.359  0.00  0.00    +0.000 A 
ATOM     15  N   UNL     1       7.899   5.493  14.401  0.00  0.00    +0.000 NA
ATOM     16  N   UNL     1       8.345   5.686  13.114  0.00  0.00    +0.000 NA
ATOM     17  C   UNL     1       7.583   4.976  12.318  0.00  0.00    +0.000 A 
ATOM     18  N   UNL     1       6.661   4.302  13.057  0.00  0.00    +0.000 N 
ATOM     19  C   UNL     1       5.679   3.379  12.555  0.00  0.00    +0.000 C 
ENDBRANCH  13  14
ENDBRANCH  12  13
ENDBRANCH   5  12
ENDBRANCH   1   9
BRANCH   2  20
ATOM     20  C   UNL     1       9.330  11.405  18.170  0.00  0.00    +0.000 A 
ATOM     21  C   UNL     1       8.374  12.412  18.288  0.00  0.00    +0.000 A 
ATOM     22  C   UNL     1       8.714  13.693  17.868  0.00  0.00    +0.000 A 
ATOM     23  C   UNL     1       9.973  13.909  17.300  0.00  0.00    +0.000 A 
ATOM     24  C   UNL     1      10.855  12.843  17.217  0.00  0.00    +0.000 A 
ATOM     25  N   UNL     1      10.573  11.593  17.652  0.00  0.00    +0.000 NA
BRANCH  22  26
ATOM     26  C   UNL     1       7.767  14.836  17.982  0.00  0.00    +0.000 C 
ATOM     27  O   UNL     1       8.210  15.979  18.031  0.00  0.00    +0.000 OA
ATOM     28  N   UNL     1       6.416  14.538  18.061  0.00  0.00    +0.000 N 
ATOM     29  H   UNL     1       6.123  13.584  18.232  0.00  0.00    +0.000 HD
BRANCH  28  30
ATOM     30  C   UNL     1       5.426  15.600  18.255  0.00  0.00    +0.000 C 
ATOM     31  C   UNL     1       5.073  15.780  19.717  0.00  0.00    +0.000 C 
ATOM     32  C   UNL     1       3.775  15.020  19.893  0.00  0.00    +0.000 C 
ATOM     33  O   UNL     1       3.155  14.893  18.614  0.00  0.00    +0.000 OA
ATOM     34  C   UNL     1       4.080  15.305  17.600  0.00  0.00    +0.000 C 
ENDBRANCH  28  30
ENDBRANCH  22  26
ENDBRANCH   2  20
TORSDOF 7
ENDMDL
MODEL 5
REMARK VINA RESULT:      -7.9      5.061      8.908
REMARK  Name = 
REMARK  9 active torsions:
REMARK  status: ('A' for Active; 'I' for Inactive)
REMARK    1  A    between atoms: C_1  and  C_2
REMARK    2  A    between atoms: C_2  and  C_3
REMARK    3  A    between atoms: C_2  and  C_10
REMARK    4  A    between atoms: C_3  and  C_4
REMARK    5  A    between atoms: N_8  and  C_9
REMARK    6  A    between atoms: C_14  and  N_15
REMARK    7  A    between atoms: C_16  and  C_18
REMARK    8  A    between atoms: C_20  and  C_21
REMARK    9  A    between atoms: N_23  and  C_24
REMARK                            x       y       z     vdW  Elec       q    Type
REMARK                         _______ _______ _______ _____ _____    ______ ____
ROOT
ATOM      1  N   UNL     1       7.681   8.535  17.512  0.00  0.00    +0.000 N 
ATOM      2  C   UNL     1       7.682   7.205  17.926  0.00  0.00    +0.000 C 
ATOM      3  O   UNL     1       8.251   6.747  18.913  0.00  0.00    +0.000 OA
ATOM      4  H   UNL     1       7.069   8.741  16.724  0.00  0.00    +0.000 HD
ENDROOT
BRANCH   1   9
ATOM      5  C   UNL     1       8.938  11.990  18.155  0.00  0.00    +0.000 A 
ATOM      6  C   UNL     1       9.705  11.769  19.308  0.00  0.00    +0.000 A 
ATOM      7  C   UNL     1       9.830  10.492  19.846  0.00  0.00    +0.000 A 
ATOM      8  C   UNL     1       9.173   9.418  19.257  0.00  0.00    +0.000 A 
ATOM      9  C   UNL     1       8.381   9.596  18.123  0.00  0.00    +0.000 A 
ATOM     10  C   UNL     1       8.287  10.883  17.566  0.00  0.00    +0.000 A 
BRANCH   5  12
ATOM     11  C   UNL     1      10.013  14.299  17.788  0.00  0.00    +0.000 C 
ATOM     12  C   UNL     1       8.802  13.381  17.523  0.00  0.00    +0.000 C 
BRANCH  12  13
ATOM     13  C   UNL     1       7.485  14.051  17.983  0.00  0.00    +0.000 C 
BRANCH  13  14
ATOM     14  C   UNL     1       7.629  14.782  19.275  0.00  0.00    +0.000 A 
ATOM     15  N   UNL     1       7.680  14.244  20.478  0.00  0.00    +0.000 NA
ATOM     16  N   UNL     1       7.741  15.262  21.401  0.00  0.00    +0.000 NA
ATOM     17  C   UNL     1       7.737  16.396  20.744  0.00  0.00    +0.000 A 
ATOM     18  N   UNL     1       7.700  16.145  19.407  0.00  0.00    +0.000 N 
ATOM     19  C   UNL     1       7.734  17.125  18.357  0.00  0.00    +0.000 C 
ENDBRANCH  13  14
ENDBRANCH  12  13
ENDBRANCH   5  12
ENDBRANCH   1   9
BRANCH   2  20
ATOM     20  C   UNL     1       6.859   6.277  17.097  0.00  0.00    +0.000 A 
ATOM     21  C   UNL     1       5.706   5.729  17.656  0.00  0.00    +0.000 A 
ATOM     22  C   UNL     1       4.922   4.898  16.864  0.00  0.00    +0.000 A 
ATOM     23  C   UNL     1       5.344   4.604  15.564  0.00  0.00    +0.000 A 
ATOM     24  C   UNL     1       6.510   5.191  15.096  0.00  0.00    +0.000 A 
ATOM     25  N   UNL     1       7.275   6.036  15.824  0.00  0.00    +0.000 NA
BRANCH  22  26
ATOM     26  C   UNL     1       3.660   4.290  17.368  0.00  0.00    +0.000 C 
ATOM     27  O   UNL     1       2.998   3.578  16.621  0.00  0.00    +0.000 OA
ATOM     28  N   UNL     1       3.281   4.596  18.665  0.00  0.00    +0.000 N 
ATOM     29  H   UNL     1       3.743   5.350  19.158  0.00  0.00    +0.000 HD
BRANCH  28  30
ATOM     30  C   UNL     1       2.013   4.103  19.209  0.00  0.00    +0.000 C 
ATOM     31  C   UNL     1       1.682   4.750  20.539  0.00  0.00    +0.000 C 
ATOM     32  C   UNL     1       2.118   3.737  21.576  0.00  0.00    +0.000 C 
ATOM     33  O   UNL     1       2.167   2.454  20.954  0.00  0.00    +0.000 OA
ATOM     34  C   UNL     1       2.028   2.612  19.536  0.00  0.00    +0.000 C 
ENDBRANCH  28  30
ENDBRANCH  22  26
ENDBRANCH   2  20
TORSDOF 7
ENDMDL
MODEL 6
REMARK VINA RESULT:      -7.9      2.025      3.151
REMARK  Name = 
REMARK  9 active torsions:
REMARK  status: ('A' for Active; 'I' for Inactive)
REMARK    1  A    between atoms: C_1  and  C_2
REMARK    2  A    between atoms: C_2  and  C_3
REMARK    3  A    between atoms: C_2  and  C_10
REMARK    4  A    between atoms: C_3  and  C_4
REMARK    5  A    between atoms: N_8  and  C_9
REMARK    6  A    between atoms: C_14  and  N_15
REMARK    7  A    between atoms: C_16  and  C_18
REMARK    8  A    between atoms: C_20  and  C_21
REMARK    9  A    between atoms: N_23  and  C_24
REMARK                            x       y       z     vdW  Elec       q    Type
REMARK                         _______ _______ _______ _____ _____    ______ ____
ROOT
ATOM      1  N   UNL     1       2.111   6.718  18.746  0.00  0.00    +0.000 N 
ATOM      2  C   UNL     1       1.942   6.800  20.125  0.00  0.00    +0.000 C 
ATOM      3  O   UNL     1       2.269   5.954  20.953  0.00  0.00    +0.000 OA
ATOM      4  H   UNL     1       1.868   7.562  18.230  0.00  0.00    +0.000 HD
ENDROOT
BRANCH   1   9
ATOM      5  C   UNL     1       4.485   4.680  16.710  0.00  0.00    +0.000 A 
ATOM      6  C   UNL     1       3.786   3.466  16.648  0.00  0.00    +0.000 A 
ATOM      7  C   UNL     1       2.536   3.333  17.244  0.00  0.00    +0.000 A 
ATOM      8  C   UNL     1       1.971   4.401  17.931  0.00  0.00    +0.000 A 
ATOM      9  C   UNL     1       2.641   5.619  18.037  0.00  0.00    +0.000 A 
ATOM     10  C   UNL     1       3.889   5.757  17.405  0.00  0.00    +0.000 A 
BRANCH   5  12
ATOM     11  C   UNL     1       6.139   3.840  14.926  0.00  0.00    +0.000 C 
ATOM     12  C   UNL     1       5.853   4.867  16.043  0.00  0.00    +0.000 C 
BRANCH  12  13
ATOM     13  C   UNL     1       6.975   4.854  17.109  0.00  0.00    +0.000 C 
BRANCH  13  14
ATOM     14  C   UNL     1       7.414   6.225  17.502  0.00  0.00    +0.000 A 
ATOM     15  N   UNL     1       7.333   7.315  16.764  0.00  0.00    +0.000 NA
ATOM     16  N   UNL     1       7.911   8.349  17.462  0.00  0.00    +0.000 NA
ATOM     17  C   UNL     1       8.320   7.873  18.613  0.00  0.00    +0.000 A 
ATOM     18  N   UNL     1       8.001   6.553  18.696  0.00  0.00    +0.000 N 
ATOM     19  C   UNL     1       8.237   5.691  19.822  0.00  0.00    +0.000 C 
ENDBRANCH  13  14
ENDBRANCH  12  13
ENDBRANCH   5  12
ENDBRANCH   1   9
BRANCH   2  20
ATOM     20  C   UNL     1       1.351   8.077  20.623  0.00  0.00    +0.000 A 
ATOM     21  C   UNL     1       1.377   9.192  19.789  0.00  0.00    +0.000 A 
ATOM     22  C   UNL     1       0.788  10.367  20.243  0.00  0.00    +0.000 A 
ATOM     23  C   UNL     1       0.242  10.398  21.529  0.00  0.00    +0.000 A 
ATOM     24  C   UNL     1       0.268   9.239  22.290  0.00  0.00    +0.000 A 
ATOM     25  N   UNL     1       0.797   8.069  21.865  0.00  0.00    +0.000 NA
BRANCH  22  26
ATOM     26  C   UNL     1       0.745  11.600  19.409  0.00  0.00    +0.000 C 
ATOM     27  O   UNL     1      -0.035  11.657  18.464  0.00  0.00    +0.000 OA
ATOM     28  N   UNL     1       1.627  12.618  19.733  0.00  0.00    +0.000 N 
ATOM     29  H   UNL     1       2.386  12.437  20.377  0.00  0.00    +0.000 HD
BRANCH  28  30
ATOM     30  C   UNL     1       1.702  13.830  18.915  0.00  0.00    +0.000 C 
ATOM     31  C   UNL     1       2.878  13.791  17.959  0.00  0.00    +0.000 C 
ATOM     32  C   UNL     1       3.953  14.608  18.643  0.00  0.00    +0.000 C 
ATOM     33  O   UNL     1       3.324  15.476  19.585  0.00  0.00    +0.000 OA
ATOM     34  C   UNL     1       1.948  15.100  19.725  0.00  0.00    +0.000 C 
ENDBRANCH  28  30
ENDBRANCH  22  26
ENDBRANCH   2  20
TORSDOF 7
ENDMDL
MODEL 7
REMARK VINA RESULT:      -7.9      4.852      8.795
REMARK  Name = 
REMARK  9 active torsions:
REMARK  status: ('A' for Active; 'I' for Inactive)
REMARK    1  A    between atoms: C_1  and  C_2
REMARK    2  A    between atoms: C_2  and  C_3
REMARK    3  A    between atoms: C_2  and  C_10
REMARK    4  A    between atoms: C_3  and  C_4
REMARK    5  A    between atoms: N_8  and  C_9
REMARK    6  A    between atoms: C_14  and  N_15
REMARK    7  A    between atoms: C_16  and  C_18
REMARK    8  A    between atoms: C_20  and  C_21
REMARK    9  A    between atoms: N_23  and  C_24
REMARK                            x       y       z     vdW  Elec       q    Type
REMARK                         _______ _______ _______ _____ _____    ______ ____
ROOT
ATOM      1  N   UNL     1       7.807   9.088  17.785  0.00  0.00    +0.000 N 
ATOM      2  C   UNL     1       7.846   7.736  18.117  0.00  0.00    +0.000 C 
ATOM      3  O   UNL     1       8.551   7.215  18.977  0.00  0.00    +0.000 OA
ATOM      4  H   UNL     1       7.085   9.347  17.115  0.00  0.00    +0.000 HD
ENDROOT
BRANCH   1   9
ATOM      5  C   UNL     1       9.355  12.447  18.288  0.00  0.00    +0.000 A 
ATOM      6  C   UNL     1      10.155  12.190  19.410  0.00  0.00    +0.000 A 
ATOM      7  C   UNL     1      10.206  10.918  19.973  0.00  0.00    +0.000 A 
ATOM      8  C   UNL     1       9.442   9.887  19.440  0.00  0.00    +0.000 A 
ATOM      9  C   UNL     1       8.615  10.103  18.339  0.00  0.00    +0.000 A 
ATOM     10  C   UNL     1       8.594  11.382  17.755  0.00  0.00    +0.000 A 
BRANCH   5  12
ATOM     11  C   UNL     1      10.655  14.305  17.073  0.00  0.00    +0.000 C 
ATOM     12  C   UNL     1       9.297  13.831  17.629  0.00  0.00    +0.000 C 
BRANCH  12  13
ATOM     13  C   UNL     1       8.707  14.868  18.615  0.00  0.00    +0.000 C 
BRANCH  13  14
ATOM     14  C   UNL     1       7.243  15.080  18.424  0.00  0.00    +0.000 A 
ATOM     15  N   UNL     1       6.429  14.327  17.710  0.00  0.00    +0.000 NA
ATOM     16  N   UNL     1       5.181  14.904  17.730  0.00  0.00    +0.000 NA
ATOM     17  C   UNL     1       5.256  15.987  18.464  0.00  0.00    +0.000 A 
ATOM     18  N   UNL     1       6.521  16.122  18.946  0.00  0.00    +0.000 N 
ATOM     19  C   UNL     1       6.989  17.153  19.831  0.00  0.00    +0.000 C 
ENDBRANCH  13  14
ENDBRANCH  12  13
ENDBRANCH   5  12
ENDBRANCH   1   9
BRANCH   2  20
ATOM     20  C   UNL     1       6.886   6.867  17.376  0.00  0.00    +0.000 A 
ATOM     21  C   UNL     1       5.615   6.671  17.911  0.00  0.00    +0.000 A 
ATOM     22  C   UNL     1       4.712   5.894  17.194  0.00  0.00    +0.000 A 
ATOM     23  C   UNL     1       5.128   5.301  15.998  0.00  0.00    +0.000 A 
ATOM     24  C   UNL     1       6.415   5.548  15.547  0.00  0.00    +0.000 A 
ATOM     25  N   UNL     1       7.306   6.331  16.198  0.00  0.00    +0.000 NA
BRANCH  22  26
ATOM     26  C   UNL     1       3.324   5.653  17.675  0.00  0.00    +0.000 C 
ATOM     27  O   UNL     1       2.549   6.599  17.768  0.00  0.00    +0.000 OA
ATOM     28  N   UNL     1       2.989   4.356  18.029  0.00  0.00    +0.000 N 
ATOM     29  H   UNL     1       3.718   3.662  18.137  0.00  0.00    +0.000 HD
BRANCH  28  30
ATOM     30  C   UNL     1       1.670   4.050  18.586  0.00  0.00    +0.000 C 
ATOM     31  C   UNL     1       1.590   4.390  20.061  0.00  0.00    +0.000 C 
ATOM     32  C   UNL     1       1.807   3.070  20.770  0.00  0.00    +0.000 C 
ATOM     33  O   UNL     1       1.491   2.017  19.860  0.00  0.00    +0.000 OA
ATOM     34  C   UNL     1       1.321   2.564  18.547  0.00  0.00    +0.000 C 
ENDBRANCH  28  30
ENDBRANCH  22  26
ENDBRANCH   2  20
TORSDOF 7
ENDMDL
MODEL 8
REMARK VINA RESULT:      -7.8      2.083      2.485
REMARK  Name = 
REMARK  9 active torsions:
REMARK  status: ('A' for Active; 'I' for Inactive)
REMARK    1  A    between atoms: C_1  and  C_2
REMARK    2  A    between atoms: C_2  and  C_3
REMARK    3  A    between atoms: C_2  and  C_10
REMARK    4  A    between atoms: C_3  and  C_4
REMARK    5  A    between atoms: N_8  and  C_9
REMARK    6  A    between atoms: C_14  and  N_15
REMARK    7  A    between atoms: C_16  and  C_18
REMARK    8  A    between atoms: C_20  and  C_21
REMARK    9  A    between atoms: N_23  and  C_24
REMARK                            x       y       z     vdW  Elec       q    Type
REMARK                         _______ _______ _______ _____ _____    ______ ____
ROOT
ATOM      1  N   UNL     1       2.410   6.592  19.278  0.00  0.00    +0.000 N 
ATOM      2  C   UNL     1       1.947   7.846  18.887  0.00  0.00    +0.000 C 
ATOM      3  O   UNL     1       1.930   8.295  17.744  0.00  0.00    +0.000 OA
ATOM      4  H   UNL     1       2.250   6.359  20.257  0.00  0.00    +0.000 HD
ENDROOT
BRANCH   1   9
ATOM      5  C   UNL     1       4.641   5.094  16.687  0.00  0.00    +0.000 A 
ATOM      6  C   UNL     1       4.248   3.750  16.763  0.00  0.00    +0.000 A 
ATOM      7  C   UNL     1       3.239   3.351  17.635  0.00  0.00    +0.000 A 
ATOM      8  C   UNL     1       2.622   4.282  18.462  0.00  0.00    +0.000 A 
ATOM      9  C   UNL     1       2.997   5.624  18.437  0.00  0.00    +0.000 A 
ATOM     10  C   UNL     1       3.993   6.026  17.530  0.00  0.00    +0.000 A 
BRANCH   5  12
ATOM     11  C   UNL     1       5.407   5.283  14.238  0.00  0.00    +0.000 C 
ATOM     12  C   UNL     1       5.731   5.570  15.720  0.00  0.00    +0.000 C 
BRANCH  12  13
ATOM     13  C   UNL     1       7.100   4.966  16.116  0.00  0.00    +0.000 C 
BRANCH  13  14
ATOM     14  C   UNL     1       7.497   5.301  17.514  0.00  0.00    +0.000 A 
ATOM     15  N   UNL     1       7.710   4.444  18.494  0.00  0.00    +0.000 NA
ATOM     16  N   UNL     1       7.982   5.159  19.637  0.00  0.00    +0.000 NA
ATOM     17  C   UNL     1       7.942   6.432  19.329  0.00  0.00    +0.000 A 
ATOM     18  N   UNL     1       7.673   6.569  18.003  0.00  0.00    +0.000 N 
ATOM     19  C   UNL     1       7.598   7.806  17.274  0.00  0.00    +0.000 C 
ENDBRANCH  13  14
ENDBRANCH  12  13
ENDBRANCH   5  12
ENDBRANCH   1   9
BRANCH   2  20
ATOM     20  C   UNL     1       1.373   8.685  19.979  0.00  0.00    +0.000 A 
ATOM     21  C   UNL     1       0.586   9.782  19.633  0.00  0.00    +0.000 A 
ATOM     22  C   UNL     1       0.021  10.534  20.657  0.00  0.00    +0.000 A 
ATOM     23  C   UNL     1       0.304  10.196  21.983  0.00  0.00    +0.000 A 
ATOM     24  C   UNL     1       1.103   9.090  22.230  0.00  0.00    +0.000 A 
ATOM     25  N   UNL     1       1.636   8.312  21.261  0.00  0.00    +0.000 NA
BRANCH  22  26
ATOM     26  C   UNL     1      -0.855  11.706  20.381  0.00  0.00    +0.000 C 
ATOM     27  O   UNL     1      -0.599  12.434  19.427  0.00  0.00    +0.000 OA
ATOM     28  N   UNL     1      -1.909  11.931  21.251  0.00  0.00    +0.000 N 
ATOM     29  H   UNL     1      -1.947  11.434  22.132  0.00  0.00    +0.000 HD
BRANCH  28  30
ATOM     30  C   UNL     1      -2.769  13.107  21.095  0.00  0.00    +0.000 C 
ATOM     31  C   UNL     1      -3.262  13.624  22.431  0.00  0.00    +0.000 C 
ATOM     32  C   UNL     1      -4.659  13.057  22.569  0.00  0.00    +0.000 C 
ATOM     33  O   UNL     1      -5.139  12.730  21.266  0.00  0.00    +0.000 OA
ATOM     34  C   UNL     1      -4.058  12.823  20.329  0.00  0.00    +0.000 C 
ENDBRANCH  28  30
ENDBRANCH  22  26
ENDBRANCH   2  20
TORSDOF 7
ENDMDL
MODEL 9
REMARK VINA RESULT:      -7.8      2.322      3.262
REMARK  Name = 
REMARK  9 active torsions:
REMARK  status: ('A' for Active; 'I' for Inactive)
REMARK    1  A    between atoms: C_1  and  C_2
REMARK    2  A    between atoms: C_2  and  C_3
REMARK    3  A    between atoms: C_2  and  C_10
REMARK    4  A    between atoms: C_3  and  C_4
REMARK    5  A    between atoms: N_8  and  C_9
REMARK    6  A    between atoms: C_14  and  N_15
REMARK    7  A    between atoms: C_16  and  C_18
REMARK    8  A    between atoms: C_20  and  C_21
REMARK    9  A    between atoms: N_23  and  C_24
REMARK                            x       y       z     vdW  Elec       q    Type
REMARK                         _______ _______ _______ _____ _____    ______ ____
ROOT
ATOM      1  N   UNL     1       2.118   6.732  19.200  0.00  0.00    +0.000 N 
ATOM      2  C   UNL     1       1.775   8.000  18.739  0.00  0.00    +0.000 C 
ATOM      3  O   UNL     1       1.767   8.376  17.570  0.00  0.00    +0.000 OA
ATOM      4  H   UNL     1       1.967   6.579  20.195  0.00  0.00    +0.000 HD
ENDROOT
BRANCH   1   9
ATOM      5  C   UNL     1       4.265   4.766  16.863  0.00  0.00    +0.000 A 
ATOM      6  C   UNL     1       3.572   3.548  16.849  0.00  0.00    +0.000 A 
ATOM      7  C   UNL     1       2.397   3.388  17.576  0.00  0.00    +0.000 A 
ATOM      8  C   UNL     1       1.905   4.434  18.348  0.00  0.00    +0.000 A 
ATOM      9  C   UNL     1       2.573   5.656  18.410  0.00  0.00    +0.000 A 
ATOM     10  C   UNL     1       3.742   5.821  17.646  0.00  0.00    +0.000 A 
BRANCH   5  12
ATOM     11  C   UNL     1       5.680   4.034  14.843  0.00  0.00    +0.000 C 
ATOM     12  C   UNL     1       5.549   4.982  16.053  0.00  0.00    +0.000 C 
BRANCH  12  13
ATOM     13  C   UNL     1       6.788   4.880  16.975  0.00  0.00    +0.000 C 
BRANCH  13  14
ATOM     14  C   UNL     1       7.294   6.214  17.412  0.00  0.00    +0.000 A 
ATOM     15  N   UNL     1       7.298   7.322  16.698  0.00  0.00    +0.000 NA
ATOM     16  N   UNL     1       7.916   8.305  17.435  0.00  0.00    +0.000 NA
ATOM     17  C   UNL     1       8.264   7.781  18.585  0.00  0.00    +0.000 A 
ATOM     18  N   UNL     1       7.867   6.481  18.629  0.00  0.00    +0.000 N 
ATOM     19  C   UNL     1       8.020   5.582  19.740  0.00  0.00    +0.000 C 
ENDBRANCH  13  14
ENDBRANCH  12  13
ENDBRANCH   5  12
ENDBRANCH   1   9
BRANCH   2  20
ATOM     20  C   UNL     1       1.327   8.962  19.788  0.00  0.00    +0.000 A 
ATOM     21  C   UNL     1       0.909  10.231  19.393  0.00  0.00    +0.000 A 
ATOM     22  C   UNL     1       0.454  11.108  20.372  0.00  0.00    +0.000 A 
ATOM     23  C   UNL     1       0.482  10.704  21.710  0.00  0.00    +0.000 A 
ATOM     24  C   UNL     1       0.921   9.423  22.007  0.00  0.00    +0.000 A 
ATOM     25  N   UNL     1       1.332   8.531  21.078  0.00  0.00    +0.000 NA
BRANCH  22  26
ATOM     26  C   UNL     1      -0.037  12.474  20.039  0.00  0.00    +0.000 C 
ATOM     27  O   UNL     1      -1.088  12.598  19.419  0.00  0.00    +0.000 OA
ATOM     28  N   UNL     1       0.752  13.545  20.426  0.00  0.00    +0.000 N 
ATOM     29  H   UNL     1       1.700  13.382  20.739  0.00  0.00    +0.000 HD
BRANCH  28  30
ATOM     30  C   UNL     1       0.379  14.915  20.067  0.00  0.00    +0.000 C 
ATOM     31  C   UNL     1       1.152  15.411  18.862  0.00  0.00    +0.000 C 
ATOM     32  C   UNL     1       2.276  16.243  19.444  0.00  0.00    +0.000 C 
ATOM     33  O   UNL     1       1.895  16.652  20.757  0.00  0.00    +0.000 OA
ATOM     34  C   UNL     1       0.713  15.941  21.147  0.00  0.00    +0.000 C 
ENDBRANCH  28  30
ENDBRANCH  22  26
ENDBRANCH   2  20
TORSDOF 7
ENDMDL
