MODEL 1
REMARK VINA RESULT:      -8.4      0.000      0.000
REMARK  Name = 
REMARK  9 active torsions:
REMARK  status: ('A' for Active; 'I' for Inactive)
REMARK    1  A    between atoms: C_1  and  C_2
REMARK    2  A    between atoms: C_2  and  S_3
REMARK    3  A    between atoms: C_2  and  C_10
REMARK    4  A    between atoms: S_3  and  C_4
REMARK    5  A    between atoms: N_8  and  C_9
REMARK    6  A    between atoms: C_14  and  C_15
REMARK    7  A    between atoms: C_17  and  C_18
REMARK    8  A    between atoms: C_21  and  C_22
REMARK    9  A    between atoms: C_22  and  O_24
REMARK                            x       y       z     vdW  Elec       q    Type
REMARK                         _______ _______ _______ _____ _____    ______ ____
ROOT
ATOM      1  C   UNL     1      -1.074  11.124  21.731  0.00  0.00    +0.000 A 
ATOM      2  C   UNL     1      -0.944  10.607  23.030  0.00  0.00    +0.000 A 
ATOM      3  C   UNL     1      -0.130   9.504  23.286  0.00  0.00    +0.000 A 
ATOM      4  C   UNL     1       0.573   8.896  22.247  0.00  0.00    +0.000 A 
ATOM      5  C   UNL     1       0.479   9.393  20.943  0.00  0.00    +0.000 A 
ATOM      6  C   UNL     1      -0.342  10.503  20.700  0.00  0.00    +0.000 A 
ENDROOT
BRANCH   5   7
ATOM      7  C   UNL     1       1.255   8.789  19.876  0.00  0.00    +0.000 A 
ATOM      8  C   UNL     1       2.152   7.752  19.818  0.00  0.00    +0.000 A 
ATOM      9  C   UNL     1       2.579   7.707  18.468  0.00  0.00    +0.000 A 
ATOM     10  N   UNL     1       1.962   8.659  17.750  0.00  0.00    +0.000 NA
ATOM     11  O   UNL     1       1.131   9.327  18.632  0.00  0.00    +0.000 OA
BRANCH   9  12
ATOM     12  C   UNL     1       3.553   6.794  17.876  0.00  0.00    +0.000 A 
ATOM     13  C   UNL     1       4.455   7.253  16.906  0.00  0.00    +0.000 A 
ATOM     14  C   UNL     1       5.394   6.388  16.343  0.00  0.00    +0.000 A 
ATOM     15  C   UNL     1       5.442   5.046  16.736  0.00  0.00    +0.000 A 
ATOM     16  C   UNL     1       4.552   4.578  17.709  0.00  0.00    +0.000 A 
ATOM     17  C   UNL     1       3.609   5.450  18.270  0.00  0.00    +0.000 A 
BRANCH  15  18
ATOM     18  C   UNL     1       6.493   4.189  16.130  0.00  0.00    +0.000 C 
ATOM     19  O   UNL     1       7.680   4.466  16.189  0.00  0.00    +0.000 OA
BRANCH  18  20
ATOM     20  O   UNL     1       6.021   3.109  15.477  0.00  0.00    +0.000 OA
ATOM     21  H   UNL     1       5.923   3.214  14.514  0.00  0.00    +0.000 HD
ENDBRANCH  18  20
ENDBRANCH  15  18
ENDBRANCH   9  12
ENDBRANCH   5   7
BRANCH   1  23
ATOM     22  C   UNL     1      -1.469  13.154  20.205  0.00  0.00    +0.000 C 
ATOM     23  C   UNL     1      -1.971  12.319  21.391  0.00  0.00    +0.000 C 
BRANCH  23  24
ATOM     24  S   UNL     1      -2.128  13.381  22.888  0.00  0.00    +0.000 S 
BRANCH  24  25
ATOM     25  C   UNL     1      -3.720  13.019  23.438  0.00  0.00    +0.000 A 
ATOM     26  N   UNL     1      -4.078  12.131  24.337  0.00  0.00    +0.000 NA
ATOM     27  N   UNL     1      -5.457  12.113  24.376  0.00  0.00    +0.000 NA
ATOM     28  C   UNL     1      -5.890  13.006  23.514  0.00  0.00    +0.000 A 
ATOM     29  N   UNL     1      -4.829  13.624  22.925  0.00  0.00    +0.000 N 
ATOM     30  C   UNL     1      -4.889  14.679  21.950  0.00  0.00    +0.000 C 
ENDBRANCH  24  25
ENDBRANCH  23  24
ENDBRANCH   1  23
TORSDOF 7
ENDMDL
MODEL 2
REMARK VINA RESULT:      -8.4      7.491     10.100
REMARK  Name = 
REMARK  9 active torsions:
REMARK  status: ('A' for Active; 'I' for Inactive)
REMARK    1  A    between atoms: C_1  and  C_2
REMARK    2  A    between atoms: C_2  and  S_3
REMARK    3  A    between atoms: C_2  and  C_10
REMARK    4  A    between atoms: S_3  and  C_4
REMARK    5  A    between atoms: N_8  and  C_9
REMARK    6  A    between atoms: C_14  and  C_15
REMARK    7  A    between atoms: C_17  and  C_18
REMARK    8  A    between atoms: C_21  and  C_22
REMARK    9  A    between atoms: C_22  and  O_24
REMARK                            x       y       z     vdW  Elec       q    Type
REMARK                         _______ _______ _______ _____ _____    ______ ____
ROOT
ATOM      1  C   UNL     1       4.287   4.483  16.853  0.00  0.00    +0.000 A 
ATOM      2  C   UNL     1       4.897   3.673  15.881  0.00  0.00    +0.000 A 
ATOM      3  C   UNL     1       6.208   3.911  15.467  0.00  0.00    +0.000 A 
ATOM      4  C   UNL     1       6.936   4.964  16.016  0.00  0.00    +0.000 A 
ATOM      5  C   UNL     1       6.366   5.783  16.998  0.00  0.00    +0.000 A 
ATOM      6  C   UNL     1       5.049   5.532  17.407  0.00  0.00    +0.000 A 
ENDROOT
BRANCH   5   7
ATOM      7  C   UNL     1       7.149   6.843  17.605  0.00  0.00    +0.000 A 
ATOM      8  C   UNL     1       7.277   8.188  17.369  0.00  0.00    +0.000 A 
ATOM      9  C   UNL     1       8.244   8.637  18.302  0.00  0.00    +0.000 A 
ATOM     10  N   UNL     1       8.666   7.618  19.066  0.00  0.00    +0.000 NA
ATOM     11  O   UNL     1       7.973   6.501  18.633  0.00  0.00    +0.000 OA
BRANCH   9  12
ATOM     12  C   UNL     1       8.764   9.993  18.458  0.00  0.00    +0.000 A 
ATOM     13  C   UNL     1       9.693  10.284  19.467  0.00  0.00    +0.000 A 
ATOM     14  C   UNL     1      10.200  11.575  19.615  0.00  0.00    +0.000 A 
ATOM     15  C   UNL     1       9.780  12.601  18.761  0.00  0.00    +0.000 A 
ATOM     16  C   UNL     1       8.859  12.321  17.746  0.00  0.00    +0.000 A 
ATOM     17  C   UNL     1       8.351  11.023  17.601  0.00  0.00    +0.000 A 
BRANCH  15  18
ATOM     18  C   UNL     1      10.390  13.942  18.944  0.00  0.00    +0.000 C 
ATOM     19  O   UNL     1      11.516  14.096  19.389  0.00  0.00    +0.000 OA
BRANCH  18  20
ATOM     20  O   UNL     1       9.581  14.970  18.622  0.00  0.00    +0.000 OA
ATOM     21  H   UNL     1       9.254  15.497  19.373  0.00  0.00    +0.000 HD
ENDBRANCH  18  20
ENDBRANCH  15  18
ENDBRANCH   9  12
ENDBRANCH   5   7
BRANCH   1  23
ATOM     22  C   UNL     1       2.458   5.159  18.526  0.00  0.00    +0.000 C 
ATOM     23  C   UNL     1       2.845   4.280  17.329  0.00  0.00    +0.000 C 
BRANCH  23  24
ATOM     24  S   UNL     1       2.610   2.502  17.750  0.00  0.00    +0.000 S 
BRANCH  24  25
ATOM     25  C   UNL     1       2.205   2.564  19.423  0.00  0.00    +0.000 A 
ATOM     26  N   UNL     1       1.020   2.741  19.958  0.00  0.00    +0.000 NA
ATOM     27  N   UNL     1       1.190   2.829  21.324  0.00  0.00    +0.000 NA
ATOM     28  C   UNL     1       2.471   2.681  21.575  0.00  0.00    +0.000 A 
ATOM     29  N   UNL     1       3.144   2.478  20.408  0.00  0.00    +0.000 N 
ATOM     30  C   UNL     1       4.556   2.245  20.266  0.00  0.00    +0.000 C 
ENDBRANCH  24  25
ENDBRANCH  23  24
ENDBRANCH   1  23
TORSDOF 7
ENDMDL
MODEL 3
REMARK VINA RESULT:      -8.1      3.282      3.776
REMARK  Name = 
REMARK  9 active torsions:
REMARK  status: ('A' for Active; 'I' for Inactive)
REMARK    1  A    between atoms: C_1  and  C_2
REMARK    2  A    between atoms: C_2  and  S_3
REMARK    3  A    between atoms: C_2  and  C_10
REMARK    4  A    between atoms: S_3  and  C_4
REMARK    5  A    between atoms: N_8  and  C_9
REMARK    6  A    between atoms: C_14  and  C_15
REMARK    7  A    between atoms: C_17  and  C_18
REMARK    8  A    between atoms: C_21  and  C_22
REMARK    9  A    between atoms: C_22  and  O_24
REMARK                            x       y       z     vdW  Elec       q    Type
REMARK                         _______ _______ _______ _____ _____    ______ ____
ROOT
ATOM      1  C   UNL     1      -0.307  11.213  21.026  0.00  0.00    +0.000 A 
ATOM      2  C   UNL     1      -0.718  10.964  22.346  0.00  0.00    +0.000 A 
ATOM      3  C   UNL     1      -0.422   9.755  22.975  0.00  0.00    +0.000 A 
ATOM      4  C   UNL     1       0.292   8.769  22.297  0.00  0.00    +0.000 A 
ATOM      5  C   UNL     1       0.729   8.987  20.986  0.00  0.00    +0.000 A 
ATOM      6  C   UNL     1       0.427  10.207  20.366  0.00  0.00    +0.000 A 
ENDROOT
BRANCH   5   7
ATOM      7  C   UNL     1       1.519   7.978  20.304  0.00  0.00    +0.000 A 
ATOM      8  C   UNL     1       2.300   7.979  19.176  0.00  0.00    +0.000 A 
ATOM      9  C   UNL     1       2.759   6.646  19.043  0.00  0.00    +0.000 A 
ATOM     10  N   UNL     1       2.289   5.886  20.044  0.00  0.00    +0.000 NA
ATOM     11  O   UNL     1       1.522   6.724  20.834  0.00  0.00    +0.000 OA
BRANCH   9  12
ATOM     12  C   UNL     1       3.611   6.103  17.989  0.00  0.00    +0.000 A 
ATOM     13  C   UNL     1       4.353   6.960  17.164  0.00  0.00    +0.000 A 
ATOM     14  C   UNL     1       5.176   6.447  16.161  0.00  0.00    +0.000 A 
ATOM     15  C   UNL     1       5.265   5.065  15.960  0.00  0.00    +0.000 A 
ATOM     16  C   UNL     1       4.535   4.198  16.781  0.00  0.00    +0.000 A 
ATOM     17  C   UNL     1       3.709   4.719  17.786  0.00  0.00    +0.000 A 
BRANCH  15  18
ATOM     18  C   UNL     1       6.191   4.581  14.905  0.00  0.00    +0.000 C 
ATOM     19  O   UNL     1       7.402   4.702  14.989  0.00  0.00    +0.000 OA
BRANCH  18  20
ATOM     20  O   UNL     1       5.579   4.041  13.833  0.00  0.00    +0.000 OA
ATOM     21  H   UNL     1       4.932   4.616  13.387  0.00  0.00    +0.000 HD
ENDBRANCH  18  20
ENDBRANCH  15  18
ENDBRANCH   9  12
ENDBRANCH   5   7
BRANCH   1  23
ATOM     22  C   UNL     1      -1.834  12.412  19.343  0.00  0.00    +0.000 C 
ATOM     23  C   UNL     1      -0.623  12.513  20.281  0.00  0.00    +0.000 C 
BRANCH  23  24
ATOM     24  S   UNL     1       0.870  13.023  19.329  0.00  0.00    +0.000 S 
BRANCH  24  25
ATOM     25  C   UNL     1       1.790  13.879  20.507  0.00  0.00    +0.000 A 
ATOM     26  N   UNL     1       2.647  13.387  21.372  0.00  0.00    +0.000 NA
ATOM     27  N   UNL     1       3.059  14.423  22.183  0.00  0.00    +0.000 NA
ATOM     28  C   UNL     1       2.455  15.515  21.771  0.00  0.00    +0.000 A 
ATOM     29  N   UNL     1       1.672  15.224  20.696  0.00  0.00    +0.000 N 
ATOM     30  C   UNL     1       0.875  16.155  19.943  0.00  0.00    +0.000 C 
ENDBRANCH  24  25
ENDBRANCH  23  24
ENDBRANCH   1  23
TORSDOF 7
ENDMDL
MODEL 4
REMARK VINA RESULT:      -8.1      3.353      3.909
REMARK  Name = 
REMARK  9 active torsions:
REMARK  status: ('A' for Active; 'I' for Inactive)
REMARK    1  A    between atoms: C_1  and  C_2
REMARK    2  A    between atoms: C_2  and  S_3
REMARK    3  A    between atoms: C_2  and  C_10
REMARK    4  A    between atoms: S_3  and  C_4
REMARK    5  A    between atoms: N_8  and  C_9
REMARK    6  A    between atoms: C_14  and  C_15
REMARK    7  A    between atoms: C_17  and  C_18
REMARK    8  A    between atoms: C_21  and  C_22
REMARK    9  A    between atoms: C_22  and  O_24
REMARK                            x       y       z     vdW  Elec       q    Type
REMARK                         _______ _______ _______ _____ _____    ______ ____
ROOT
ATOM      1  C   UNL     1      -0.133  10.948  20.698  0.00  0.00    +0.000 A 
ATOM      2  C   UNL     1      -0.602  10.624  21.982  0.00  0.00    +0.000 A 
ATOM      3  C   UNL     1      -0.314   9.388  22.561  0.00  0.00    +0.000 A 
ATOM      4  C   UNL     1       0.450   8.451  21.869  0.00  0.00    +0.000 A 
ATOM      5  C   UNL     1       0.947   8.745  20.594  0.00  0.00    +0.000 A 
ATOM      6  C   UNL     1       0.652   9.991  20.025  0.00  0.00    +0.000 A 
ENDROOT
BRANCH   5   7
ATOM      7  C   UNL     1       1.787   7.786  19.902  0.00  0.00    +0.000 A 
ATOM      8  C   UNL     1       2.554   7.836  18.765  0.00  0.00    +0.000 A 
ATOM      9  C   UNL     1       3.091   6.534  18.623  0.00  0.00    +0.000 A 
ATOM     10  N   UNL     1       2.678   5.745  19.627  0.00  0.00    +0.000 NA
ATOM     11  O   UNL     1       1.871   6.534  20.428  0.00  0.00    +0.000 OA
BRANCH   9  12
ATOM     12  C   UNL     1       3.962   6.044  17.558  0.00  0.00    +0.000 A 
ATOM     13  C   UNL     1       4.123   4.667  17.350  0.00  0.00    +0.000 A 
ATOM     14  C   UNL     1       4.947   4.194  16.329  0.00  0.00    +0.000 A 
ATOM     15  C   UNL     1       5.631   5.091  15.501  0.00  0.00    +0.000 A 
ATOM     16  C   UNL     1       5.473   6.467  15.693  0.00  0.00    +0.000 A 
ATOM     17  C   UNL     1       4.646   6.939  16.722  0.00  0.00    +0.000 A 
BRANCH  15  18
ATOM     18  C   UNL     1       6.458   4.523  14.406  0.00  0.00    +0.000 C 
ATOM     19  O   UNL     1       7.290   5.182  13.803  0.00  0.00    +0.000 OA
BRANCH  18  20
ATOM     20  O   UNL     1       6.180   3.239  14.107  0.00  0.00    +0.000 OA
ATOM     21  H   UNL     1       6.942   2.700  13.831  0.00  0.00    +0.000 HD
ENDBRANCH  18  20
ENDBRANCH  15  18
ENDBRANCH   9  12
ENDBRANCH   5   7
BRANCH   1  23
ATOM     22  C   UNL     1      -1.576  12.200  18.981  0.00  0.00    +0.000 C 
ATOM     23  C   UNL     1      -0.437  12.280  20.007  0.00  0.00    +0.000 C 
BRANCH  23  24
ATOM     24  S   UNL     1       1.101  12.886  19.194  0.00  0.00    +0.000 S 
BRANCH  24  25
ATOM     25  C   UNL     1       1.839  13.821  20.438  0.00  0.00    +0.000 A 
ATOM     26  N   UNL     1       2.717  13.424  21.330  0.00  0.00    +0.000 NA
ATOM     27  N   UNL     1       2.942  14.480  22.189  0.00  0.00    +0.000 NA
ATOM     28  C   UNL     1       2.209  15.490  21.777  0.00  0.00    +0.000 A 
ATOM     29  N   UNL     1       1.523  15.129  20.658  0.00  0.00    +0.000 N 
ATOM     30  C   UNL     1       0.638  15.965  19.893  0.00  0.00    +0.000 C 
ENDBRANCH  24  25
ENDBRANCH  23  24
ENDBRANCH   1  23
TORSDOF 7
ENDMDL
MODEL 5
REMARK VINA RESULT:      -8.0      2.988      3.784
REMARK  Name = 
REMARK  9 active torsions:
REMARK  status: ('A' for Active; 'I' for Inactive)
REMARK    1  A    between atoms: C_1  and  C_2
REMARK    2  A    between atoms: C_2  and  S_3
REMARK    3  A    between atoms: C_2  and  C_10
REMARK    4  A    between atoms: S_3  and  C_4
REMARK    5  A    between atoms: N_8  and  C_9
REMARK    6  A    between atoms: C_14  and  C_15
REMARK    7  A    between atoms: C_17  and  C_18
REMARK    8  A    between atoms: C_21  and  C_22
REMARK    9  A    between atoms: C_22  and  O_24
REMARK                            x       y       z     vdW  Elec       q    Type
REMARK                         _______ _______ _______ _____ _____    ______ ____
ROOT
ATOM      1  C   UNL     1      -0.727  11.075  20.845  0.00  0.00    +0.000 A 
ATOM      2  C   UNL     1      -0.926  10.962  22.231  0.00  0.00    +0.000 A 
ATOM      3  C   UNL     1      -0.383   9.898  22.951  0.00  0.00    +0.000 A 
ATOM      4  C   UNL     1       0.371   8.923  22.299  0.00  0.00    +0.000 A 
ATOM      5  C   UNL     1       0.601   9.011  20.922  0.00  0.00    +0.000 A 
ATOM      6  C   UNL     1       0.052  10.086  20.211  0.00  0.00    +0.000 A 
ENDROOT
BRANCH   5   7
ATOM      7  C   UNL     1       1.432   8.023  20.259  0.00  0.00    +0.000 A 
ATOM      8  C   UNL     1       2.210   8.035  19.128  0.00  0.00    +0.000 A 
ATOM      9  C   UNL     1       2.727   6.720  19.020  0.00  0.00    +0.000 A 
ATOM     10  N   UNL     1       2.292   5.962  20.039  0.00  0.00    +0.000 NA
ATOM     11  O   UNL     1       1.490   6.782  20.814  0.00  0.00    +0.000 OA
BRANCH   9  12
ATOM     12  C   UNL     1       3.599   6.193  17.975  0.00  0.00    +0.000 A 
ATOM     13  C   UNL     1       3.689   4.811  17.757  0.00  0.00    +0.000 A 
ATOM     14  C   UNL     1       4.513   4.302  16.754  0.00  0.00    +0.000 A 
ATOM     15  C   UNL     1       5.270   5.166  15.956  0.00  0.00    +0.000 A 
ATOM     16  C   UNL     1       5.184   6.548  16.158  0.00  0.00    +0.000 A 
ATOM     17  C   UNL     1       4.355   7.055  17.168  0.00  0.00    +0.000 A 
BRANCH  15  18
ATOM     18  C   UNL     1       6.095   4.564  14.877  0.00  0.00    +0.000 C 
ATOM     19  O   UNL     1       5.604   3.993  13.917  0.00  0.00    +0.000 OA
BRANCH  18  20
ATOM     20  O   UNL     1       7.424   4.662  15.073  0.00  0.00    +0.000 OA
ATOM     21  H   UNL     1       7.936   3.857  14.876  0.00  0.00    +0.000 HD
ENDBRANCH  18  20
ENDBRANCH  15  18
ENDBRANCH   9  12
ENDBRANCH   5   7
BRANCH   1  23
ATOM     22  C   UNL     1      -0.804  12.242  18.557  0.00  0.00    +0.000 C 
ATOM     23  C   UNL     1      -1.318  12.210  20.004  0.00  0.00    +0.000 C 
BRANCH  23  24
ATOM     24  S   UNL     1      -0.953  13.811  20.838  0.00  0.00    +0.000 S 
BRANCH  24  25
ATOM     25  C   UNL     1       0.766  13.891  20.760  0.00  0.00    +0.000 A 
ATOM     26  N   UNL     1       1.636  13.232  21.490  0.00  0.00    +0.000 NA
ATOM     27  N   UNL     1       2.892  13.692  21.156  0.00  0.00    +0.000 NA
ATOM     28  C   UNL     1       2.745  14.601  20.219  0.00  0.00    +0.000 A 
ATOM     29  N   UNL     1       1.424  14.734  19.916  0.00  0.00    +0.000 N 
ATOM     30  C   UNL     1       0.861  15.606  18.920  0.00  0.00    +0.000 C 
ENDBRANCH  24  25
ENDBRANCH  23  24
ENDBRANCH   1  23
TORSDOF 7
ENDMDL
MODEL 6
REMARK VINA RESULT:      -8.0      6.123      9.676
REMARK  Name = 
REMARK  9 active torsions:
REMARK  status: ('A' for Active; 'I' for Inactive)
REMARK    1  A    between atoms: C_1  and  C_2
REMARK    2  A    between atoms: C_2  and  S_3
REMARK    3  A    between atoms: C_2  and  C_10
REMARK    4  A    between atoms: S_3  and  C_4
REMARK    5  A    between atoms: N_8  and  C_9
REMARK    6  A    between atoms: C_14  and  C_15
REMARK    7  A    between atoms: C_17  and  C_18
REMARK    8  A    between atoms: C_21  and  C_22
REMARK    9  A    between atoms: C_22  and  O_24
REMARK                            x       y       z     vdW  Elec       q    Type
REMARK                         _______ _______ _______ _____ _____    ______ ____
ROOT
ATOM      1  C   UNL     1       4.938   4.017  17.271  0.00  0.00    +0.000 A 
ATOM      2  C   UNL     1       5.302   3.568  15.990  0.00  0.00    +0.000 A 
ATOM      3  C   UNL     1       6.293   4.219  15.255  0.00  0.00    +0.000 A 
ATOM      4  C   UNL     1       6.940   5.333  15.785  0.00  0.00    +0.000 A 
ATOM      5  C   UNL     1       6.614   5.800  17.063  0.00  0.00    +0.000 A 
ATOM      6  C   UNL     1       5.619   5.135  17.792  0.00  0.00    +0.000 A 
ENDROOT
BRANCH   5   7
ATOM      7  C   UNL     1       7.330   6.927  17.632  0.00  0.00    +0.000 A 
ATOM      8  C   UNL     1       7.440   8.253  17.298  0.00  0.00    +0.000 A 
ATOM      9  C   UNL     1       8.335   8.801  18.249  0.00  0.00    +0.000 A 
ATOM     10  N   UNL     1       8.733   7.856  19.115  0.00  0.00    +0.000 NA
ATOM     11  O   UNL     1       8.097   6.689  18.731  0.00  0.00    +0.000 OA
BRANCH   9  12
ATOM     12  C   UNL     1       8.811  10.179  18.329  0.00  0.00    +0.000 A 
ATOM     13  C   UNL     1       8.190  11.188  17.578  0.00  0.00    +0.000 A 
ATOM     14  C   UNL     1       8.634  12.508  17.657  0.00  0.00    +0.000 A 
ATOM     15  C   UNL     1       9.713  12.842  18.483  0.00  0.00    +0.000 A 
ATOM     16  C   UNL     1      10.335  11.846  19.243  0.00  0.00    +0.000 A 
ATOM     17  C   UNL     1       9.887  10.520  19.160  0.00  0.00    +0.000 A 
BRANCH  15  18
ATOM     18  C   UNL     1      10.108  14.271  18.555  0.00  0.00    +0.000 C 
ATOM     19  O   UNL     1      11.260  14.624  18.749  0.00  0.00    +0.000 OA
BRANCH  18  20
ATOM     20  O   UNL     1       9.085  15.139  18.434  0.00  0.00    +0.000 OA
ATOM     21  H   UNL     1       8.196  14.742  18.456  0.00  0.00    +0.000 HD
ENDBRANCH  18  20
ENDBRANCH  15  18
ENDBRANCH   9  12
ENDBRANCH   5   7
BRANCH   1  23
ATOM     22  C   UNL     1       3.777   1.828  17.950  0.00  0.00    +0.000 C 
ATOM     23  C   UNL     1       3.843   3.353  18.111  0.00  0.00    +0.000 C 
BRANCH  23  24
ATOM     24  S   UNL     1       2.222   4.105  17.665  0.00  0.00    +0.000 S 
BRANCH  24  25
ATOM     25  C   UNL     1       2.091   5.406  18.785  0.00  0.00    +0.000 A 
ATOM     26  N   UNL     1       2.390   6.670  18.589  0.00  0.00    +0.000 NA
ATOM     27  N   UNL     1       2.231   7.325  19.792  0.00  0.00    +0.000 NA
ATOM     28  C   UNL     1       1.820   6.442  20.674  0.00  0.00    +0.000 A 
ATOM     29  N   UNL     1       1.687   5.227  20.074  0.00  0.00    +0.000 N 
ATOM     30  C   UNL     1       1.231   4.013  20.697  0.00  0.00    +0.000 C 
ENDBRANCH  24  25
ENDBRANCH  23  24
ENDBRANCH   1  23
TORSDOF 7
ENDMDL
MODEL 7
REMARK VINA RESULT:      -7.9      3.515      4.331
REMARK  Name = 
REMARK  9 active torsions:
REMARK  status: ('A' for Active; 'I' for Inactive)
REMARK    1  A    between atoms: C_1  and  C_2
REMARK    2  A    between atoms: C_2  and  S_3
REMARK    3  A    between atoms: C_2  and  C_10
REMARK    4  A    between atoms: S_3  and  C_4
REMARK    5  A    between atoms: N_8  and  C_9
REMARK    6  A    between atoms: C_14  and  C_15
REMARK    7  A    between atoms: C_17  and  C_18
REMARK    8  A    between atoms: C_21  and  C_22
REMARK    9  A    between atoms: C_22  and  O_24
REMARK                            x       y       z     vdW  Elec       q    Type
REMARK                         _______ _______ _______ _____ _____    ______ ____
ROOT
ATOM      1  C   UNL     1       0.384  10.985  21.347  0.00  0.00    +0.000 A 
ATOM      2  C   UNL     1      -0.503  10.513  22.328  0.00  0.00    +0.000 A 
ATOM      3  C   UNL     1      -0.657   9.146  22.560  0.00  0.00    +0.000 A 
ATOM      4  C   UNL     1       0.075   8.223  21.816  0.00  0.00    +0.000 A 
ATOM      5  C   UNL     1       0.979   8.657  20.840  0.00  0.00    +0.000 A 
ATOM      6  C   UNL     1       1.125  10.033  20.618  0.00  0.00    +0.000 A 
ENDROOT
BRANCH   5   7
ATOM      7  C   UNL     1       1.778   7.692  20.107  0.00  0.00    +0.000 A 
ATOM      8  C   UNL     1       2.519   7.748  18.954  0.00  0.00    +0.000 A 
ATOM      9  C   UNL     1       3.017   6.435  18.770  0.00  0.00    +0.000 A 
ATOM     10  N   UNL     1       2.607   5.635  19.767  0.00  0.00    +0.000 NA
ATOM     11  O   UNL     1       1.840   6.427  20.604  0.00  0.00    +0.000 OA
BRANCH   9  12
ATOM     12  C   UNL     1       3.850   5.947  17.675  0.00  0.00    +0.000 A 
ATOM     13  C   UNL     1       4.566   6.847  16.874  0.00  0.00    +0.000 A 
ATOM     14  C   UNL     1       5.371   6.387  15.831  0.00  0.00    +0.000 A 
ATOM     15  C   UNL     1       5.467   5.016  15.566  0.00  0.00    +0.000 A 
ATOM     16  C   UNL     1       4.763   4.107  16.363  0.00  0.00    +0.000 A 
ATOM     17  C   UNL     1       3.955   4.574  17.409  0.00  0.00    +0.000 A 
BRANCH  15  18
ATOM     18  C   UNL     1       6.373   4.589  14.471  0.00  0.00    +0.000 C 
ATOM     19  O   UNL     1       6.111   3.655  13.729  0.00  0.00    +0.000 OA
BRANCH  18  20
ATOM     20  O   UNL     1       7.523   5.287  14.395  0.00  0.00    +0.000 OA
ATOM     21  H   UNL     1       7.580   6.063  14.980  0.00  0.00    +0.000 HD
ENDBRANCH  18  20
ENDBRANCH  15  18
ENDBRANCH   9  12
ENDBRANCH   5   7
BRANCH   1  23
ATOM     22  C   UNL     1      -0.270  13.404  21.916  0.00  0.00    +0.000 C 
ATOM     23  C   UNL     1       0.575  12.473  21.035  0.00  0.00    +0.000 C 
BRANCH  23  24
ATOM     24  S   UNL     1       0.181  12.757  19.258  0.00  0.00    +0.000 S 
BRANCH  24  25
ATOM     25  C   UNL     1       1.429  13.836  18.765  0.00  0.00    +0.000 A 
ATOM     26  N   UNL     1       2.655  13.536  18.403  0.00  0.00    +0.000 NA
ATOM     27  N   UNL     1       3.329  14.722  18.200  0.00  0.00    +0.000 NA
ATOM     28  C   UNL     1       2.485  15.703  18.425  0.00  0.00    +0.000 A 
ATOM     29  N   UNL     1       1.266  15.189  18.751  0.00  0.00    +0.000 N 
ATOM     30  C   UNL     1       0.073  15.939  19.039  0.00  0.00    +0.000 C 
ENDBRANCH  24  25
ENDBRANCH  23  24
ENDBRANCH   1  23
TORSDOF 7
ENDMDL
MODEL 8
REMARK VINA RESULT:      -7.9      2.921      3.544
REMARK  Name = 
REMARK  9 active torsions:
REMARK  status: ('A' for Active; 'I' for Inactive)
REMARK    1  A    between atoms: C_1  and  C_2
REMARK    2  A    between atoms: C_2  and  S_3
REMARK    3  A    between atoms: C_2  and  C_10
REMARK    4  A    between atoms: S_3  and  C_4
REMARK    5  A    between atoms: N_8  and  C_9
REMARK    6  A    between atoms: C_14  and  C_15
REMARK    7  A    between atoms: C_17  and  C_18
REMARK    8  A    between atoms: C_21  and  C_22
REMARK    9  A    between atoms: C_22  and  O_24
REMARK                            x       y       z     vdW  Elec       q    Type
REMARK                         _______ _______ _______ _____ _____    ______ ____
ROOT
ATOM      1  C   UNL     1      -1.154  11.596  20.931  0.00  0.00    +0.000 A 
ATOM      2  C   UNL     1      -1.400  11.611  22.314  0.00  0.00    +0.000 A 
ATOM      3  C   UNL     1      -0.896  10.610  23.144  0.00  0.00    +0.000 A 
ATOM      4  C   UNL     1      -0.134   9.573  22.609  0.00  0.00    +0.000 A 
ATOM      5  C   UNL     1       0.144   9.534  21.238  0.00  0.00    +0.000 A 
ATOM      6  C   UNL     1      -0.367  10.547  20.415  0.00  0.00    +0.000 A 
ENDROOT
BRANCH   5   7
ATOM      7  C   UNL     1       0.983   8.482  20.695  0.00  0.00    +0.000 A 
ATOM      8  C   UNL     1       1.879   8.417  19.658  0.00  0.00    +0.000 A 
ATOM      9  C   UNL     1       2.327   7.073  19.640  0.00  0.00    +0.000 A 
ATOM     10  N   UNL     1       1.740   6.371  20.621  0.00  0.00    +0.000 NA
ATOM     11  O   UNL     1       0.908   7.257  21.283  0.00  0.00    +0.000 OA
BRANCH   9  12
ATOM     12  C   UNL     1       3.277   6.467  18.711  0.00  0.00    +0.000 A 
ATOM     13  C   UNL     1       3.662   7.147  17.547  0.00  0.00    +0.000 A 
ATOM     14  C   UNL     1       4.576   6.577  16.660  0.00  0.00    +0.000 A 
ATOM     15  C   UNL     1       5.114   5.312  16.918  0.00  0.00    +0.000 A 
ATOM     16  C   UNL     1       4.743   4.626  18.079  0.00  0.00    +0.000 A 
ATOM     17  C   UNL     1       3.824   5.202  18.967  0.00  0.00    +0.000 A 
BRANCH  15  18
ATOM     18  C   UNL     1       6.114   4.780  15.957  0.00  0.00    +0.000 C 
ATOM     19  O   UNL     1       6.865   5.503  15.324  0.00  0.00    +0.000 OA
BRANCH  18  20
ATOM     20  O   UNL     1       6.089   3.440  15.813  0.00  0.00    +0.000 OA
ATOM     21  H   UNL     1       6.876   3.050  15.393  0.00  0.00    +0.000 HD
ENDBRANCH  18  20
ENDBRANCH  15  18
ENDBRANCH   9  12
ENDBRANCH   5   7
BRANCH   1  23
ATOM     22  C   UNL     1      -1.690  14.079  20.547  0.00  0.00    +0.000 C 
ATOM     23  C   UNL     1      -1.701  12.657  19.971  0.00  0.00    +0.000 C 
BRANCH  23  24
ATOM     24  S   UNL     1      -3.416  12.186  19.490  0.00  0.00    +0.000 S 
BRANCH  24  25
ATOM     25  C   UNL     1      -3.194  11.509  17.923  0.00  0.00    +0.000 A 
ATOM     26  N   UNL     1      -2.103  10.974  17.424  0.00  0.00    +0.000 NA
ATOM     27  N   UNL     1      -2.357  10.667  16.104  0.00  0.00    +0.000 NA
ATOM     28  C   UNL     1      -3.601  11.006  15.850  0.00  0.00    +0.000 A 
ATOM     29  N   UNL     1      -4.175  11.510  16.977  0.00  0.00    +0.000 N 
ATOM     30  C   UNL     1      -5.533  11.963  17.113  0.00  0.00    +0.000 C 
ENDBRANCH  24  25
ENDBRANCH  23  24
ENDBRANCH   1  23
TORSDOF 7
ENDMDL
MODEL 9
REMARK VINA RESULT:      -7.8      4.238     11.238
REMARK  Name = 
REMARK  9 active torsions:
REMARK  status: ('A' for Active; 'I' for Inactive)
REMARK    1  A    between atoms: C_1  and  C_2
REMARK    2  A    between atoms: C_2  and  S_3
REMARK    3  A    between atoms: C_2  and  C_10
REMARK    4  A    between atoms: S_3  and  C_4
REMARK    5  A    between atoms: N_8  and  C_9
REMARK    6  A    between atoms: C_14  and  C_15
REMARK    7  A    between atoms: C_17  and  C_18
REMARK    8  A    between atoms: C_21  and  C_22
REMARK    9  A    between atoms: C_22  and  O_24
REMARK                            x       y       z     vdW  Elec       q    Type
REMARK                         _______ _______ _______ _____ _____    ______ ____
ROOT
ATOM      1  C   UNL     1       2.444   6.838  19.166  0.00  0.00    +0.000 A 
ATOM      2  C   UNL     1       2.686   7.457  17.929  0.00  0.00    +0.000 A 
ATOM      3  C   UNL     1       2.246   8.757  17.678  0.00  0.00    +0.000 A 
ATOM      4  C   UNL     1       1.556   9.465  18.659  0.00  0.00    +0.000 A 
ATOM      5  C   UNL     1       1.309   8.885  19.909  0.00  0.00    +0.000 A 
ATOM      6  C   UNL     1       1.758   7.579  20.149  0.00  0.00    +0.000 A 
ENDROOT
BRANCH   5   7
ATOM      7  C   UNL     1       0.638   9.648  20.945  0.00  0.00    +0.000 A 
ATOM      8  C   UNL     1      -0.227  10.713  20.937  0.00  0.00    +0.000 A 
ATOM      9  C   UNL     1      -0.474  10.999  22.302  0.00  0.00    +0.000 A 
ATOM     10  N   UNL     1       0.197  10.144  23.088  0.00  0.00    +0.000 NA
ATOM     11  O   UNL     1       0.884   9.296  22.237  0.00  0.00    +0.000 OA
BRANCH   9  12
ATOM     12  C   UNL     1      -1.314  12.062  22.847  0.00  0.00    +0.000 A 
ATOM     13  C   UNL     1      -2.589  11.769  23.352  0.00  0.00    +0.000 A 
ATOM     14  C   UNL     1      -3.392  12.779  23.883  0.00  0.00    +0.000 A 
ATOM     15  C   UNL     1      -2.938  14.102  23.910  0.00  0.00    +0.000 A 
ATOM     16  C   UNL     1      -1.665  14.406  23.416  0.00  0.00    +0.000 A 
ATOM     17  C   UNL     1      -0.861  13.388  22.882  0.00  0.00    +0.000 A 
BRANCH  15  18
ATOM     18  C   UNL     1      -3.823  15.122  24.527  0.00  0.00    +0.000 C 
ATOM     19  O   UNL     1      -4.816  15.556  23.964  0.00  0.00    +0.000 OA
BRANCH  18  20
ATOM     20  O   UNL     1      -3.414  15.556  25.735  0.00  0.00    +0.000 OA
ATOM     21  H   UNL     1      -3.943  16.277  26.121  0.00  0.00    +0.000 HD
ENDBRANCH  18  20
ENDBRANCH  15  18
ENDBRANCH   9  12
ENDBRANCH   5   7
BRANCH   1  23
ATOM     22  C   UNL     1       2.388   4.895  20.846  0.00  0.00    +0.000 C 
ATOM     23  C   UNL     1       2.885   5.407  19.487  0.00  0.00    +0.000 C 
BRANCH  23  24
ATOM     24  S   UNL     1       4.725   5.330  19.420  0.00  0.00    +0.000 S 
BRANCH  24  25
ATOM     25  C   UNL     1       5.023   4.941  17.769  0.00  0.00    +0.000 A 
ATOM     26  N   UNL     1       4.632   3.875  17.110  0.00  0.00    +0.000 NA
ATOM     27  N   UNL     1       5.192   3.936  15.851  0.00  0.00    +0.000 NA
ATOM     28  C   UNL     1       5.888   5.049  15.780  0.00  0.00    +0.000 A 
ATOM     29  N   UNL     1       5.782   5.729  16.955  0.00  0.00    +0.000 N 
ATOM     30  C   UNL     1       6.374   7.003  17.260  0.00  0.00    +0.000 C 
ENDBRANCH  24  25
ENDBRANCH  23  24
ENDBRANCH   1  23
TORSDOF 7
ENDMDL
