MODEL 1
REMARK VINA RESULT:     -10.4      0.000      0.000
REMARK  Name = 
REMARK  9 active torsions:
REMARK  status: ('A' for Active; 'I' for Inactive)
REMARK    1  A    between atoms: C_1  and  N_2
REMARK    2  A    between atoms: C_6  and  C_7
REMARK    3  A    between atoms: C_7  and  C_10
REMARK    4  A    between atoms: C_10  and  C_11
REMARK    5  A    between atoms: C_10  and  C_13
REMARK    6  A    between atoms: C_17  and  N_18
REMARK    7  A    between atoms: C_23  and  C_24
REMARK    8  A    between atoms: C_24  and  N_25
REMARK    9  A    between atoms: C_33  and  C_34
REMARK                            x       y       z     vdW  Elec       q    Type
REMARK                         _______ _______ _______ _____ _____    ______ ____
ROOT
ATOM      1  N   UNL     1       2.342   7.259  19.383  0.00  0.00    +0.000 N 
ATOM      2  C   UNL     1       1.607   7.679  20.551  0.00  0.00    +0.000 C 
ATOM      3  C   UNL     1       0.933   8.930  20.154  0.00  0.00    +0.000 A 
ATOM      4  C   UNL     1       1.245   9.248  18.835  0.00  0.00    +0.000 A 
ATOM      5  C   UNL     1       0.699  10.387  18.247  0.00  0.00    +0.000 A 
ATOM      6  C   UNL     1      -0.177  11.195  19.018  0.00  0.00    +0.000 A 
ATOM      7  C   UNL     1      -0.456  10.840  20.361  0.00  0.00    +0.000 A 
ATOM      8  C   UNL     1       0.095   9.702  20.951  0.00  0.00    +0.000 A 
ATOM      9  C   UNL     1       2.165   8.171  18.324  0.00  0.00    +0.000 C 
ATOM     10  O   UNL     1       2.633   8.165  17.201  0.00  0.00    +0.000 OA
ENDROOT
BRANCH   1  15
ATOM     11  C   UNL     1       5.415   5.116  19.049  0.00  0.00    +0.000 A 
ATOM     12  C   UNL     1       4.910   3.869  19.435  0.00  0.00    +0.000 A 
ATOM     13  C   UNL     1       3.577   3.747  19.854  0.00  0.00    +0.000 A 
ATOM     14  C   UNL     1       2.699   4.842  19.866  0.00  0.00    +0.000 A 
ATOM     15  C   UNL     1       3.164   6.098  19.497  0.00  0.00    +0.000 A 
ATOM     16  C   UNL     1       4.537   6.206  19.153  0.00  0.00    +0.000 A 
BRANCH  11  17
ATOM     17  C   UNL     1       6.763   5.341  18.326  0.00  0.00    +0.000 C 
ATOM     18  C   UNL     1       7.745   5.844  19.398  0.00  0.00    +0.000 C 
ATOM     19  F   UNL     1       7.293   4.128  17.904  0.00  0.00    +0.000 F 
BRANCH  17  20
ATOM     20  C   UNL     1       6.726   6.249  17.060  0.00  0.00    +0.000 C 
ATOM     21  F   UNL     1       7.835   7.046  17.031  0.00  0.00    +0.000 F 
ATOM     22  F   UNL     1       5.671   7.113  17.160  0.00  0.00    +0.000 F 
BRANCH  20  28
ATOM     23  C   UNL     1       4.385   4.306  15.963  0.00  0.00    +0.000 C 
ATOM     24  N   UNL     1       5.658   4.604  15.364  0.00  0.00    +0.000 N 
ATOM     25  C   UNL     1       6.096   4.044  14.197  0.00  0.00    +0.000 A 
ATOM     26  N   UNL     1       7.256   4.555  13.873  0.00  0.00    +0.000 NA
ATOM     27  N   UNL     1       7.602   5.449  14.851  0.00  0.00    +0.000 NA
ATOM     28  C   UNL     1       6.654   5.460  15.776  0.00  0.00    +0.000 A 
ENDBRANCH  20  28
ENDBRANCH  17  20
ENDBRANCH  11  17
ENDBRANCH   1  15
BRANCH   8  29
ATOM     29  C   UNL     1      -0.238   9.323  22.371  0.00  0.00    +0.000 C 
ATOM     30  F   UNL     1      -0.908   8.139  22.482  0.00  0.00    +0.000 F 
ATOM     31  F   UNL     1       0.866   9.189  23.151  0.00  0.00    +0.000 F 
ATOM     32  F   UNL     1      -1.033  10.243  22.980  0.00  0.00    +0.000 F 
ENDBRANCH   8  29
BRANCH   6  33
ATOM     33  C   UNL     1      -0.935  12.384  18.441  0.00  0.00    +0.000 C 
BRANCH  33  34
ATOM     34  N   UNL     1      -2.138  12.002  17.688  0.00  0.00    +0.000 NA
ATOM     35  C   UNL     1      -1.958  10.801  16.851  0.00  0.00    +0.000 C 
ATOM     36  C   UNL     1      -3.314  10.103  16.815  0.00  0.00    +0.000 C 
ATOM     37  F   UNL     1      -4.078  10.664  15.839  0.00  0.00    +0.000 F 
ATOM     38  C   UNL     1      -3.886  10.406  18.180  0.00  0.00    +0.000 C 
ATOM     39  F   UNL     1      -5.238  10.394  18.172  0.00  0.00    +0.000 F 
ATOM     40  C   UNL     1      -3.326  11.777  18.534  0.00  0.00    +0.000 C 
ENDBRANCH  33  34
ENDBRANCH   6  33
TORSDOF 7
ENDMDL
MODEL 2
REMARK VINA RESULT:     -10.4      2.628      3.794
REMARK  Name = 
REMARK  9 active torsions:
REMARK  status: ('A' for Active; 'I' for Inactive)
REMARK    1  A    between atoms: C_1  and  N_2
REMARK    2  A    between atoms: C_6  and  C_7
REMARK    3  A    between atoms: C_7  and  C_10
REMARK    4  A    between atoms: C_10  and  C_11
REMARK    5  A    between atoms: C_10  and  C_13
REMARK    6  A    between atoms: C_17  and  N_18
REMARK    7  A    between atoms: C_23  and  C_24
REMARK    8  A    between atoms: C_24  and  N_25
REMARK    9  A    between atoms: C_33  and  C_34
REMARK                            x       y       z     vdW  Elec       q    Type
REMARK                         _______ _______ _______ _____ _____    ______ ____
ROOT
ATOM      1  N   UNL     1       1.985   7.767  19.444  0.00  0.00    +0.000 N 
ATOM      2  C   UNL     1       1.338   8.119  20.684  0.00  0.00    +0.000 C 
ATOM      3  C   UNL     1       0.778   9.466  20.459  0.00  0.00    +0.000 A 
ATOM      4  C   UNL     1       1.073   9.901  19.170  0.00  0.00    +0.000 A 
ATOM      5  C   UNL     1       0.623  11.146  18.736  0.00  0.00    +0.000 A 
ATOM      6  C   UNL     1      -0.140  11.941  19.632  0.00  0.00    +0.000 A 
ATOM      7  C   UNL     1      -0.404  11.464  20.939  0.00  0.00    +0.000 A 
ATOM      8  C   UNL     1       0.051  10.218  21.374  0.00  0.00    +0.000 A 
ATOM      9  C   UNL     1       1.861   8.806  18.501  0.00  0.00    +0.000 C 
ATOM     10  O   UNL     1       2.286   8.884  17.363  0.00  0.00    +0.000 OA
ENDROOT
BRANCH   1  15
ATOM     11  C   UNL     1       4.336   5.147  18.119  0.00  0.00    +0.000 A 
ATOM     12  C   UNL     1       4.043   4.075  18.970  0.00  0.00    +0.000 A 
ATOM     13  C   UNL     1       3.114   4.233  20.008  0.00  0.00    +0.000 A 
ATOM     14  C   UNL     1       2.422   5.438  20.210  0.00  0.00    +0.000 A 
ATOM     15  C   UNL     1       2.690   6.527  19.391  0.00  0.00    +0.000 A 
ATOM     16  C   UNL     1       3.692   6.362  18.398  0.00  0.00    +0.000 A 
BRANCH  11  17
ATOM     17  C   UNL     1       5.126   5.036  16.794  0.00  0.00    +0.000 C 
ATOM     18  C   UNL     1       4.503   3.860  16.022  0.00  0.00    +0.000 C 
ATOM     19  F   UNL     1       4.886   6.148  15.996  0.00  0.00    +0.000 F 
BRANCH  17  20
ATOM     20  C   UNL     1       6.675   4.931  16.918  0.00  0.00    +0.000 C 
ATOM     21  F   UNL     1       7.211   4.569  15.715  0.00  0.00    +0.000 F 
ATOM     22  F   UNL     1       6.988   3.905  17.767  0.00  0.00    +0.000 F 
BRANCH  20  28
ATOM     23  C   UNL     1       8.015   5.673  19.767  0.00  0.00    +0.000 C 
ATOM     24  N   UNL     1       7.833   6.514  18.614  0.00  0.00    +0.000 N 
ATOM     25  C   UNL     1       8.188   7.832  18.574  0.00  0.00    +0.000 A 
ATOM     26  N   UNL     1       7.962   8.313  17.379  0.00  0.00    +0.000 NA
ATOM     27  N   UNL     1       7.426   7.304  16.623  0.00  0.00    +0.000 NA
ATOM     28  C   UNL     1       7.314   6.219  17.374  0.00  0.00    +0.000 A 
ENDBRANCH  20  28
ENDBRANCH  17  20
ENDBRANCH  11  17
ENDBRANCH   1  15
BRANCH   8  29
ATOM     29  C   UNL     1      -0.267   9.713  22.758  0.00  0.00    +0.000 C 
ATOM     30  F   UNL     1       0.838   9.456  23.517  0.00  0.00    +0.000 F 
ATOM     31  F   UNL     1      -1.006  10.594  23.481  0.00  0.00    +0.000 F 
ATOM     32  F   UNL     1      -0.966   8.547  22.736  0.00  0.00    +0.000 F 
ENDBRANCH   8  29
BRANCH   6  33
ATOM     33  C   UNL     1      -0.795  13.255  19.225  0.00  0.00    +0.000 C 
BRANCH  33  34
ATOM     34  N   UNL     1      -0.039  14.441  19.648  0.00  0.00    +0.000 NA
ATOM     35  C   UNL     1       1.173  14.690  18.847  0.00  0.00    +0.000 C 
ATOM     36  C   UNL     1       1.360  16.204  18.819  0.00  0.00    +0.000 C 
ATOM     37  F   UNL     1       2.025  16.592  19.941  0.00  0.00    +0.000 F 
ATOM     38  C   UNL     1      -0.060  16.719  18.837  0.00  0.00    +0.000 C 
ATOM     39  F   UNL     1      -0.139  17.956  19.379  0.00  0.00    +0.000 F 
ATOM     40  C   UNL     1      -0.831  15.687  19.648  0.00  0.00    +0.000 C 
ENDBRANCH  33  34
ENDBRANCH   6  33
TORSDOF 7
ENDMDL
MODEL 3
REMARK VINA RESULT:     -10.3      2.411      3.402
REMARK  Name = 
REMARK  9 active torsions:
REMARK  status: ('A' for Active; 'I' for Inactive)
REMARK    1  A    between atoms: C_1  and  N_2
REMARK    2  A    between atoms: C_6  and  C_7
REMARK    3  A    between atoms: C_7  and  C_10
REMARK    4  A    between atoms: C_10  and  C_11
REMARK    5  A    between atoms: C_10  and  C_13
REMARK    6  A    between atoms: C_17  and  N_18
REMARK    7  A    between atoms: C_23  and  C_24
REMARK    8  A    between atoms: C_24  and  N_25
REMARK    9  A    between atoms: C_33  and  C_34
REMARK                            x       y       z     vdW  Elec       q    Type
REMARK                         _______ _______ _______ _____ _____    ______ ____
ROOT
ATOM      1  N   UNL     1       2.218   7.466  19.277  0.00  0.00    +0.000 N 
ATOM      2  C   UNL     1       1.551   7.832  20.502  0.00  0.00    +0.000 C 
ATOM      3  C   UNL     1       0.980   9.168  20.249  0.00  0.00    +0.000 A 
ATOM      4  C   UNL     1       1.287   9.586  18.957  0.00  0.00    +0.000 A 
ATOM      5  C   UNL     1       0.829  10.819  18.497  0.00  0.00    +0.000 A 
ATOM      6  C   UNL     1       0.047  11.620  19.370  0.00  0.00    +0.000 A 
ATOM      7  C   UNL     1      -0.229  11.161  20.681  0.00  0.00    +0.000 A 
ATOM      8  C   UNL     1       0.233   9.927  21.142  0.00  0.00    +0.000 A 
ATOM      9  C   UNL     1       2.096   8.489  18.316  0.00  0.00    +0.000 C 
ATOM     10  O   UNL     1       2.535   8.553  17.182  0.00  0.00    +0.000 OA
ENDROOT
BRANCH   1  15
ATOM     11  C   UNL     1       4.887   5.005  18.294  0.00  0.00    +0.000 A 
ATOM     12  C   UNL     1       4.401   3.837  18.891  0.00  0.00    +0.000 A 
ATOM     13  C   UNL     1       3.228   3.873  19.660  0.00  0.00    +0.000 A 
ATOM     14  C   UNL     1       2.484   5.052  19.825  0.00  0.00    +0.000 A 
ATOM     15  C   UNL     1       2.937   6.234  19.253  0.00  0.00    +0.000 A 
ATOM     16  C   UNL     1       4.168   6.184  18.547  0.00  0.00    +0.000 A 
BRANCH  11  17
ATOM     17  C   UNL     1       6.000   5.055  17.221  0.00  0.00    +0.000 C 
ATOM     18  C   UNL     1       6.338   6.543  17.025  0.00  0.00    +0.000 C 
ATOM     19  F   UNL     1       7.170   4.490  17.713  0.00  0.00    +0.000 F 
BRANCH  17  20
ATOM     20  C   UNL     1       5.704   4.317  15.881  0.00  0.00    +0.000 C 
ATOM     21  F   UNL     1       4.412   4.546  15.503  0.00  0.00    +0.000 F 
ATOM     22  F   UNL     1       5.779   2.967  16.088  0.00  0.00    +0.000 F 
BRANCH  20  28
ATOM     23  C   UNL     1       5.671   3.494  12.753  0.00  0.00    +0.000 C 
ATOM     24  N   UNL     1       6.610   4.331  13.451  0.00  0.00    +0.000 N 
ATOM     25  C   UNL     1       7.704   4.898  12.862  0.00  0.00    +0.000 A 
ATOM     26  N   UNL     1       8.329   5.653  13.729  0.00  0.00    +0.000 NA
ATOM     27  N   UNL     1       7.652   5.566  14.915  0.00  0.00    +0.000 NA
ATOM     28  C   UNL     1       6.627   4.740  14.765  0.00  0.00    +0.000 A 
ENDBRANCH  20  28
ENDBRANCH  17  20
ENDBRANCH  11  17
ENDBRANCH   1  15
BRANCH   8  29
ATOM     29  C   UNL     1      -0.098   9.441  22.529  0.00  0.00    +0.000 C 
ATOM     30  F   UNL     1      -0.839  10.324  23.260  0.00  0.00    +0.000 F 
ATOM     31  F   UNL     1      -0.812   8.286  22.525  0.00  0.00    +0.000 F 
ATOM     32  F   UNL     1       1.015   9.205  23.275  0.00  0.00    +0.000 F 
ENDBRANCH   8  29
BRANCH   6  33
ATOM     33  C   UNL     1      -0.617  12.921  18.934  0.00  0.00    +0.000 C 
BRANCH  33  34
ATOM     34  N   UNL     1       0.341  13.989  18.618  0.00  0.00    +0.000 NA
ATOM     35  C   UNL     1      -0.227  15.346  18.724  0.00  0.00    +0.000 C 
ATOM     36  C   UNL     1       0.918  16.252  19.167  0.00  0.00    +0.000 C 
ATOM     37  F   UNL     1       1.629  16.637  18.073  0.00  0.00    +0.000 F 
ATOM     38  C   UNL     1       1.745  15.343  20.046  0.00  0.00    +0.000 C 
ATOM     39  F   UNL     1       3.044  15.720  20.078  0.00  0.00    +0.000 F 
ATOM     40  C   UNL     1       1.565  13.957  19.443  0.00  0.00    +0.000 C 
ENDBRANCH  33  34
ENDBRANCH   6  33
TORSDOF 7
ENDMDL
MODEL 4
REMARK VINA RESULT:     -10.3      2.434      3.307
REMARK  Name = 
REMARK  9 active torsions:
REMARK  status: ('A' for Active; 'I' for Inactive)
REMARK    1  A    between atoms: C_1  and  N_2
REMARK    2  A    between atoms: C_6  and  C_7
REMARK    3  A    between atoms: C_7  and  C_10
REMARK    4  A    between atoms: C_10  and  C_11
REMARK    5  A    between atoms: C_10  and  C_13
REMARK    6  A    between atoms: C_17  and  N_18
REMARK    7  A    between atoms: C_23  and  C_24
REMARK    8  A    between atoms: C_24  and  N_25
REMARK    9  A    between atoms: C_33  and  C_34
REMARK                            x       y       z     vdW  Elec       q    Type
REMARK                         _______ _______ _______ _____ _____    ______ ____
ROOT
ATOM      1  N   UNL     1       2.217   7.482  19.294  0.00  0.00    +0.000 N 
ATOM      2  C   UNL     1       1.550   7.864  20.515  0.00  0.00    +0.000 C 
ATOM      3  C   UNL     1       1.008   9.211  20.254  0.00  0.00    +0.000 A 
ATOM      4  C   UNL     1       1.331   9.619  18.963  0.00  0.00    +0.000 A 
ATOM      5  C   UNL     1       0.901  10.860  18.497  0.00  0.00    +0.000 A 
ATOM      6  C   UNL     1       0.130  11.678  19.363  0.00  0.00    +0.000 A 
ATOM      7  C   UNL     1      -0.164  11.229  20.674  0.00  0.00    +0.000 A 
ATOM      8  C   UNL     1       0.271   9.987  21.141  0.00  0.00    +0.000 A 
ATOM      9  C   UNL     1       2.122   8.504  18.330  0.00  0.00    +0.000 C 
ATOM     10  O   UNL     1       2.569   8.556  17.199  0.00  0.00    +0.000 OA
ENDROOT
BRANCH   1  15
ATOM     11  C   UNL     1       4.852   4.970  18.348  0.00  0.00    +0.000 A 
ATOM     12  C   UNL     1       4.332   3.810  18.933  0.00  0.00    +0.000 A 
ATOM     13  C   UNL     1       3.147   3.868  19.681  0.00  0.00    +0.000 A 
ATOM     14  C   UNL     1       2.425   5.060  19.837  0.00  0.00    +0.000 A 
ATOM     15  C   UNL     1       2.911   6.235  19.278  0.00  0.00    +0.000 A 
ATOM     16  C   UNL     1       4.153   6.162  18.593  0.00  0.00    +0.000 A 
BRANCH  11  17
ATOM     17  C   UNL     1       5.984   5.001  17.295  0.00  0.00    +0.000 C 
ATOM     18  C   UNL     1       6.348   6.484  17.102  0.00  0.00    +0.000 C 
ATOM     19  F   UNL     1       7.137   4.419  17.809  0.00  0.00    +0.000 F 
BRANCH  17  20
ATOM     20  C   UNL     1       5.701   4.264  15.952  0.00  0.00    +0.000 C 
ATOM     21  F   UNL     1       4.405   4.471  15.576  0.00  0.00    +0.000 F 
ATOM     22  F   UNL     1       5.801   2.915  16.152  0.00  0.00    +0.000 F 
BRANCH  20  28
ATOM     23  C   UNL     1       5.635   3.515  12.806  0.00  0.00    +0.000 C 
ATOM     24  N   UNL     1       6.583   4.331  13.514  0.00  0.00    +0.000 N 
ATOM     25  C   UNL     1       7.674   4.908  12.928  0.00  0.00    +0.000 A 
ATOM     26  N   UNL     1       8.311   5.640  13.806  0.00  0.00    +0.000 NA
ATOM     27  N   UNL     1       7.644   5.528  14.997  0.00  0.00    +0.000 NA
ATOM     28  C   UNL     1       6.615   4.710  14.837  0.00  0.00    +0.000 A 
ENDBRANCH  20  28
ENDBRANCH  17  20
ENDBRANCH  11  17
ENDBRANCH   1  15
BRANCH   8  29
ATOM     29  C   UNL     1      -0.078   9.512  22.527  0.00  0.00    +0.000 C 
ATOM     30  F   UNL     1      -0.819   8.366  22.545  0.00  0.00    +0.000 F 
ATOM     31  F   UNL     1       1.018   9.247  23.283  0.00  0.00    +0.000 F 
ATOM     32  F   UNL     1      -0.814  10.424  23.218  0.00  0.00    +0.000 F 
ENDBRANCH   8  29
BRANCH   6  33
ATOM     33  C   UNL     1      -0.505  12.991  18.919  0.00  0.00    +0.000 C 
BRANCH  33  34
ATOM     34  N   UNL     1       0.187  14.179  19.436  0.00  0.00    +0.000 NA
ATOM     35  C   UNL     1       1.494  14.429  18.801  0.00  0.00    +0.000 C 
ATOM     36  C   UNL     1       1.681  15.943  18.794  0.00  0.00    +0.000 C 
ATOM     37  F   UNL     1       2.191  16.334  19.992  0.00  0.00    +0.000 F 
ATOM     38  C   UNL     1       0.270  16.455  18.623  0.00  0.00    +0.000 C 
ATOM     39  F   UNL     1       0.118  17.693  19.147  0.00  0.00    +0.000 F 
ATOM     40  C   UNL     1      -0.600  15.424  19.328  0.00  0.00    +0.000 C 
ENDBRANCH  33  34
ENDBRANCH   6  33
TORSDOF 7
ENDMDL
MODEL 5
REMARK VINA RESULT:     -10.3      2.007      2.981
REMARK  Name = 
REMARK  9 active torsions:
REMARK  status: ('A' for Active; 'I' for Inactive)
REMARK    1  A    between atoms: C_1  and  N_2
REMARK    2  A    between atoms: C_6  and  C_7
REMARK    3  A    between atoms: C_7  and  C_10
REMARK    4  A    between atoms: C_10  and  C_11
REMARK    5  A    between atoms: C_10  and  C_13
REMARK    6  A    between atoms: C_17  and  N_18
REMARK    7  A    between atoms: C_23  and  C_24
REMARK    8  A    between atoms: C_24  and  N_25
REMARK    9  A    between atoms: C_33  and  C_34
REMARK                            x       y       z     vdW  Elec       q    Type
REMARK                         _______ _______ _______ _____ _____    ______ ____
ROOT
ATOM      1  N   UNL     1       2.293   7.367  19.412  0.00  0.00    +0.000 N 
ATOM      2  C   UNL     1       1.589   7.806  20.591  0.00  0.00    +0.000 C 
ATOM      3  C   UNL     1       0.954   9.083  20.210  0.00  0.00    +0.000 A 
ATOM      4  C   UNL     1       1.261   9.398  18.890  0.00  0.00    +0.000 A 
ATOM      5  C   UNL     1       0.748  10.559  18.315  0.00  0.00    +0.000 A 
ATOM      6  C   UNL     1      -0.089  11.393  19.101  0.00  0.00    +0.000 A 
ATOM      7  C   UNL     1      -0.363  11.040  20.446  0.00  0.00    +0.000 A 
ATOM      8  C   UNL     1       0.154   9.879  21.022  0.00  0.00    +0.000 A 
ATOM      9  C   UNL     1       2.135   8.292  18.361  0.00  0.00    +0.000 C 
ATOM     10  O   UNL     1       2.589   8.276  17.231  0.00  0.00    +0.000 OA
ENDROOT
BRANCH   1  15
ATOM     11  C   UNL     1       5.298   5.131  19.066  0.00  0.00    +0.000 A 
ATOM     12  C   UNL     1       4.746   3.894  19.415  0.00  0.00    +0.000 A 
ATOM     13  C   UNL     1       3.405   3.807  19.815  0.00  0.00    +0.000 A 
ATOM     14  C   UNL     1       2.564   4.930  19.842  0.00  0.00    +0.000 A 
ATOM     15  C   UNL     1       3.075   6.177  19.509  0.00  0.00    +0.000 A 
ATOM     16  C   UNL     1       4.455   6.247  19.184  0.00  0.00    +0.000 A 
BRANCH  11  17
ATOM     17  C   UNL     1       6.662   5.328  18.364  0.00  0.00    +0.000 C 
ATOM     18  C   UNL     1       7.638   5.803  19.453  0.00  0.00    +0.000 C 
ATOM     19  F   UNL     1       7.169   4.104  17.945  0.00  0.00    +0.000 F 
BRANCH  17  20
ATOM     20  C   UNL     1       6.666   6.241  17.101  0.00  0.00    +0.000 C 
ATOM     21  F   UNL     1       7.784   7.025  17.102  0.00  0.00    +0.000 F 
ATOM     22  F   UNL     1       5.619   7.118  17.180  0.00  0.00    +0.000 F 
BRANCH  20  28
ATOM     23  C   UNL     1       4.351   4.287  15.967  0.00  0.00    +0.000 C 
ATOM     24  N   UNL     1       5.629   4.597  15.384  0.00  0.00    +0.000 N 
ATOM     25  C   UNL     1       6.085   4.047  14.220  0.00  0.00    +0.000 A 
ATOM     26  N   UNL     1       7.245   4.568  13.912  0.00  0.00    +0.000 NA
ATOM     27  N   UNL     1       7.573   5.458  14.899  0.00  0.00    +0.000 NA
ATOM     28  C   UNL     1       6.614   5.458  15.813  0.00  0.00    +0.000 A 
ENDBRANCH  20  28
ENDBRANCH  17  20
ENDBRANCH  11  17
ENDBRANCH   1  15
BRANCH   8  29
ATOM     29  C   UNL     1      -0.174   9.503  22.444  0.00  0.00    +0.000 C 
ATOM     30  F   UNL     1      -0.916  10.440  23.103  0.00  0.00    +0.000 F 
ATOM     31  F   UNL     1      -0.885   8.349  22.532  0.00  0.00    +0.000 F 
ATOM     32  F   UNL     1       0.941   9.330  23.204  0.00  0.00    +0.000 F 
ENDBRANCH   8  29
BRANCH   6  33
ATOM     33  C   UNL     1      -0.811  12.612  18.541  0.00  0.00    +0.000 C 
BRANCH  33  34
ATOM     34  N   UNL     1      -0.041  13.857  18.666  0.00  0.00    +0.000 NA
ATOM     35  C   UNL     1      -0.331  14.612  19.899  0.00  0.00    +0.000 C 
ATOM     36  C   UNL     1       0.968  15.318  20.279  0.00  0.00    +0.000 C 
ATOM     37  F   UNL     1       1.059  16.485  19.588  0.00  0.00    +0.000 F 
ATOM     38  C   UNL     1       2.027  14.343  19.820  0.00  0.00    +0.000 C 
ATOM     39  F   UNL     1       3.192  14.966  19.531  0.00  0.00    +0.000 F 
ATOM     40  C   UNL     1       1.421  13.665  18.599  0.00  0.00    +0.000 C 
ENDBRANCH  33  34
ENDBRANCH   6  33
TORSDOF 7
ENDMDL
MODEL 6
REMARK VINA RESULT:     -10.2      2.483      3.857
REMARK  Name = 
REMARK  9 active torsions:
REMARK  status: ('A' for Active; 'I' for Inactive)
REMARK    1  A    between atoms: C_1  and  N_2
REMARK    2  A    between atoms: C_6  and  C_7
REMARK    3  A    between atoms: C_7  and  C_10
REMARK    4  A    between atoms: C_10  and  C_11
REMARK    5  A    between atoms: C_10  and  C_13
REMARK    6  A    between atoms: C_17  and  N_18
REMARK    7  A    between atoms: C_23  and  C_24
REMARK    8  A    between atoms: C_24  and  N_25
REMARK    9  A    between atoms: C_33  and  C_34
REMARK                            x       y       z     vdW  Elec       q    Type
REMARK                         _______ _______ _______ _____ _____    ______ ____
ROOT
ATOM      1  N   UNL     1       2.093   7.800  19.303  0.00  0.00    +0.000 N 
ATOM      2  C   UNL     1       1.443   8.097  20.556  0.00  0.00    +0.000 C 
ATOM      3  C   UNL     1       0.787   9.403  20.352  0.00  0.00    +0.000 A 
ATOM      4  C   UNL     1       1.031   9.868  19.062  0.00  0.00    +0.000 A 
ATOM      5  C   UNL     1       0.489  11.082  18.647  0.00  0.00    +0.000 A 
ATOM      6  C   UNL     1      -0.313  11.815  19.561  0.00  0.00    +0.000 A 
ATOM      7  C   UNL     1      -0.523  11.310  20.867  0.00  0.00    +0.000 A 
ATOM      8  C   UNL     1       0.024  10.095  21.284  0.00  0.00    +0.000 A 
ATOM      9  C   UNL     1       1.883   8.836  18.372  0.00  0.00    +0.000 C 
ATOM     10  O   UNL     1       2.285   8.952  17.228  0.00  0.00    +0.000 OA
ENDROOT
BRANCH   1  15
ATOM     11  C   UNL     1       4.559   5.335  17.892  0.00  0.00    +0.000 A 
ATOM     12  C   UNL     1       4.384   4.257  18.767  0.00  0.00    +0.000 A 
ATOM     13  C   UNL     1       3.497   4.364  19.848  0.00  0.00    +0.000 A 
ATOM     14  C   UNL     1       2.732   5.519  20.071  0.00  0.00    +0.000 A 
ATOM     15  C   UNL     1       2.882   6.613  19.229  0.00  0.00    +0.000 A 
ATOM     16  C   UNL     1       3.844   6.505  18.190  0.00  0.00    +0.000 A 
BRANCH  11  17
ATOM     17  C   UNL     1       5.290   5.263  16.531  0.00  0.00    +0.000 C 
ATOM     18  C   UNL     1       4.691   4.056  15.788  0.00  0.00    +0.000 C 
ATOM     19  F   UNL     1       4.958   6.360  15.747  0.00  0.00    +0.000 F 
BRANCH  17  20
ATOM     20  C   UNL     1       6.847   5.235  16.582  0.00  0.00    +0.000 C 
ATOM     21  F   UNL     1       7.350   5.180  15.313  0.00  0.00    +0.000 F 
ATOM     22  F   UNL     1       7.255   4.072  17.175  0.00  0.00    +0.000 F 
BRANCH  20  28
ATOM     23  C   UNL     1       8.002   5.487  19.593  0.00  0.00    +0.000 C 
ATOM     24  N   UNL     1       7.870   6.513  18.594  0.00  0.00    +0.000 N 
ATOM     25  C   UNL     1       8.198   7.822  18.803  0.00  0.00    +0.000 A 
ATOM     26  N   UNL     1       8.032   8.500  17.696  0.00  0.00    +0.000 NA
ATOM     27  N   UNL     1       7.563   7.631  16.747  0.00  0.00    +0.000 NA
ATOM     28  C   UNL     1       7.430   6.431  17.292  0.00  0.00    +0.000 A 
ENDBRANCH  20  28
ENDBRANCH  17  20
ENDBRANCH  11  17
ENDBRANCH   1  15
BRANCH   8  29
ATOM     29  C   UNL     1      -0.237   9.558  22.668  0.00  0.00    +0.000 C 
ATOM     30  F   UNL     1      -0.976  10.396  23.452  0.00  0.00    +0.000 F 
ATOM     31  F   UNL     1      -0.914   8.381  22.655  0.00  0.00    +0.000 F 
ATOM     32  F   UNL     1       0.911   9.337  23.362  0.00  0.00    +0.000 F 
ENDBRANCH   8  29
BRANCH   6  33
ATOM     33  C   UNL     1      -1.064  13.084  19.175  0.00  0.00    +0.000 C 
BRANCH  33  34
ATOM     34  N   UNL     1      -0.265  14.306  19.329  0.00  0.00    +0.000 NA
ATOM     35  C   UNL     1      -0.247  14.836  20.705  0.00  0.00    +0.000 C 
ATOM     36  C   UNL     1       1.116  15.495  20.889  0.00  0.00    +0.000 C 
ATOM     37  F   UNL     1       1.066  16.765  20.404  0.00  0.00    +0.000 F 
ATOM     38  C   UNL     1       2.023  14.636  20.039  0.00  0.00    +0.000 C 
ATOM     39  F   UNL     1       3.100  15.325  19.598  0.00  0.00    +0.000 F 
ATOM     40  C   UNL     1       1.139  14.161  18.894  0.00  0.00    +0.000 C 
ENDBRANCH  33  34
ENDBRANCH   6  33
TORSDOF 7
ENDMDL
MODEL 7
REMARK VINA RESULT:     -10.2      2.668      3.819
REMARK  Name = 
REMARK  9 active torsions:
REMARK  status: ('A' for Active; 'I' for Inactive)
REMARK    1  A    between atoms: C_1  and  N_2
REMARK    2  A    between atoms: C_6  and  C_7
REMARK    3  A    between atoms: C_7  and  C_10
REMARK    4  A    between atoms: C_10  and  C_11
REMARK    5  A    between atoms: C_10  and  C_13
REMARK    6  A    between atoms: C_17  and  N_18
REMARK    7  A    between atoms: C_23  and  C_24
REMARK    8  A    between atoms: C_24  and  N_25
REMARK    9  A    between atoms: C_33  and  C_34
REMARK                            x       y       z     vdW  Elec       q    Type
REMARK                         _______ _______ _______ _____ _____    ______ ____
ROOT
ATOM      1  N   UNL     1       2.058   7.839  19.204  0.00  0.00    +0.000 N 
ATOM      2  C   UNL     1       1.431   8.135  20.469  0.00  0.00    +0.000 C 
ATOM      3  C   UNL     1       0.830   9.472  20.299  0.00  0.00    +0.000 A 
ATOM      4  C   UNL     1       1.083   9.956  19.018  0.00  0.00    +0.000 A 
ATOM      5  C   UNL     1       0.590  11.200  18.634  0.00  0.00    +0.000 A 
ATOM      6  C   UNL     1      -0.172  11.946  19.571  0.00  0.00    +0.000 A 
ATOM      7  C   UNL     1      -0.393  11.422  20.868  0.00  0.00    +0.000 A 
ATOM      8  C   UNL     1       0.104  10.176  21.253  0.00  0.00    +0.000 A 
ATOM      9  C   UNL     1       1.885   8.904  18.297  0.00  0.00    +0.000 C 
ATOM     10  O   UNL     1       2.282   9.028  17.153  0.00  0.00    +0.000 OA
ENDROOT
BRANCH   1  15
ATOM     11  C   UNL     1       4.399   5.300  17.713  0.00  0.00    +0.000 A 
ATOM     12  C   UNL     1       4.190   4.214  18.570  0.00  0.00    +0.000 A 
ATOM     13  C   UNL     1       3.322   4.337  19.665  0.00  0.00    +0.000 A 
ATOM     14  C   UNL     1       2.610   5.519  19.920  0.00  0.00    +0.000 A 
ATOM     15  C   UNL     1       2.795   6.622  19.096  0.00  0.00    +0.000 A 
ATOM     16  C   UNL     1       3.737   6.494  18.042  0.00  0.00    +0.000 A 
BRANCH  11  17
ATOM     17  C   UNL     1       5.108   5.223  16.341  0.00  0.00    +0.000 C 
ATOM     18  C   UNL     1       4.361   4.147  15.534  0.00  0.00    +0.000 C 
ATOM     19  F   UNL     1       4.910   6.400  15.629  0.00  0.00    +0.000 F 
BRANCH  17  20
ATOM     20  C   UNL     1       6.650   5.002  16.370  0.00  0.00    +0.000 C 
ATOM     21  F   UNL     1       7.236   5.697  15.351  0.00  0.00    +0.000 F 
ATOM     22  F   UNL     1       6.919   3.688  16.103  0.00  0.00    +0.000 F 
BRANCH  20  28
ATOM     23  C   UNL     1       7.377   7.962  17.452  0.00  0.00    +0.000 C 
ATOM     24  N   UNL     1       7.615   6.693  18.084  0.00  0.00    +0.000 N 
ATOM     25  C   UNL     1       8.252   6.550  19.284  0.00  0.00    +0.000 A 
ATOM     26  N   UNL     1       8.261   5.289  19.631  0.00  0.00    +0.000 NA
ATOM     27  N   UNL     1       7.641   4.583  18.634  0.00  0.00    +0.000 NA
ATOM     28  C   UNL     1       7.276   5.422  17.677  0.00  0.00    +0.000 A 
ENDBRANCH  20  28
ENDBRANCH  17  20
ENDBRANCH  11  17
ENDBRANCH   1  15
BRANCH   8  29
ATOM     29  C   UNL     1      -0.168   9.620  22.627  0.00  0.00    +0.000 C 
ATOM     30  F   UNL     1       0.961   9.311  23.329  0.00  0.00    +0.000 F 
ATOM     31  F   UNL     1      -0.860  10.483  23.415  0.00  0.00    +0.000 F 
ATOM     32  F   UNL     1      -0.891   8.469  22.586  0.00  0.00    +0.000 F 
ENDBRANCH   8  29
BRANCH   6  33
ATOM     33  C   UNL     1      -0.872  13.254  19.220  0.00  0.00    +0.000 C 
BRANCH  33  34
ATOM     34  N   UNL     1      -0.225  14.437  19.801  0.00  0.00    +0.000 NA
ATOM     35  C   UNL     1       0.768  15.069  18.912  0.00  0.00    +0.000 C 
ATOM     36  C   UNL     1       0.731  16.561  19.227  0.00  0.00    +0.000 C 
ATOM     37  F   UNL     1       1.533  16.811  20.296  0.00  0.00    +0.000 F 
ATOM     38  C   UNL     1      -0.719  16.794  19.583  0.00  0.00    +0.000 C 
ATOM     39  F   UNL     1      -0.868  17.850  20.415  0.00  0.00    +0.000 F 
ATOM     40  C   UNL     1      -1.170  15.489  20.224  0.00  0.00    +0.000 C 
ENDBRANCH  33  34
ENDBRANCH   6  33
TORSDOF 7
ENDMDL
MODEL 8
REMARK VINA RESULT:     -10.2      2.437      3.478
REMARK  Name = 
REMARK  9 active torsions:
REMARK  status: ('A' for Active; 'I' for Inactive)
REMARK    1  A    between atoms: C_1  and  N_2
REMARK    2  A    between atoms: C_6  and  C_7
REMARK    3  A    between atoms: C_7  and  C_10
REMARK    4  A    between atoms: C_10  and  C_11
REMARK    5  A    between atoms: C_10  and  C_13
REMARK    6  A    between atoms: C_17  and  N_18
REMARK    7  A    between atoms: C_23  and  C_24
REMARK    8  A    between atoms: C_24  and  N_25
REMARK    9  A    between atoms: C_33  and  C_34
REMARK                            x       y       z     vdW  Elec       q    Type
REMARK                         _______ _______ _______ _____ _____    ______ ____
ROOT
ATOM      1  N   UNL     1       2.097   7.783  19.305  0.00  0.00    +0.000 N 
ATOM      2  C   UNL     1       1.476   8.074  20.574  0.00  0.00    +0.000 C 
ATOM      3  C   UNL     1       0.826   9.387  20.394  0.00  0.00    +0.000 A 
ATOM      4  C   UNL     1       1.047   9.861  19.104  0.00  0.00    +0.000 A 
ATOM      5  C   UNL     1       0.505  11.083  18.710  0.00  0.00    +0.000 A 
ATOM      6  C   UNL     1      -0.271  11.814  19.647  0.00  0.00    +0.000 A 
ATOM      7  C   UNL     1      -0.458  11.300  20.953  0.00  0.00    +0.000 A 
ATOM      8  C   UNL     1       0.088  10.077  21.348  0.00  0.00    +0.000 A 
ATOM      9  C   UNL     1       1.876   8.829  18.387  0.00  0.00    +0.000 C 
ATOM     10  O   UNL     1       2.254   8.951  17.236  0.00  0.00    +0.000 OA
ENDROOT
BRANCH   1  15
ATOM     11  C   UNL     1       4.546   5.331  17.842  0.00  0.00    +0.000 A 
ATOM     12  C   UNL     1       4.357   4.234  18.690  0.00  0.00    +0.000 A 
ATOM     13  C   UNL     1       3.467   4.321  19.770  0.00  0.00    +0.000 A 
ATOM     14  C   UNL     1       2.712   5.478  20.018  0.00  0.00    +0.000 A 
ATOM     15  C   UNL     1       2.875   6.591  19.204  0.00  0.00    +0.000 A 
ATOM     16  C   UNL     1       3.840   6.500  18.166  0.00  0.00    +0.000 A 
BRANCH  11  17
ATOM     17  C   UNL     1       5.281   5.285  16.483  0.00  0.00    +0.000 C 
ATOM     18  C   UNL     1       4.693   4.086  15.719  0.00  0.00    +0.000 C 
ATOM     19  F   UNL     1       4.944   6.393  15.714  0.00  0.00    +0.000 F 
BRANCH  17  20
ATOM     20  C   UNL     1       6.838   5.267  16.538  0.00  0.00    +0.000 C 
ATOM     21  F   UNL     1       7.345   5.236  15.270  0.00  0.00    +0.000 F 
ATOM     22  F   UNL     1       7.253   4.098  17.114  0.00  0.00    +0.000 F 
BRANCH  20  28
ATOM     23  C   UNL     1       7.973   5.484  19.559  0.00  0.00    +0.000 C 
ATOM     24  N   UNL     1       7.841   6.523  18.573  0.00  0.00    +0.000 N 
ATOM     25  C   UNL     1       8.162   7.831  18.802  0.00  0.00    +0.000 A 
ATOM     26  N   UNL     1       7.998   8.524  17.704  0.00  0.00    +0.000 NA
ATOM     27  N   UNL     1       7.540   7.665  16.740  0.00  0.00    +0.000 NA
ATOM     28  C   UNL     1       7.411   6.457  17.268  0.00  0.00    +0.000 A 
ENDBRANCH  20  28
ENDBRANCH  17  20
ENDBRANCH  11  17
ENDBRANCH   1  15
BRANCH   8  29
ATOM     29  C   UNL     1      -0.148   9.531  22.732  0.00  0.00    +0.000 C 
ATOM     30  F   UNL     1      -0.907  10.344  23.523  0.00  0.00    +0.000 F 
ATOM     31  F   UNL     1      -0.789   8.333  22.722  0.00  0.00    +0.000 F 
ATOM     32  F   UNL     1       1.011   9.343  23.420  0.00  0.00    +0.000 F 
ENDBRANCH   8  29
BRANCH   6  33
ATOM     33  C   UNL     1      -1.021  13.091  19.288  0.00  0.00    +0.000 C 
BRANCH  33  34
ATOM     34  N   UNL     1      -1.394  13.898  20.457  0.00  0.00    +0.000 NA
ATOM     35  C   UNL     1      -1.018  15.320  20.342  0.00  0.00    +0.000 C 
ATOM     36  C   UNL     1      -2.078  16.103  21.110  0.00  0.00    +0.000 C 
ATOM     37  F   UNL     1      -1.748  16.125  22.429  0.00  0.00    +0.000 F 
ATOM     38  C   UNL     1      -3.328  15.284  20.888  0.00  0.00    +0.000 C 
ATOM     39  F   UNL     1      -4.219  15.444  21.893  0.00  0.00    +0.000 F 
ATOM     40  C   UNL     1      -2.832  13.848  20.786  0.00  0.00    +0.000 C 
ENDBRANCH  33  34
ENDBRANCH   6  33
TORSDOF 7
ENDMDL
MODEL 9
REMARK VINA RESULT:     -10.1      2.245      2.968
REMARK  Name = 
REMARK  9 active torsions:
REMARK  status: ('A' for Active; 'I' for Inactive)
REMARK    1  A    between atoms: C_1  and  N_2
REMARK    2  A    between atoms: C_6  and  C_7
REMARK    3  A    between atoms: C_7  and  C_10
REMARK    4  A    between atoms: C_10  and  C_11
REMARK    5  A    between atoms: C_10  and  C_13
REMARK    6  A    between atoms: C_17  and  N_18
REMARK    7  A    between atoms: C_23  and  C_24
REMARK    8  A    between atoms: C_24  and  N_25
REMARK    9  A    between atoms: C_33  and  C_34
REMARK                            x       y       z     vdW  Elec       q    Type
REMARK                         _______ _______ _______ _____ _____    ______ ____
ROOT
ATOM      1  N   UNL     1       2.126   7.516  19.504  0.00  0.00    +0.000 N 
ATOM      2  C   UNL     1       1.440   7.924  20.704  0.00  0.00    +0.000 C 
ATOM      3  C   UNL     1       0.890   9.259  20.400  0.00  0.00    +0.000 A 
ATOM      4  C   UNL     1       1.228   9.636  19.103  0.00  0.00    +0.000 A 
ATOM      5  C   UNL     1       0.795  10.860  18.599  0.00  0.00    +0.000 A 
ATOM      6  C   UNL     1       0.005  11.695  19.432  0.00  0.00    +0.000 A 
ATOM      7  C   UNL     1      -0.303  11.278  20.750  0.00  0.00    +0.000 A 
ATOM      8  C   UNL     1       0.134  10.053  21.256  0.00  0.00    +0.000 A 
ATOM      9  C   UNL     1       2.037   8.512  18.511  0.00  0.00    +0.000 C 
ATOM     10  O   UNL     1       2.499   8.537  17.385  0.00  0.00    +0.000 OA
ENDROOT
BRANCH   1  15
ATOM     11  C   UNL     1       5.007   5.132  19.095  0.00  0.00    +0.000 A 
ATOM     12  C   UNL     1       4.367   3.906  19.311  0.00  0.00    +0.000 A 
ATOM     13  C   UNL     1       3.005   3.871  19.642  0.00  0.00    +0.000 A 
ATOM     14  C   UNL     1       2.231   5.038  19.730  0.00  0.00    +0.000 A 
ATOM     15  C   UNL     1       2.831   6.275  19.530  0.00  0.00    +0.000 A 
ATOM     16  C   UNL     1       4.227   6.285  19.273  0.00  0.00    +0.000 A 
BRANCH  11  17
ATOM     17  C   UNL     1       6.413   5.301  18.473  0.00  0.00    +0.000 C 
ATOM     18  C   UNL     1       7.356   5.650  19.637  0.00  0.00    +0.000 C 
ATOM     19  F   UNL     1       6.879   4.082  17.996  0.00  0.00    +0.000 F 
BRANCH  17  20
ATOM     20  C   UNL     1       6.527   6.294  17.278  0.00  0.00    +0.000 C 
ATOM     21  F   UNL     1       7.618   7.098  17.448  0.00  0.00    +0.000 F 
ATOM     22  F   UNL     1       5.454   7.142  17.297  0.00  0.00    +0.000 F 
BRANCH  20  28
ATOM     23  C   UNL     1       4.411   4.349  15.793  0.00  0.00    +0.000 C 
ATOM     24  N   UNL     1       5.730   4.734  15.366  0.00  0.00    +0.000 N 
ATOM     25  C   UNL     1       6.321   4.275  14.223  0.00  0.00    +0.000 A 
ATOM     26  N   UNL     1       7.486   4.849  14.068  0.00  0.00    +0.000 NA
ATOM     27  N   UNL     1       7.679   5.683  15.137  0.00  0.00    +0.000 NA
ATOM     28  C   UNL     1       6.634   5.595  15.945  0.00  0.00    +0.000 A 
ENDBRANCH  20  28
ENDBRANCH  17  20
ENDBRANCH  11  17
ENDBRANCH   1  15
BRANCH   8  29
ATOM     29  C   UNL     1      -0.230   9.611  22.649  0.00  0.00    +0.000 C 
ATOM     30  F   UNL     1      -0.947   8.450  22.689  0.00  0.00    +0.000 F 
ATOM     31  F   UNL     1       0.857   9.393  23.433  0.00  0.00    +0.000 F 
ATOM     32  F   UNL     1      -0.997  10.528  23.299  0.00  0.00    +0.000 F 
ENDBRANCH   8  29
BRANCH   6  33
ATOM     33  C   UNL     1      -0.634  12.990  18.944  0.00  0.00    +0.000 C 
BRANCH  33  34
ATOM     34  N   UNL     1      -0.004  14.197  19.496  0.00  0.00    +0.000 NA
ATOM     35  C   UNL     1       1.356  14.445  18.983  0.00  0.00    +0.000 C 
ATOM     36  C   UNL     1       1.530  15.961  18.959  0.00  0.00    +0.000 C 
ATOM     37  F   UNL     1       1.920  16.384  20.191  0.00  0.00    +0.000 F 
ATOM     38  C   UNL     1       0.137  16.455  18.642  0.00  0.00    +0.000 C 
ATOM     39  F   UNL     1      -0.074  17.702  19.120  0.00  0.00    +0.000 F 
ATOM     40  C   UNL     1      -0.788  15.430  19.286  0.00  0.00    +0.000 C 
ENDBRANCH  33  34
ENDBRANCH   6  33
TORSDOF 7
ENDMDL
