MODEL 1
REMARK VINA RESULT:     -10.1      0.000      0.000
REMARK  Name = 
REMARK  8 active torsions:
REMARK  status: ('A' for Active; 'I' for Inactive)
REMARK    1  A    between atoms: C_1  and  N_2
REMARK    2  A    between atoms: C_6  and  C_7
REMARK    3  A    between atoms: C_7  and  C_10
REMARK    4  A    between atoms: C_10  and  C_11
REMARK    5  A    between atoms: C_15  and  N_16
REMARK    6  A    between atoms: C_21  and  C_22
REMARK    7  A    between atoms: C_22  and  N_23
REMARK    8  A    between atoms: C_29  and  C_30
REMARK                            x       y       z     vdW  Elec       q    Type
REMARK                         _______ _______ _______ _____ _____    ______ ____
ROOT
ATOM      1  N   UNL     1       1.752   7.719  20.046  0.00  0.00    +0.000 N 
ATOM      2  C   UNL     1       1.734   6.381  20.596  0.00  0.00    +0.000 C 
ATOM      3  C   UNL     1       2.397   5.543  19.577  0.00  0.00    +0.000 A 
ATOM      4  C   UNL     1       2.907   6.357  18.567  0.00  0.00    +0.000 A 
ATOM      5  C   UNL     1       3.673   5.806  17.544  0.00  0.00    +0.000 A 
ATOM      6  C   UNL     1       3.884   4.405  17.534  0.00  0.00    +0.000 A 
ATOM      7  C   UNL     1       3.286   3.603  18.536  0.00  0.00    +0.000 A 
ATOM      8  C   UNL     1       2.535   4.161  19.576  0.00  0.00    +0.000 A 
ATOM      9  C   UNL     1       2.473   7.760  18.844  0.00  0.00    +0.000 C 
ATOM     10  O   UNL     1       2.718   8.696  18.098  0.00  0.00    +0.000 OA
ENDROOT
BRANCH   1  15
ATOM     11  C   UNL     1      -0.166  10.937  20.412  0.00  0.00    +0.000 A 
ATOM     12  C   UNL     1      -0.344  10.951  21.801  0.00  0.00    +0.000 A 
ATOM     13  C   UNL     1       0.099   9.890  22.609  0.00  0.00    +0.000 A 
ATOM     14  C   UNL     1       0.764   8.783  22.059  0.00  0.00    +0.000 A 
ATOM     15  C   UNL     1       0.979   8.725  20.690  0.00  0.00    +0.000 A 
ATOM     16  C   UNL     1       0.463   9.783  19.905  0.00  0.00    +0.000 A 
BRANCH  11  17
ATOM     17  C   UNL     1      -0.564  12.154  19.404  0.00  0.00    +0.000 C 
ATOM     18  C   UNL     1       0.644  12.766  18.632  0.00  0.00    +0.000 C 
ATOM     19  O   UNL     1       0.446  14.062  19.223  0.00  0.00    +0.000 OA
ATOM     20  C   UNL     1      -0.677  13.581  19.992  0.00  0.00    +0.000 C 
BRANCH  17  21
ATOM     21  C   UNL     1      -1.710  11.782  18.450  0.00  0.00    +0.000 C 
ATOM     22  F   UNL     1      -1.543  10.476  18.076  0.00  0.00    +0.000 F 
ATOM     23  F   UNL     1      -1.579  12.489  17.288  0.00  0.00    +0.000 F 
BRANCH  21  29
ATOM     24  C   UNL     1      -4.488  11.359  16.982  0.00  0.00    +0.000 C 
ATOM     25  N   UNL     1      -4.264  11.803  18.333  0.00  0.00    +0.000 N 
ATOM     26  C   UNL     1      -5.255  12.135  19.210  0.00  0.00    +0.000 A 
ATOM     27  N   UNL     1      -4.727  12.538  20.340  0.00  0.00    +0.000 NA
ATOM     28  N   UNL     1      -3.365  12.470  20.207  0.00  0.00    +0.000 NA
ATOM     29  C   UNL     1      -3.080  12.002  19.004  0.00  0.00    +0.000 A 
ENDBRANCH  21  29
ENDBRANCH  17  21
ENDBRANCH  11  17
ENDBRANCH   1  15
BRANCH   8  30
ATOM     30  C   UNL     1       1.913   3.290  20.635  0.00  0.00    +0.000 C 
ATOM     31  F   UNL     1       0.587   3.538  20.839  0.00  0.00    +0.000 F 
ATOM     32  F   UNL     1       1.994   1.968  20.331  0.00  0.00    +0.000 F 
ATOM     33  F   UNL     1       2.500   3.443  21.851  0.00  0.00    +0.000 F 
ENDBRANCH   8  30
BRANCH   6  34
ATOM     34  C   UNL     1       4.851   3.786  16.533  0.00  0.00    +0.000 C 
BRANCH  34  35
ATOM     35  N   UNL     1       5.506   4.738  15.616  0.00  0.00    +0.000 NA
ATOM     36  C   UNL     1       6.977   4.706  15.734  0.00  0.00    +0.000 C 
ATOM     37  C   UNL     1       7.095   4.451  14.220  0.00  0.00    +0.000 C 
ATOM     38  F   UNL     1       7.474   5.504  13.455  0.00  0.00    +0.000 F 
ATOM     39  C   UNL     1       5.588   4.149  14.262  0.00  0.00    +0.000 C 
ENDBRANCH  34  35
ENDBRANCH   6  34
TORSDOF 7
ENDMDL
MODEL 2
REMARK VINA RESULT:     -10.1      1.890      2.694
REMARK  Name = 
REMARK  8 active torsions:
REMARK  status: ('A' for Active; 'I' for Inactive)
REMARK    1  A    between atoms: C_1  and  N_2
REMARK    2  A    between atoms: C_6  and  C_7
REMARK    3  A    between atoms: C_7  and  C_10
REMARK    4  A    between atoms: C_10  and  C_11
REMARK    5  A    between atoms: C_15  and  N_16
REMARK    6  A    between atoms: C_21  and  C_22
REMARK    7  A    between atoms: C_22  and  N_23
REMARK    8  A    between atoms: C_29  and  C_30
REMARK                            x       y       z     vdW  Elec       q    Type
REMARK                         _______ _______ _______ _____ _____    ______ ____
ROOT
ATOM      1  N   UNL     1       1.775   7.569  20.090  0.00  0.00    +0.000 N 
ATOM      2  C   UNL     1       1.762   6.213  20.595  0.00  0.00    +0.000 C 
ATOM      3  C   UNL     1       2.414   5.411  19.540  0.00  0.00    +0.000 A 
ATOM      4  C   UNL     1       2.913   6.259  18.553  0.00  0.00    +0.000 A 
ATOM      5  C   UNL     1       3.668   5.744  17.504  0.00  0.00    +0.000 A 
ATOM      6  C   UNL     1       3.878   4.344  17.443  0.00  0.00    +0.000 A 
ATOM      7  C   UNL     1       3.291   3.508  18.424  0.00  0.00    +0.000 A 
ATOM      8  C   UNL     1       2.552   4.030  19.491  0.00  0.00    +0.000 A 
ATOM      9  C   UNL     1       2.482   7.652  18.882  0.00  0.00    +0.000 C 
ATOM     10  O   UNL     1       2.718   8.613  18.166  0.00  0.00    +0.000 OA
ENDROOT
BRANCH   1  15
ATOM     11  C   UNL     1      -0.292  10.683  20.545  0.00  0.00    +0.000 A 
ATOM     12  C   UNL     1      -0.332  10.739  21.944  0.00  0.00    +0.000 A 
ATOM     13  C   UNL     1       0.253   9.737  22.737  0.00  0.00    +0.000 A 
ATOM     14  C   UNL     1       0.927   8.650  22.158  0.00  0.00    +0.000 A 
ATOM     15  C   UNL     1       1.008   8.553  20.776  0.00  0.00    +0.000 A 
ATOM     16  C   UNL     1       0.353   9.548  20.014  0.00  0.00    +0.000 A 
BRANCH  11  17
ATOM     17  C   UNL     1      -0.862  11.835  19.544  0.00  0.00    +0.000 C 
ATOM     18  C   UNL     1      -2.193  12.494  20.017  0.00  0.00    +0.000 C 
ATOM     19  O   UNL     1      -2.903  12.047  18.849  0.00  0.00    +0.000 OA
ATOM     20  C   UNL     1      -1.723  11.391  18.337  0.00  0.00    +0.000 C 
BRANCH  17  21
ATOM     21  C   UNL     1       0.196  12.894  19.196  0.00  0.00    +0.000 C 
ATOM     22  F   UNL     1      -0.273  13.631  18.142  0.00  0.00    +0.000 F 
ATOM     23  F   UNL     1       1.313  12.274  18.709  0.00  0.00    +0.000 F 
BRANCH  21  29
ATOM     24  C   UNL     1      -0.840  15.827  19.807  0.00  0.00    +0.000 C 
ATOM     25  N   UNL     1       0.109  15.053  20.563  0.00  0.00    +0.000 N 
ATOM     26  C   UNL     1       0.741  15.492  21.690  0.00  0.00    +0.000 A 
ATOM     27  N   UNL     1       1.571  14.573  22.117  0.00  0.00    +0.000 NA
ATOM     28  N   UNL     1       1.487  13.509  21.259  0.00  0.00    +0.000 NA
ATOM     29  C   UNL     1       0.586  13.784  20.331  0.00  0.00    +0.000 A 
ENDBRANCH  21  29
ENDBRANCH  17  21
ENDBRANCH  11  17
ENDBRANCH   1  15
BRANCH   8  30
ATOM     30  C   UNL     1       1.942   3.123  20.526  0.00  0.00    +0.000 C 
ATOM     31  F   UNL     1       0.645   3.426  20.824  0.00  0.00    +0.000 F 
ATOM     32  F   UNL     1       1.930   1.822  20.133  0.00  0.00    +0.000 F 
ATOM     33  F   UNL     1       2.603   3.162  21.712  0.00  0.00    +0.000 F 
ENDBRANCH   8  30
BRANCH   6  34
ATOM     34  C   UNL     1       4.835   3.759  16.411  0.00  0.00    +0.000 C 
BRANCH  34  35
ATOM     35  N   UNL     1       5.510   4.745  15.547  0.00  0.00    +0.000 NA
ATOM     36  C   UNL     1       6.977   4.723  15.714  0.00  0.00    +0.000 C 
ATOM     37  C   UNL     1       7.149   4.517  14.198  0.00  0.00    +0.000 C 
ATOM     38  F   UNL     1       7.543   5.597  13.480  0.00  0.00    +0.000 F 
ATOM     39  C   UNL     1       5.644   4.201  14.179  0.00  0.00    +0.000 C 
ENDBRANCH  34  35
ENDBRANCH   6  34
TORSDOF 7
ENDMDL
MODEL 3
REMARK VINA RESULT:     -10.1      2.037      2.950
REMARK  Name = 
REMARK  8 active torsions:
REMARK  status: ('A' for Active; 'I' for Inactive)
REMARK    1  A    between atoms: C_1  and  N_2
REMARK    2  A    between atoms: C_6  and  C_7
REMARK    3  A    between atoms: C_7  and  C_10
REMARK    4  A    between atoms: C_10  and  C_11
REMARK    5  A    between atoms: C_15  and  N_16
REMARK    6  A    between atoms: C_21  and  C_22
REMARK    7  A    between atoms: C_22  and  N_23
REMARK    8  A    between atoms: C_29  and  C_30
REMARK                            x       y       z     vdW  Elec       q    Type
REMARK                         _______ _______ _______ _____ _____    ______ ____
ROOT
ATOM      1  N   UNL     1       1.592   7.876  20.198  0.00  0.00    +0.000 N 
ATOM      2  C   UNL     1       1.649   6.556  20.787  0.00  0.00    +0.000 C 
ATOM      3  C   UNL     1       2.299   5.713  19.763  0.00  0.00    +0.000 A 
ATOM      4  C   UNL     1       2.734   6.514  18.709  0.00  0.00    +0.000 A 
ATOM      5  C   UNL     1       3.475   5.962  17.670  0.00  0.00    +0.000 A 
ATOM      6  C   UNL     1       3.739   4.569  17.690  0.00  0.00    +0.000 A 
ATOM      7  C   UNL     1       3.217   3.776  18.741  0.00  0.00    +0.000 A 
ATOM      8  C   UNL     1       2.491   4.337  19.797  0.00  0.00    +0.000 A 
ATOM      9  C   UNL     1       2.258   7.908  18.964  0.00  0.00    +0.000 C 
ATOM     10  O   UNL     1       2.434   8.829  18.182  0.00  0.00    +0.000 OA
ENDROOT
BRANCH   1  15
ATOM     11  C   UNL     1      -0.526  10.970  20.534  0.00  0.00    +0.000 A 
ATOM     12  C   UNL     1      -0.569  11.078  21.930  0.00  0.00    +0.000 A 
ATOM     13  C   UNL     1       0.031  10.116  22.760  0.00  0.00    +0.000 A 
ATOM     14  C   UNL     1       0.724   9.020  22.223  0.00  0.00    +0.000 A 
ATOM     15  C   UNL     1       0.809   8.872  20.846  0.00  0.00    +0.000 A 
ATOM     16  C   UNL     1       0.138   9.827  20.047  0.00  0.00    +0.000 A 
BRANCH  11  17
ATOM     17  C   UNL     1      -1.113  12.075  19.490  0.00  0.00    +0.000 C 
ATOM     18  C   UNL     1      -2.658  12.009  19.290  0.00  0.00    +0.000 C 
ATOM     19  O   UNL     1      -2.528  11.713  17.889  0.00  0.00    +0.000 OA
ATOM     20  C   UNL     1      -1.088  11.735  17.979  0.00  0.00    +0.000 C 
BRANCH  17  21
ATOM     21  C   UNL     1      -0.649  13.503  19.814  0.00  0.00    +0.000 C 
ATOM     22  F   UNL     1      -1.567  14.065  20.659  0.00  0.00    +0.000 F 
ATOM     23  F   UNL     1      -0.713  14.268  18.683  0.00  0.00    +0.000 F 
BRANCH  21  29
ATOM     24  C   UNL     1       2.109  12.918  18.362  0.00  0.00    +0.000 C 
ATOM     25  N   UNL     1       1.901  13.337  19.723  0.00  0.00    +0.000 N 
ATOM     26  C   UNL     1       2.901  13.538  20.630  0.00  0.00    +0.000 A 
ATOM     27  N   UNL     1       2.386  13.874  21.787  0.00  0.00    +0.000 NA
ATOM     28  N   UNL     1       1.024  13.897  21.643  0.00  0.00    +0.000 NA
ATOM     29  C   UNL     1       0.726  13.597  20.390  0.00  0.00    +0.000 A 
ENDBRANCH  21  29
ENDBRANCH  17  21
ENDBRANCH  11  17
ENDBRANCH   1  15
BRANCH   8  30
ATOM     30  C   UNL     1       1.949   3.477  20.907  0.00  0.00    +0.000 C 
ATOM     31  F   UNL     1       2.376   3.851  22.148  0.00  0.00    +0.000 F 
ATOM     32  F   UNL     1       0.592   3.501  20.966  0.00  0.00    +0.000 F 
ATOM     33  F   UNL     1       2.307   2.172  20.781  0.00  0.00    +0.000 F 
ENDBRANCH   8  30
BRANCH   6  34
ATOM     34  C   UNL     1       4.686   3.956  16.666  0.00  0.00    +0.000 C 
BRANCH  34  35
ATOM     35  N   UNL     1       5.403   4.922  15.813  0.00  0.00    +0.000 NA
ATOM     36  C   UNL     1       6.867   4.839  15.983  0.00  0.00    +0.000 C 
ATOM     37  C   UNL     1       7.035   4.639  14.465  0.00  0.00    +0.000 C 
ATOM     38  F   UNL     1       7.475   5.708  13.758  0.00  0.00    +0.000 F 
ATOM     39  C   UNL     1       5.518   4.385  14.440  0.00  0.00    +0.000 C 
ENDBRANCH  34  35
ENDBRANCH   6  34
TORSDOF 7
ENDMDL
MODEL 4
REMARK VINA RESULT:     -10.1      1.278      1.823
REMARK  Name = 
REMARK  8 active torsions:
REMARK  status: ('A' for Active; 'I' for Inactive)
REMARK    1  A    between atoms: C_1  and  N_2
REMARK    2  A    between atoms: C_6  and  C_7
REMARK    3  A    between atoms: C_7  and  C_10
REMARK    4  A    between atoms: C_10  and  C_11
REMARK    5  A    between atoms: C_15  and  N_16
REMARK    6  A    between atoms: C_21  and  C_22
REMARK    7  A    between atoms: C_22  and  N_23
REMARK    8  A    between atoms: C_29  and  C_30
REMARK                            x       y       z     vdW  Elec       q    Type
REMARK                         _______ _______ _______ _____ _____    ______ ____
ROOT
ATOM      1  N   UNL     1       1.689   7.891  20.064  0.00  0.00    +0.000 N 
ATOM      2  C   UNL     1       1.706   6.575  20.666  0.00  0.00    +0.000 C 
ATOM      3  C   UNL     1       2.346   5.706  19.657  0.00  0.00    +0.000 A 
ATOM      4  C   UNL     1       2.812   6.485  18.600  0.00  0.00    +0.000 A 
ATOM      5  C   UNL     1       3.550   5.905  17.575  0.00  0.00    +0.000 A 
ATOM      6  C   UNL     1       3.779   4.507  17.611  0.00  0.00    +0.000 A 
ATOM      7  C   UNL     1       3.225   3.737  18.663  0.00  0.00    +0.000 A 
ATOM      8  C   UNL     1       2.502   4.326  19.705  0.00  0.00    +0.000 A 
ATOM      9  C   UNL     1       2.369   7.894  18.838  0.00  0.00    +0.000 C 
ATOM     10  O   UNL     1       2.576   8.803  18.049  0.00  0.00    +0.000 OA
ENDROOT
BRANCH   1  15
ATOM     11  C   UNL     1       0.453  11.372  20.790  0.00  0.00    +0.000 A 
ATOM     12  C   UNL     1      -0.292  11.122  21.950  0.00  0.00    +0.000 A 
ATOM     13  C   UNL     1      -0.446   9.822  22.458  0.00  0.00    +0.000 A 
ATOM     14  C   UNL     1       0.163   8.719  21.839  0.00  0.00    +0.000 A 
ATOM     15  C   UNL     1       0.924   8.912  20.694  0.00  0.00    +0.000 A 
ATOM     16  C   UNL     1       1.003  10.227  20.180  0.00  0.00    +0.000 A 
BRANCH  11  17
ATOM     17  C   UNL     1       0.762  12.848  20.173  0.00  0.00    +0.000 C 
ATOM     18  C   UNL     1       1.851  12.860  19.058  0.00  0.00    +0.000 C 
ATOM     19  O   UNL     1       2.716  13.717  19.824  0.00  0.00    +0.000 OA
ATOM     20  C   UNL     1       1.775  13.751  20.918  0.00  0.00    +0.000 C 
BRANCH  17  21
ATOM     21  C   UNL     1      -0.511  13.581  19.723  0.00  0.00    +0.000 C 
ATOM     22  F   UNL     1      -0.136  14.636  18.936  0.00  0.00    +0.000 F 
ATOM     23  F   UNL     1      -1.107  14.161  20.808  0.00  0.00    +0.000 F 
BRANCH  21  29
ATOM     24  C   UNL     1      -3.386  12.712  20.738  0.00  0.00    +0.000 C 
ATOM     25  N   UNL     1      -2.752  12.371  19.491  0.00  0.00    +0.000 N 
ATOM     26  C   UNL     1      -3.311  11.579  18.531  0.00  0.00    +0.000 A 
ATOM     27  N   UNL     1      -2.469  11.427  17.540  0.00  0.00    +0.000 NA
ATOM     28  N   UNL     1      -1.335  12.130  17.848  0.00  0.00    +0.000 NA
ATOM     29  C   UNL     1      -1.510  12.724  19.017  0.00  0.00    +0.000 A 
ENDBRANCH  21  29
ENDBRANCH  17  21
ENDBRANCH  11  17
ENDBRANCH   1  15
BRANCH   8  30
ATOM     30  C   UNL     1       1.927   3.490  20.818  0.00  0.00    +0.000 C 
ATOM     31  F   UNL     1       2.172   2.154  20.682  0.00  0.00    +0.000 F 
ATOM     32  F   UNL     1       2.430   3.831  22.034  0.00  0.00    +0.000 F 
ATOM     33  F   UNL     1       0.577   3.601  20.913  0.00  0.00    +0.000 F 
ENDBRANCH   8  30
BRANCH   6  34
ATOM     34  C   UNL     1       4.721   3.860  16.603  0.00  0.00    +0.000 C 
BRANCH  34  35
ATOM     35  N   UNL     1       5.432   4.797  15.714  0.00  0.00    +0.000 NA
ATOM     36  C   UNL     1       6.898   4.675  15.830  0.00  0.00    +0.000 C 
ATOM     37  C   UNL     1       7.004   4.456  14.310  0.00  0.00    +0.000 C 
ATOM     38  F   UNL     1       7.446   5.506  13.575  0.00  0.00    +0.000 F 
ATOM     39  C   UNL     1       5.481   4.244  14.343  0.00  0.00    +0.000 C 
ENDBRANCH  34  35
ENDBRANCH   6  34
TORSDOF 7
ENDMDL
MODEL 5
REMARK VINA RESULT:     -10.0      1.151      1.507
REMARK  Name = 
REMARK  8 active torsions:
REMARK  status: ('A' for Active; 'I' for Inactive)
REMARK    1  A    between atoms: C_1  and  N_2
REMARK    2  A    between atoms: C_6  and  C_7
REMARK    3  A    between atoms: C_7  and  C_10
REMARK    4  A    between atoms: C_10  and  C_11
REMARK    5  A    between atoms: C_15  and  N_16
REMARK    6  A    between atoms: C_21  and  C_22
REMARK    7  A    between atoms: C_22  and  N_23
REMARK    8  A    between atoms: C_29  and  C_30
REMARK                            x       y       z     vdW  Elec       q    Type
REMARK                         _______ _______ _______ _____ _____    ______ ____
ROOT
ATOM      1  N   UNL     1       1.575   7.840  20.226  0.00  0.00    +0.000 N 
ATOM      2  C   UNL     1       1.655   6.522  20.816  0.00  0.00    +0.000 C 
ATOM      3  C   UNL     1       2.281   5.679  19.778  0.00  0.00    +0.000 A 
ATOM      4  C   UNL     1       2.683   6.479  18.710  0.00  0.00    +0.000 A 
ATOM      5  C   UNL     1       3.398   5.927  17.653  0.00  0.00    +0.000 A 
ATOM      6  C   UNL     1       3.670   4.537  17.670  0.00  0.00    +0.000 A 
ATOM      7  C   UNL     1       3.180   3.744  18.736  0.00  0.00    +0.000 A 
ATOM      8  C   UNL     1       2.480   4.304  19.810  0.00  0.00    +0.000 A 
ATOM      9  C   UNL     1       2.207   7.871  18.974  0.00  0.00    +0.000 C 
ATOM     10  O   UNL     1       2.357   8.791  18.185  0.00  0.00    +0.000 OA
ENDROOT
BRANCH   1  15
ATOM     11  C   UNL     1       0.360  11.290  21.116  0.00  0.00    +0.000 A 
ATOM     12  C   UNL     1      -0.420  10.985  22.238  0.00  0.00    +0.000 A 
ATOM     13  C   UNL     1      -0.605   9.659  22.666  0.00  0.00    +0.000 A 
ATOM     14  C   UNL     1       0.008   8.586  22.001  0.00  0.00    +0.000 A 
ATOM     15  C   UNL     1       0.805   8.834  20.892  0.00  0.00    +0.000 A 
ATOM     16  C   UNL     1       0.915  10.175  20.457  0.00  0.00    +0.000 A 
BRANCH  11  17
ATOM     17  C   UNL     1       0.706  12.795  20.595  0.00  0.00    +0.000 C 
ATOM     18  C   UNL     1       2.220  13.047  20.326  0.00  0.00    +0.000 C 
ATOM     19  O   UNL     1       2.290  14.081  21.324  0.00  0.00    +0.000 OA
ATOM     20  C   UNL     1       0.896  13.908  21.655  0.00  0.00    +0.000 C 
BRANCH  17  21
ATOM     21  C   UNL     1      -0.157  13.220  19.397  0.00  0.00    +0.000 C 
ATOM     22  F   UNL     1       0.382  12.661  18.269  0.00  0.00    +0.000 F 
ATOM     23  F   UNL     1      -0.030  14.567  19.203  0.00  0.00    +0.000 F 
BRANCH  21  29
ATOM     24  C   UNL     1      -1.802  11.119  17.684  0.00  0.00    +0.000 C 
ATOM     25  N   UNL     1      -2.283  11.954  18.753  0.00  0.00    +0.000 N 
ATOM     26  C   UNL     1      -3.574  11.976  19.194  0.00  0.00    +0.000 A 
ATOM     27  N   UNL     1      -3.700  12.866  20.146  0.00  0.00    +0.000 NA
ATOM     28  N   UNL     1      -2.472  13.442  20.339  0.00  0.00    +0.000 NA
ATOM     29  C   UNL     1      -1.606  12.877  19.516  0.00  0.00    +0.000 A 
ENDBRANCH  21  29
ENDBRANCH  17  21
ENDBRANCH  11  17
ENDBRANCH   1  15
BRANCH   8  30
ATOM     30  C   UNL     1       1.973   3.444  20.937  0.00  0.00    +0.000 C 
ATOM     31  F   UNL     1       2.355   2.137  20.843  0.00  0.00    +0.000 F 
ATOM     32  F   UNL     1       2.417   3.867  22.150  0.00  0.00    +0.000 F 
ATOM     33  F   UNL     1       0.617   3.419  21.008  0.00  0.00    +0.000 F 
ENDBRANCH   8  30
BRANCH   6  34
ATOM     34  C   UNL     1       4.591   3.925  16.621  0.00  0.00    +0.000 C 
BRANCH  34  35
ATOM     35  N   UNL     1       5.446   4.884  15.897  0.00  0.00    +0.000 NA
ATOM     36  C   UNL     1       6.883   4.603  16.084  0.00  0.00    +0.000 C 
ATOM     37  C   UNL     1       7.075   4.554  14.557  0.00  0.00    +0.000 C 
ATOM     38  F   UNL     1       7.663   5.633  13.984  0.00  0.00    +0.000 F 
ATOM     39  C   UNL     1       5.541   4.492  14.474  0.00  0.00    +0.000 C 
ENDBRANCH  34  35
ENDBRANCH   6  34
TORSDOF 7
ENDMDL
MODEL 6
REMARK VINA RESULT:     -10.0      2.075      3.111
REMARK  Name = 
REMARK  8 active torsions:
REMARK  status: ('A' for Active; 'I' for Inactive)
REMARK    1  A    between atoms: C_1  and  N_2
REMARK    2  A    between atoms: C_6  and  C_7
REMARK    3  A    between atoms: C_7  and  C_10
REMARK    4  A    between atoms: C_10  and  C_11
REMARK    5  A    between atoms: C_15  and  N_16
REMARK    6  A    between atoms: C_21  and  C_22
REMARK    7  A    between atoms: C_22  and  N_23
REMARK    8  A    between atoms: C_29  and  C_30
REMARK                            x       y       z     vdW  Elec       q    Type
REMARK                         _______ _______ _______ _____ _____    ______ ____
ROOT
ATOM      1  N   UNL     1       1.632   7.805  20.177  0.00  0.00    +0.000 N 
ATOM      2  C   UNL     1       1.671   6.479  20.756  0.00  0.00    +0.000 C 
ATOM      3  C   UNL     1       2.316   5.637  19.728  0.00  0.00    +0.000 A 
ATOM      4  C   UNL     1       2.766   6.441  18.683  0.00  0.00    +0.000 A 
ATOM      5  C   UNL     1       3.506   5.889  17.643  0.00  0.00    +0.000 A 
ATOM      6  C   UNL     1       3.754   4.494  17.654  0.00  0.00    +0.000 A 
ATOM      7  C   UNL     1       3.216   3.698  18.694  0.00  0.00    +0.000 A 
ATOM      8  C   UNL     1       2.491   4.259  19.751  0.00  0.00    +0.000 A 
ATOM      9  C   UNL     1       2.305   7.839  18.947  0.00  0.00    +0.000 C 
ATOM     10  O   UNL     1       2.496   8.764  18.174  0.00  0.00    +0.000 OA
ENDROOT
BRANCH   1  15
ATOM     11  C   UNL     1      -0.477  10.904  20.523  0.00  0.00    +0.000 A 
ATOM     12  C   UNL     1      -0.506  11.017  21.919  0.00  0.00    +0.000 A 
ATOM     13  C   UNL     1       0.101  10.057  22.746  0.00  0.00    +0.000 A 
ATOM     14  C   UNL     1       0.786   8.957  22.207  0.00  0.00    +0.000 A 
ATOM     15  C   UNL     1       0.857   8.805  20.829  0.00  0.00    +0.000 A 
ATOM     16  C   UNL     1       0.181   9.758  20.033  0.00  0.00    +0.000 A 
BRANCH  11  17
ATOM     17  C   UNL     1      -1.073  12.005  19.481  0.00  0.00    +0.000 C 
ATOM     18  C   UNL     1      -2.612  12.225  19.592  0.00  0.00    +0.000 C 
ATOM     19  O   UNL     1      -2.835  11.787  18.240  0.00  0.00    +0.000 OA
ATOM     20  C   UNL     1      -1.427  11.537  18.048  0.00  0.00    +0.000 C 
BRANCH  17  21
ATOM     21  C   UNL     1      -0.310  13.339  19.528  0.00  0.00    +0.000 C 
ATOM     22  F   UNL     1      -0.320  13.786  20.822  0.00  0.00    +0.000 F 
ATOM     23  F   UNL     1      -1.012  14.286  18.834  0.00  0.00    +0.000 F 
BRANCH  21  29
ATOM     24  C   UNL     1       1.804  15.695  19.364  0.00  0.00    +0.000 C 
ATOM     25  N   UNL     1       1.975  14.328  18.949  0.00  0.00    +0.000 N 
ATOM     26  C   UNL     1       3.114  13.828  18.387  0.00  0.00    +0.000 A 
ATOM     27  N   UNL     1       2.939  12.566  18.084  0.00  0.00    +0.000 NA
ATOM     28  N   UNL     1       1.665  12.224  18.453  0.00  0.00    +0.000 NA
ATOM     29  C   UNL     1       1.086  13.280  18.999  0.00  0.00    +0.000 A 
ENDBRANCH  21  29
ENDBRANCH  17  21
ENDBRANCH  11  17
ENDBRANCH   1  15
BRANCH   8  30
ATOM     30  C   UNL     1       1.933   3.395  20.852  0.00  0.00    +0.000 C 
ATOM     31  F   UNL     1       2.382   3.736  22.095  0.00  0.00    +0.000 F 
ATOM     32  F   UNL     1       0.578   3.460  20.924  0.00  0.00    +0.000 F 
ATOM     33  F   UNL     1       2.251   2.083  20.700  0.00  0.00    +0.000 F 
ENDBRANCH   8  30
BRANCH   6  34
ATOM     34  C   UNL     1       4.699   3.878  16.629  0.00  0.00    +0.000 C 
BRANCH  34  35
ATOM     35  N   UNL     1       5.409   4.841  15.768  0.00  0.00    +0.000 NA
ATOM     36  C   UNL     1       6.874   4.751  15.919  0.00  0.00    +0.000 C 
ATOM     37  C   UNL     1       7.022   4.552  14.399  0.00  0.00    +0.000 C 
ATOM     38  F   UNL     1       7.457   5.620  13.687  0.00  0.00    +0.000 F 
ATOM     39  C   UNL     1       5.504   4.304  14.393  0.00  0.00    +0.000 C 
ENDBRANCH  34  35
ENDBRANCH   6  34
TORSDOF 7
ENDMDL
MODEL 7
REMARK VINA RESULT:      -9.8      1.850      2.626
REMARK  Name = 
REMARK  8 active torsions:
REMARK  status: ('A' for Active; 'I' for Inactive)
REMARK    1  A    between atoms: C_1  and  N_2
REMARK    2  A    between atoms: C_6  and  C_7
REMARK    3  A    between atoms: C_7  and  C_10
REMARK    4  A    between atoms: C_10  and  C_11
REMARK    5  A    between atoms: C_15  and  N_16
REMARK    6  A    between atoms: C_21  and  C_22
REMARK    7  A    between atoms: C_22  and  N_23
REMARK    8  A    between atoms: C_29  and  C_30
REMARK                            x       y       z     vdW  Elec       q    Type
REMARK                         _______ _______ _______ _____ _____    ______ ____
ROOT
ATOM      1  N   UNL     1       1.819   7.618  20.071  0.00  0.00    +0.000 N 
ATOM      2  C   UNL     1       1.780   6.264  20.580  0.00  0.00    +0.000 C 
ATOM      3  C   UNL     1       2.423   5.448  19.531  0.00  0.00    +0.000 A 
ATOM      4  C   UNL     1       2.942   6.282  18.544  0.00  0.00    +0.000 A 
ATOM      5  C   UNL     1       3.692   5.751  17.500  0.00  0.00    +0.000 A 
ATOM      6  C   UNL     1       3.878   4.347  17.445  0.00  0.00    +0.000 A 
ATOM      7  C   UNL     1       3.271   3.525  18.425  0.00  0.00    +0.000 A 
ATOM      8  C   UNL     1       2.536   4.063  19.486  0.00  0.00    +0.000 A 
ATOM      9  C   UNL     1       2.534   7.684  18.866  0.00  0.00    +0.000 C 
ATOM     10  O   UNL     1       2.791   8.639  18.149  0.00  0.00    +0.000 OA
ENDROOT
BRANCH   1  15
ATOM     11  C   UNL     1      -0.138  10.803  20.519  0.00  0.00    +0.000 A 
ATOM     12  C   UNL     1      -0.229  10.831  21.916  0.00  0.00    +0.000 A 
ATOM     13  C   UNL     1       0.285   9.790  22.707  0.00  0.00    +0.000 A 
ATOM     14  C   UNL     1       0.937   8.689  22.130  0.00  0.00    +0.000 A 
ATOM     15  C   UNL     1       1.067   8.618  20.750  0.00  0.00    +0.000 A 
ATOM     16  C   UNL     1       0.481   9.654  19.987  0.00  0.00    +0.000 A 
BRANCH  11  17
ATOM     17  C   UNL     1      -0.623  11.998  19.523  0.00  0.00    +0.000 C 
ATOM     18  C   UNL     1      -2.003  12.620  19.895  0.00  0.00    +0.000 C 
ATOM     19  O   UNL     1      -2.590  12.225  18.642  0.00  0.00    +0.000 OA
ATOM     20  C   UNL     1      -1.357  11.606  18.217  0.00  0.00    +0.000 C 
BRANCH  17  21
ATOM     21  C   UNL     1       0.449  13.082  19.332  0.00  0.00    +0.000 C 
ATOM     22  F   UNL     1       0.926  12.985  18.052  0.00  0.00    +0.000 F 
ATOM     23  F   UNL     1       1.528  12.795  20.121  0.00  0.00    +0.000 F 
BRANCH  21  29
ATOM     24  C   UNL     1       0.249  14.515  22.153  0.00  0.00    +0.000 C 
ATOM     25  N   UNL     1      -0.079  15.061  20.863  0.00  0.00    +0.000 N 
ATOM     26  C   UNL     1      -0.560  16.321  20.657  0.00  0.00    +0.000 A 
ATOM     27  N   UNL     1      -0.799  16.500  19.381  0.00  0.00    +0.000 NA
ATOM     28  N   UNL     1      -0.470  15.339  18.733  0.00  0.00    +0.000 NA
ATOM     29  C   UNL     1      -0.011  14.474  19.621  0.00  0.00    +0.000 A 
ENDBRANCH  21  29
ENDBRANCH  17  21
ENDBRANCH  11  17
ENDBRANCH   1  15
BRANCH   8  30
ATOM     30  C   UNL     1       1.904   3.171  20.522  0.00  0.00    +0.000 C 
ATOM     31  F   UNL     1       0.612   3.499  20.813  0.00  0.00    +0.000 F 
ATOM     32  F   UNL     1       1.870   1.869  20.132  0.00  0.00    +0.000 F 
ATOM     33  F   UNL     1       2.561   3.201  21.711  0.00  0.00    +0.000 F 
ENDBRANCH   8  30
BRANCH   6  34
ATOM     34  C   UNL     1       4.829   3.742  16.420  0.00  0.00    +0.000 C 
BRANCH  34  35
ATOM     35  N   UNL     1       5.493   4.710  15.527  0.00  0.00    +0.000 NA
ATOM     36  C   UNL     1       6.961   4.698  15.682  0.00  0.00    +0.000 C 
ATOM     37  C   UNL     1       7.121   4.456  14.169  0.00  0.00    +0.000 C 
ATOM     38  F   UNL     1       7.505   5.520  13.423  0.00  0.00    +0.000 F 
ATOM     39  C   UNL     1       5.617   4.134  14.171  0.00  0.00    +0.000 C 
ENDBRANCH  34  35
ENDBRANCH   6  34
TORSDOF 7
ENDMDL
MODEL 8
REMARK VINA RESULT:      -9.8      1.718      2.176
REMARK  Name = 
REMARK  8 active torsions:
REMARK  status: ('A' for Active; 'I' for Inactive)
REMARK    1  A    between atoms: C_1  and  N_2
REMARK    2  A    between atoms: C_6  and  C_7
REMARK    3  A    between atoms: C_7  and  C_10
REMARK    4  A    between atoms: C_10  and  C_11
REMARK    5  A    between atoms: C_15  and  N_16
REMARK    6  A    between atoms: C_21  and  C_22
REMARK    7  A    between atoms: C_22  and  N_23
REMARK    8  A    between atoms: C_29  and  C_30
REMARK                            x       y       z     vdW  Elec       q    Type
REMARK                         _______ _______ _______ _____ _____    ______ ____
ROOT
ATOM      1  N   UNL     1       1.717   7.887  20.011  0.00  0.00    +0.000 N 
ATOM      2  C   UNL     1       1.720   6.572  20.615  0.00  0.00    +0.000 C 
ATOM      3  C   UNL     1       2.367   5.699  19.616  0.00  0.00    +0.000 A 
ATOM      4  C   UNL     1       2.850   6.474  18.563  0.00  0.00    +0.000 A 
ATOM      5  C   UNL     1       3.598   5.888  17.548  0.00  0.00    +0.000 A 
ATOM      6  C   UNL     1       3.818   4.488  17.588  0.00  0.00    +0.000 A 
ATOM      7  C   UNL     1       3.247   3.724  18.635  0.00  0.00    +0.000 A 
ATOM      8  C   UNL     1       2.515   4.318  19.668  0.00  0.00    +0.000 A 
ATOM      9  C   UNL     1       2.412   7.885  18.793  0.00  0.00    +0.000 C 
ATOM     10  O   UNL     1       2.634   8.791  18.006  0.00  0.00    +0.000 OA
ENDROOT
BRANCH   1  15
ATOM     11  C   UNL     1       0.373  11.352  20.610  0.00  0.00    +0.000 A 
ATOM     12  C   UNL     1      -0.278  11.147  21.833  0.00  0.00    +0.000 A 
ATOM     13  C   UNL     1      -0.337   9.876  22.429  0.00  0.00    +0.000 A 
ATOM     14  C   UNL     1       0.279   8.763  21.836  0.00  0.00    +0.000 A 
ATOM     15  C   UNL     1       0.951   8.914  20.631  0.00  0.00    +0.000 A 
ATOM     16  C   UNL     1       0.934  10.196  20.033  0.00  0.00    +0.000 A 
BRANCH  11  17
ATOM     17  C   UNL     1       0.572  12.798  19.885  0.00  0.00    +0.000 C 
ATOM     18  C   UNL     1       1.684  12.819  18.792  0.00  0.00    +0.000 C 
ATOM     19  O   UNL     1       2.453  13.804  19.505  0.00  0.00    +0.000 OA
ATOM     20  C   UNL     1       1.485  13.841  20.574  0.00  0.00    +0.000 C 
BRANCH  17  21
ATOM     21  C   UNL     1      -0.747  13.381  19.354  0.00  0.00    +0.000 C 
ATOM     22  F   UNL     1      -1.664  12.366  19.293  0.00  0.00    +0.000 F 
ATOM     23  F   UNL     1      -0.581  13.769  18.054  0.00  0.00    +0.000 F 
BRANCH  21  29
ATOM     24  C   UNL     1      -0.390  16.475  18.763  0.00  0.00    +0.000 C 
ATOM     25  N   UNL     1      -1.109  15.863  19.849  0.00  0.00    +0.000 N 
ATOM     26  C   UNL     1      -1.756  16.553  20.833  0.00  0.00    +0.000 A 
ATOM     27  N   UNL     1      -2.276  15.713  21.693  0.00  0.00    +0.000 NA
ATOM     28  N   UNL     1      -1.969  14.446  21.270  0.00  0.00    +0.000 NA
ATOM     29  C   UNL     1      -1.285  14.531  20.142  0.00  0.00    +0.000 A 
ENDBRANCH  21  29
ENDBRANCH  17  21
ENDBRANCH  11  17
ENDBRANCH   1  15
BRANCH   8  30
ATOM     30  C   UNL     1       1.922   3.487  20.774  0.00  0.00    +0.000 C 
ATOM     31  F   UNL     1       2.380   3.820  22.016  0.00  0.00    +0.000 F 
ATOM     32  F   UNL     1       0.570   3.604  20.842  0.00  0.00    +0.000 F 
ATOM     33  F   UNL     1       2.189   2.162  20.635  0.00  0.00    +0.000 F 
ENDBRANCH   8  30
BRANCH   6  34
ATOM     34  C   UNL     1       4.768   3.835  16.593  0.00  0.00    +0.000 C 
BRANCH  34  35
ATOM     35  N   UNL     1       5.457   4.763  15.677  0.00  0.00    +0.000 NA
ATOM     36  C   UNL     1       6.926   4.664  15.781  0.00  0.00    +0.000 C 
ATOM     37  C   UNL     1       7.020   4.415  14.264  0.00  0.00    +0.000 C 
ATOM     38  F   UNL     1       7.440   5.455  13.504  0.00  0.00    +0.000 F 
ATOM     39  C   UNL     1       5.501   4.182  14.317  0.00  0.00    +0.000 C 
ENDBRANCH  34  35
ENDBRANCH   6  34
TORSDOF 7
ENDMDL
MODEL 9
REMARK VINA RESULT:      -9.8      2.175      3.114
REMARK  Name = 
REMARK  8 active torsions:
REMARK  status: ('A' for Active; 'I' for Inactive)
REMARK    1  A    between atoms: C_1  and  N_2
REMARK    2  A    between atoms: C_6  and  C_7
REMARK    3  A    between atoms: C_7  and  C_10
REMARK    4  A    between atoms: C_10  and  C_11
REMARK    5  A    between atoms: C_15  and  N_16
REMARK    6  A    between atoms: C_21  and  C_22
REMARK    7  A    between atoms: C_22  and  N_23
REMARK    8  A    between atoms: C_29  and  C_30
REMARK                            x       y       z     vdW  Elec       q    Type
REMARK                         _______ _______ _______ _____ _____    ______ ____
ROOT
ATOM      1  N   UNL     1       1.450   7.975  20.271  0.00  0.00    +0.000 N 
ATOM      2  C   UNL     1       1.543   6.616  20.760  0.00  0.00    +0.000 C 
ATOM      3  C   UNL     1       2.193   5.865  19.668  0.00  0.00    +0.000 A 
ATOM      4  C   UNL     1       2.594   6.750  18.669  0.00  0.00    +0.000 A 
ATOM      5  C   UNL     1       3.329   6.291  17.581  0.00  0.00    +0.000 A 
ATOM      6  C   UNL     1       3.620   4.907  17.494  0.00  0.00    +0.000 A 
ATOM      7  C   UNL     1       3.131   4.028  18.491  0.00  0.00    +0.000 A 
ATOM      8  C   UNL     1       2.412   4.495  19.596  0.00  0.00    +0.000 A 
ATOM      9  C   UNL     1       2.095   8.111  19.034  0.00  0.00    +0.000 C 
ATOM     10  O   UNL     1       2.239   9.091  18.319  0.00  0.00    +0.000 OA
ENDROOT
BRANCH   1  15
ATOM     11  C   UNL     1      -0.702  11.005  20.873  0.00  0.00    +0.000 A 
ATOM     12  C   UNL     1      -0.740  10.995  22.273  0.00  0.00    +0.000 A 
ATOM     13  C   UNL     1      -0.126   9.974  23.017  0.00  0.00    +0.000 A 
ATOM     14  C   UNL     1       0.577   8.934  22.388  0.00  0.00    +0.000 A 
ATOM     15  C   UNL     1       0.658   8.904  21.003  0.00  0.00    +0.000 A 
ATOM     16  C   UNL     1      -0.026   9.915  20.289  0.00  0.00    +0.000 A 
BRANCH  11  17
ATOM     17  C   UNL     1      -1.305  12.186  19.926  0.00  0.00    +0.000 C 
ATOM     18  C   UNL     1      -2.514  12.949  20.548  0.00  0.00    +0.000 C 
ATOM     19  O   UNL     1      -3.396  12.545  19.485  0.00  0.00    +0.000 OA
ATOM     20  C   UNL     1      -2.342  11.796  18.845  0.00  0.00    +0.000 C 
BRANCH  17  21
ATOM     21  C   UNL     1      -0.223  13.158  19.429  0.00  0.00    +0.000 C 
ATOM     22  F   UNL     1      -0.810  14.032  18.554  0.00  0.00    +0.000 F 
ATOM     23  F   UNL     1       0.685  12.474  18.670  0.00  0.00    +0.000 F 
BRANCH  21  29
ATOM     24  C   UNL     1      -0.830  16.068  20.532  0.00  0.00    +0.000 C 
ATOM     25  N   UNL     1       0.201  15.160  20.962  0.00  0.00    +0.000 N 
ATOM     26  C   UNL     1       1.116  15.436  21.935  0.00  0.00    +0.000 A 
ATOM     27  N   UNL     1       1.942  14.427  22.064  0.00  0.00    +0.000 NA
ATOM     28  N   UNL     1       1.566  13.468  21.161  0.00  0.00    +0.000 NA
ATOM     29  C   UNL     1       0.499  13.896  20.508  0.00  0.00    +0.000 A 
ENDBRANCH  21  29
ENDBRANCH  17  21
ENDBRANCH  11  17
ENDBRANCH   1  15
BRANCH   8  30
ATOM     30  C   UNL     1       1.906   3.543  20.648  0.00  0.00    +0.000 C 
ATOM     31  F   UNL     1       2.381   3.808  21.900  0.00  0.00    +0.000 F 
ATOM     32  F   UNL     1       0.552   3.568  20.760  0.00  0.00    +0.000 F 
ATOM     33  F   UNL     1       2.250   2.254  20.397  0.00  0.00    +0.000 F 
ENDBRANCH   8  30
BRANCH   6  34
ATOM     34  C   UNL     1       4.562   4.391  16.413  0.00  0.00    +0.000 C 
BRANCH  34  35
ATOM     35  N   UNL     1       5.852   3.867  16.898  0.00  0.00    +0.000 NA
ATOM     36  C   UNL     1       7.002   4.512  16.234  0.00  0.00    +0.000 C 
ATOM     37  C   UNL     1       7.587   4.889  17.608  0.00  0.00    +0.000 C 
ATOM     38  F   UNL     1       8.633   4.147  18.047  0.00  0.00    +0.000 F 
ATOM     39  C   UNL     1       6.206   4.520  18.177  0.00  0.00    +0.000 C 
ENDBRANCH  34  35
ENDBRANCH   6  34
TORSDOF 7
ENDMDL
