MODEL 1
REMARK VINA RESULT:      -8.9      0.000      0.000
REMARK  Name = 
REMARK  8 active torsions:
REMARK  status: ('A' for Active; 'I' for Inactive)
REMARK    1  A    between atoms: C_1  and  C_2
REMARK    2  A    between atoms: C_2  and  C_3
REMARK    3  A    between atoms: C_2  and  C_10
REMARK    4  A    between atoms: C_3  and  C_4
REMARK    5  A    between atoms: N_8  and  C_9
REMARK    6  A    between atoms: C_12  and  N_13
REMARK    7  A    between atoms: N_13  and  C_14
REMARK    8  A    between atoms: C_27  and  C_28
REMARK                            x       y       z     vdW  Elec       q    Type
REMARK                         _______ _______ _______ _____ _____    ______ ____
ROOT
ATOM      1  C   UNL     1      -0.109  10.952  19.055  0.00  0.00    +0.000 A 
ATOM      2  C   UNL     1       0.724  12.025  18.714  0.00  0.00    +0.000 A 
ATOM      3  C   UNL     1       2.005  11.807  18.205  0.00  0.00    +0.000 A 
ATOM      4  N   UNL     1       2.502  10.564  18.048  0.00  0.00    +0.000 NA
ATOM      5  C   UNL     1       1.749   9.527  18.490  0.00  0.00    +0.000 A 
ATOM      6  N   UNL     1       2.298   8.240  18.451  0.00  0.00    +0.000 N 
ATOM      7  C   UNL     1       3.207   7.839  17.403  0.00  0.00    +0.000 C 
ATOM      8  C   UNL     1       3.701   6.509  17.887  0.00  0.00    +0.000 A 
ATOM      9  C   UNL     1       3.118   6.218  19.122  0.00  0.00    +0.000 A 
ATOM     10  C   UNL     1       3.410   5.074  19.842  0.00  0.00    +0.000 A 
ATOM     11  C   UNL     1       4.312   4.175  19.275  0.00  0.00    +0.000 A 
ATOM     12  C   UNL     1       4.900   4.444  18.025  0.00  0.00    +0.000 A 
ATOM     13  C   UNL     1       4.607   5.623  17.308  0.00  0.00    +0.000 A 
ATOM     14  C   UNL     1       2.224   7.323  19.490  0.00  0.00    +0.000 C 
ATOM     15  O   UNL     1       1.627   7.385  20.550  0.00  0.00    +0.000 OA
ATOM     16  C   UNL     1       0.445   9.678  18.957  0.00  0.00    +0.000 A 
ENDROOT
BRANCH  13  17
ATOM     17  C   UNL     1       5.282   5.884  15.986  0.00  0.00    +0.000 C 
ATOM     18  F   UNL     1       6.627   6.068  16.084  0.00  0.00    +0.000 F 
ATOM     19  F   UNL     1       5.111   4.857  15.110  0.00  0.00    +0.000 F 
ATOM     20  F   UNL     1       4.798   6.994  15.366  0.00  0.00    +0.000 F 
ENDBRANCH  13  17
BRANCH   1  22
ATOM     21  C   UNL     1      -1.555  11.867  20.902  0.00  0.00    +0.000 C 
ATOM     22  C   UNL     1      -1.544  11.226  19.501  0.00  0.00    +0.000 C 
BRANCH  22  23
ATOM     23  C   UNL     1      -2.360  12.071  18.493  0.00  0.00    +0.000 C 
BRANCH  23  24
ATOM     24  C   UNL     1      -2.788  11.312  17.284  0.00  0.00    +0.000 A 
ATOM     25  N   UNL     1      -2.027  10.524  16.562  0.00  0.00    +0.000 NA
ATOM     26  N   UNL     1      -2.780  10.021  15.531  0.00  0.00    +0.000 NA
ATOM     27  C   UNL     1      -3.995  10.504  15.658  0.00  0.00    +0.000 A 
ATOM     28  N   UNL     1      -4.055  11.317  16.748  0.00  0.00    +0.000 N 
ATOM     29  C   UNL     1      -5.214  12.027  17.202  0.00  0.00    +0.000 C 
ENDBRANCH  23  24
ENDBRANCH  22  23
ENDBRANCH   1  22
BRANCH   3  30
ATOM     30  N   UNL     1       2.700  12.937  17.730  0.00  0.00    +0.000 N 
ATOM     31  H   UNL     1       2.516  13.139  16.752  0.00  0.00    +0.000 HD
BRANCH  30  32
ATOM     32  C   UNL     1       3.167  14.023  18.538  0.00  0.00    +0.000 C 
ATOM     33  C   UNL     1       4.317  14.818  17.900  0.00  0.00    +0.000 C 
ATOM     34  O   UNL     1       3.586  16.061  18.024  0.00  0.00    +0.000 OA
ATOM     35  C   UNL     1       2.399  15.342  18.451  0.00  0.00    +0.000 C 
ENDBRANCH  30  32
ENDBRANCH   3  30
TORSDOF 6
ENDMDL
MODEL 2
REMARK VINA RESULT:      -8.5      0.993      1.491
REMARK  Name = 
REMARK  8 active torsions:
REMARK  status: ('A' for Active; 'I' for Inactive)
REMARK    1  A    between atoms: C_1  and  C_2
REMARK    2  A    between atoms: C_2  and  C_3
REMARK    3  A    between atoms: C_2  and  C_10
REMARK    4  A    between atoms: C_3  and  C_4
REMARK    5  A    between atoms: N_8  and  C_9
REMARK    6  A    between atoms: C_12  and  N_13
REMARK    7  A    between atoms: N_13  and  C_14
REMARK    8  A    between atoms: C_27  and  C_28
REMARK                            x       y       z     vdW  Elec       q    Type
REMARK                         _______ _______ _______ _____ _____    ______ ____
ROOT
ATOM      1  C   UNL     1      -0.018  10.891  19.102  0.00  0.00    +0.000 A 
ATOM      2  C   UNL     1       0.809  11.963  18.744  0.00  0.00    +0.000 A 
ATOM      3  C   UNL     1       2.076  11.744  18.202  0.00  0.00    +0.000 A 
ATOM      4  N   UNL     1       2.566  10.501  18.028  0.00  0.00    +0.000 NA
ATOM      5  C   UNL     1       1.821   9.463  18.485  0.00  0.00    +0.000 A 
ATOM      6  N   UNL     1       2.365   8.175  18.427  0.00  0.00    +0.000 N 
ATOM      7  C   UNL     1       3.247   7.777  17.354  0.00  0.00    +0.000 C 
ATOM      8  C   UNL     1       3.750   6.443  17.820  0.00  0.00    +0.000 A 
ATOM      9  C   UNL     1       3.197   6.148  19.068  0.00  0.00    +0.000 A 
ATOM     10  C   UNL     1       3.504   5.001  19.775  0.00  0.00    +0.000 A 
ATOM     11  C   UNL     1       4.388   4.101  19.183  0.00  0.00    +0.000 A 
ATOM     12  C   UNL     1       4.946   4.375  17.919  0.00  0.00    +0.000 A 
ATOM     13  C   UNL     1       4.638   5.557  17.215  0.00  0.00    +0.000 A 
ATOM     14  C   UNL     1       2.315   7.255  19.463  0.00  0.00    +0.000 C 
ATOM     15  O   UNL     1       1.745   7.313  20.538  0.00  0.00    +0.000 OA
ATOM     16  C   UNL     1       0.530   9.616  18.985  0.00  0.00    +0.000 A 
ENDROOT
BRANCH  13  17
ATOM     17  C   UNL     1       5.280   5.822  15.877  0.00  0.00    +0.000 C 
ATOM     18  F   UNL     1       4.816   6.941  15.257  0.00  0.00    +0.000 F 
ATOM     19  F   UNL     1       6.628   5.983  15.976  0.00  0.00    +0.000 F 
ATOM     20  F   UNL     1       5.086   4.802  14.998  0.00  0.00    +0.000 F 
ENDBRANCH  13  17
BRANCH   1  22
ATOM     21  C   UNL     1      -1.416  11.780  20.999  0.00  0.00    +0.000 C 
ATOM     22  C   UNL     1      -1.441  11.167  19.586  0.00  0.00    +0.000 C 
BRANCH  22  23
ATOM     23  C   UNL     1      -2.272  12.038  18.613  0.00  0.00    +0.000 C 
BRANCH  23  24
ATOM     24  C   UNL     1      -3.721  11.693  18.590  0.00  0.00    +0.000 A 
ATOM     25  N   UNL     1      -4.280  10.769  17.844  0.00  0.00    +0.000 NA
ATOM     26  N   UNL     1      -5.628  10.763  18.100  0.00  0.00    +0.000 NA
ATOM     27  C   UNL     1      -5.861  11.678  19.013  0.00  0.00    +0.000 A 
ATOM     28  N   UNL     1      -4.694  12.289  19.360  0.00  0.00    +0.000 N 
ATOM     29  C   UNL     1      -4.552  13.342  20.321  0.00  0.00    +0.000 C 
ENDBRANCH  23  24
ENDBRANCH  22  23
ENDBRANCH   1  22
BRANCH   3  30
ATOM     30  N   UNL     1       2.762  12.875  17.715  0.00  0.00    +0.000 N 
ATOM     31  H   UNL     1       2.585  13.058  16.733  0.00  0.00    +0.000 HD
BRANCH  30  32
ATOM     32  C   UNL     1       3.209  13.979  18.509  0.00  0.00    +0.000 C 
ATOM     33  C   UNL     1       4.480  14.655  17.968  0.00  0.00    +0.000 C 
ATOM     34  O   UNL     1       3.830  15.948  17.931  0.00  0.00    +0.000 OA
ATOM     35  C   UNL     1       2.553  15.337  18.254  0.00  0.00    +0.000 C 
ENDBRANCH  30  32
ENDBRANCH   3  30
TORSDOF 6
ENDMDL
MODEL 3
REMARK VINA RESULT:      -8.5      0.683      1.183
REMARK  Name = 
REMARK  8 active torsions:
REMARK  status: ('A' for Active; 'I' for Inactive)
REMARK    1  A    between atoms: C_1  and  C_2
REMARK    2  A    between atoms: C_2  and  C_3
REMARK    3  A    between atoms: C_2  and  C_10
REMARK    4  A    between atoms: C_3  and  C_4
REMARK    5  A    between atoms: N_8  and  C_9
REMARK    6  A    between atoms: C_12  and  N_13
REMARK    7  A    between atoms: N_13  and  C_14
REMARK    8  A    between atoms: C_27  and  C_28
REMARK                            x       y       z     vdW  Elec       q    Type
REMARK                         _______ _______ _______ _____ _____    ______ ____
ROOT
ATOM      1  C   UNL     1       0.054  10.895  19.161  0.00  0.00    +0.000 A 
ATOM      2  C   UNL     1       0.879  11.962  18.785  0.00  0.00    +0.000 A 
ATOM      3  C   UNL     1       2.131  11.736  18.213  0.00  0.00    +0.000 A 
ATOM      4  N   UNL     1       2.609  10.490  18.026  0.00  0.00    +0.000 NA
ATOM      5  C   UNL     1       1.869   9.457  18.499  0.00  0.00    +0.000 A 
ATOM      6  N   UNL     1       2.403   8.165  18.427  0.00  0.00    +0.000 N 
ATOM      7  C   UNL     1       3.257   7.762  17.333  0.00  0.00    +0.000 C 
ATOM      8  C   UNL     1       3.761   6.425  17.785  0.00  0.00    +0.000 A 
ATOM      9  C   UNL     1       3.237   6.132  19.046  0.00  0.00    +0.000 A 
ATOM     10  C   UNL     1       3.553   4.982  19.745  0.00  0.00    +0.000 A 
ATOM     11  C   UNL     1       4.418   4.077  19.131  0.00  0.00    +0.000 A 
ATOM     12  C   UNL     1       4.946   4.349  17.854  0.00  0.00    +0.000 A 
ATOM     13  C   UNL     1       4.629   5.534  17.159  0.00  0.00    +0.000 A 
ATOM     14  C   UNL     1       2.372   7.244  19.463  0.00  0.00    +0.000 C 
ATOM     15  O   UNL     1       1.827   7.304  20.552  0.00  0.00    +0.000 OA
ATOM     16  C   UNL     1       0.591   9.617  19.030  0.00  0.00    +0.000 A 
ENDROOT
BRANCH  13  17
ATOM     17  C   UNL     1       5.241   5.796  15.807  0.00  0.00    +0.000 C 
ATOM     18  F   UNL     1       6.599   5.895  15.829  0.00  0.00    +0.000 F 
ATOM     19  F   UNL     1       4.955   4.811  14.913  0.00  0.00    +0.000 F 
ATOM     20  F   UNL     1       4.793   6.953  15.249  0.00  0.00    +0.000 F 
ENDBRANCH  13  17
BRANCH   1  22
ATOM     21  C   UNL     1      -1.319  11.489  21.188  0.00  0.00    +0.000 C 
ATOM     22  C   UNL     1      -1.356  11.179  19.679  0.00  0.00    +0.000 C 
BRANCH  22  23
ATOM     23  C   UNL     1      -2.094  12.293  18.897  0.00  0.00    +0.000 C 
BRANCH  23  24
ATOM     24  C   UNL     1      -3.425  11.875  18.375  0.00  0.00    +0.000 A 
ATOM     25  N   UNL     1      -4.572  12.008  18.999  0.00  0.00    +0.000 NA
ATOM     26  N   UNL     1      -5.562  11.495  18.199  0.00  0.00    +0.000 NA
ATOM     27  C   UNL     1      -4.996  11.072  17.093  0.00  0.00    +0.000 A 
ATOM     28  N   UNL     1      -3.653  11.293  17.149  0.00  0.00    +0.000 N 
ATOM     29  C   UNL     1      -2.704  10.959  16.129  0.00  0.00    +0.000 C 
ENDBRANCH  23  24
ENDBRANCH  22  23
ENDBRANCH   1  22
BRANCH   3  30
ATOM     30  N   UNL     1       2.813  12.863  17.711  0.00  0.00    +0.000 N 
ATOM     31  H   UNL     1       2.625  13.039  16.729  0.00  0.00    +0.000 HD
BRANCH  30  32
ATOM     32  C   UNL     1       3.269  13.972  18.493  0.00  0.00    +0.000 C 
ATOM     33  C   UNL     1       4.551  14.624  17.950  0.00  0.00    +0.000 C 
ATOM     34  O   UNL     1       3.917  15.925  17.892  0.00  0.00    +0.000 OA
ATOM     35  C   UNL     1       2.631  15.334  18.215  0.00  0.00    +0.000 C 
ENDBRANCH  30  32
ENDBRANCH   3  30
TORSDOF 6
ENDMDL
MODEL 4
REMARK VINA RESULT:      -8.4      2.024      2.968
REMARK  Name = 
REMARK  8 active torsions:
REMARK  status: ('A' for Active; 'I' for Inactive)
REMARK    1  A    between atoms: C_1  and  C_2
REMARK    2  A    between atoms: C_2  and  C_3
REMARK    3  A    between atoms: C_2  and  C_10
REMARK    4  A    between atoms: C_3  and  C_4
REMARK    5  A    between atoms: N_8  and  C_9
REMARK    6  A    between atoms: C_12  and  N_13
REMARK    7  A    between atoms: N_13  and  C_14
REMARK    8  A    between atoms: C_27  and  C_28
REMARK                            x       y       z     vdW  Elec       q    Type
REMARK                         _______ _______ _______ _____ _____    ______ ____
ROOT
ATOM      1  C   UNL     1      -0.117  12.171  18.714  0.00  0.00    +0.000 A 
ATOM      2  C   UNL     1       0.908  13.092  18.467  0.00  0.00    +0.000 A 
ATOM      3  C   UNL     1       2.199  12.666  18.155  0.00  0.00    +0.000 A 
ATOM      4  N   UNL     1       2.520  11.358  18.108  0.00  0.00    +0.000 NA
ATOM      5  C   UNL     1       1.565  10.464  18.466  0.00  0.00    +0.000 A 
ATOM      6  N   UNL     1       1.913   9.111  18.544  0.00  0.00    +0.000 N 
ATOM      7  C   UNL     1       2.889   8.531  17.650  0.00  0.00    +0.000 C 
ATOM      8  C   UNL     1       3.104   7.168  18.239  0.00  0.00    +0.000 A 
ATOM      9  C   UNL     1       2.318   7.027  19.385  0.00  0.00    +0.000 A 
ATOM     10  C   UNL     1       2.331   5.891  20.171  0.00  0.00    +0.000 A 
ATOM     11  C   UNL     1       3.157   4.842  19.768  0.00  0.00    +0.000 A 
ATOM     12  C   UNL     1       3.947   4.961  18.608  0.00  0.00    +0.000 A 
ATOM     13  C   UNL     1       3.937   6.133  17.824  0.00  0.00    +0.000 A 
ATOM     14  C   UNL     1       1.558   8.268  19.587  0.00  0.00    +0.000 C 
ATOM     15  O   UNL     1       0.836   8.468  20.547  0.00  0.00    +0.000 OA
ATOM     16  C   UNL     1       0.247  10.826  18.734  0.00  0.00    +0.000 A 
ENDROOT
BRANCH  13  17
ATOM     17  C   UNL     1       4.821   6.226  16.607  0.00  0.00    +0.000 C 
ATOM     18  F   UNL     1       4.404   7.146  15.694  0.00  0.00    +0.000 F 
ATOM     19  F   UNL     1       6.099   6.569  16.923  0.00  0.00    +0.000 F 
ATOM     20  F   UNL     1       4.904   5.046  15.933  0.00  0.00    +0.000 F 
ENDBRANCH  13  17
BRANCH   1  22
ATOM     21  C   UNL     1      -2.536  11.495  18.892  0.00  0.00    +0.000 C 
ATOM     22  C   UNL     1      -1.543  12.672  18.939  0.00  0.00    +0.000 C 
BRANCH  22  23
ATOM     23  C   UNL     1      -1.715  13.497  20.237  0.00  0.00    +0.000 C 
BRANCH  23  24
ATOM     24  C   UNL     1      -1.584  12.689  21.482  0.00  0.00    +0.000 A 
ATOM     25  N   UNL     1      -0.470  12.180  21.954  0.00  0.00    +0.000 NA
ATOM     26  N   UNL     1      -0.762  11.495  23.107  0.00  0.00    +0.000 NA
ATOM     27  C   UNL     1      -2.052  11.617  23.322  0.00  0.00    +0.000 A 
ATOM     28  N   UNL     1      -2.616  12.363  22.333  0.00  0.00    +0.000 N 
ATOM     29  C   UNL     1      -4.003  12.704  22.225  0.00  0.00    +0.000 C 
ENDBRANCH  23  24
ENDBRANCH  22  23
ENDBRANCH   1  22
BRANCH   3  30
ATOM     30  N   UNL     1       3.116  13.658  17.754  0.00  0.00    +0.000 N 
ATOM     31  H   UNL     1       3.072  13.866  16.762  0.00  0.00    +0.000 HD
BRANCH  30  32
ATOM     32  C   UNL     1       3.667  14.670  18.604  0.00  0.00    +0.000 C 
ATOM     33  C   UNL     1       4.959  15.299  18.058  0.00  0.00    +0.000 C 
ATOM     34  O   UNL     1       4.398  16.631  18.140  0.00  0.00    +0.000 OA
ATOM     35  C   UNL     1       3.095  16.082  18.473  0.00  0.00    +0.000 C 
ENDBRANCH  30  32
ENDBRANCH   3  30
TORSDOF 6
ENDMDL
MODEL 5
REMARK VINA RESULT:      -8.1      2.066      3.022
REMARK  Name = 
REMARK  8 active torsions:
REMARK  status: ('A' for Active; 'I' for Inactive)
REMARK    1  A    between atoms: C_1  and  C_2
REMARK    2  A    between atoms: C_2  and  C_3
REMARK    3  A    between atoms: C_2  and  C_10
REMARK    4  A    between atoms: C_3  and  C_4
REMARK    5  A    between atoms: N_8  and  C_9
REMARK    6  A    between atoms: C_12  and  N_13
REMARK    7  A    between atoms: N_13  and  C_14
REMARK    8  A    between atoms: C_27  and  C_28
REMARK                            x       y       z     vdW  Elec       q    Type
REMARK                         _______ _______ _______ _____ _____    ______ ____
ROOT
ATOM      1  C   UNL     1      -0.133  11.681  18.862  0.00  0.00    +0.000 A 
ATOM      2  C   UNL     1       0.815  12.673  18.587  0.00  0.00    +0.000 A 
ATOM      3  C   UNL     1       2.112  12.341  18.194  0.00  0.00    +0.000 A 
ATOM      4  N   UNL     1       2.512  11.058  18.091  0.00  0.00    +0.000 NA
ATOM      5  C   UNL     1       1.637  10.095  18.473  0.00  0.00    +0.000 A 
ATOM      6  N   UNL     1       2.075   8.765  18.493  0.00  0.00    +0.000 N 
ATOM      7  C   UNL     1       3.035   8.274  17.531  0.00  0.00    +0.000 C 
ATOM      8  C   UNL     1       3.369   6.914  18.066  0.00  0.00    +0.000 A 
ATOM      9  C   UNL     1       2.658   6.692  19.248  0.00  0.00    +0.000 A 
ATOM     10  C   UNL     1       2.788   5.539  19.999  0.00  0.00    +0.000 A 
ATOM     11  C   UNL     1       3.655   4.557  19.521  0.00  0.00    +0.000 A 
ATOM     12  C   UNL     1       4.370   4.757  18.324  0.00  0.00    +0.000 A 
ATOM     13  C   UNL     1       4.242   5.946  17.576  0.00  0.00    +0.000 A 
ATOM     14  C   UNL     1       1.833   7.874  19.527  0.00  0.00    +0.000 C 
ATOM     15  O   UNL     1       1.154   8.002  20.531  0.00  0.00    +0.000 OA
ATOM     16  C   UNL     1       0.316  10.363  18.823  0.00  0.00    +0.000 A 
ENDROOT
BRANCH  13  17
ATOM     17  C   UNL     1       5.049   6.128  16.317  0.00  0.00    +0.000 C 
ATOM     18  F   UNL     1       6.345   6.479  16.541  0.00  0.00    +0.000 F 
ATOM     19  F   UNL     1       5.095   4.994  15.566  0.00  0.00    +0.000 F 
ATOM     20  F   UNL     1       4.537   7.095  15.508  0.00  0.00    +0.000 F 
ENDBRANCH  13  17
BRANCH   1  22
ATOM     21  C   UNL     1      -2.540  11.457  18.153  0.00  0.00    +0.000 C 
ATOM     22  C   UNL     1      -1.574  12.081  19.179  0.00  0.00    +0.000 C 
BRANCH  22  23
ATOM     23  C   UNL     1      -2.008  11.753  20.628  0.00  0.00    +0.000 C 
BRANCH  23  24
ATOM     24  C   UNL     1      -1.478  12.708  21.641  0.00  0.00    +0.000 A 
ATOM     25  N   UNL     1      -0.420  12.521  22.396  0.00  0.00    +0.000 NA
ATOM     26  N   UNL     1      -0.266  13.618  23.205  0.00  0.00    +0.000 NA
ATOM     27  C   UNL     1      -1.230  14.461  22.914  0.00  0.00    +0.000 A 
ATOM     28  N   UNL     1      -2.017  13.941  21.933  0.00  0.00    +0.000 N 
ATOM     29  C   UNL     1      -3.169  14.570  21.360  0.00  0.00    +0.000 C 
ENDBRANCH  23  24
ENDBRANCH  22  23
ENDBRANCH   1  22
BRANCH   3  30
ATOM     30  N   UNL     1       2.939  13.401  17.773  0.00  0.00    +0.000 N 
ATOM     31  H   UNL     1       3.239  13.315  16.807  0.00  0.00    +0.000 HD
BRANCH  30  32
ATOM     32  C   UNL     1       2.958  14.714  18.343  0.00  0.00    +0.000 C 
ATOM     33  C   UNL     1       4.289  15.073  19.024  0.00  0.00    +0.000 C 
ATOM     34  O   UNL     1       4.431  16.266  18.216  0.00  0.00    +0.000 OA
ATOM     35  C   UNL     1       3.288  15.879  17.409  0.00  0.00    +0.000 C 
ENDBRANCH  30  32
ENDBRANCH   3  30
TORSDOF 6
ENDMDL
MODEL 6
REMARK VINA RESULT:      -8.0      2.098      3.234
REMARK  Name = 
REMARK  8 active torsions:
REMARK  status: ('A' for Active; 'I' for Inactive)
REMARK    1  A    between atoms: C_1  and  C_2
REMARK    2  A    between atoms: C_2  and  C_3
REMARK    3  A    between atoms: C_2  and  C_10
REMARK    4  A    between atoms: C_3  and  C_4
REMARK    5  A    between atoms: N_8  and  C_9
REMARK    6  A    between atoms: C_12  and  N_13
REMARK    7  A    between atoms: N_13  and  C_14
REMARK    8  A    between atoms: C_27  and  C_28
REMARK                            x       y       z     vdW  Elec       q    Type
REMARK                         _______ _______ _______ _____ _____    ______ ____
ROOT
ATOM      1  C   UNL     1      -0.339  11.932  18.671  0.00  0.00    +0.000 A 
ATOM      2  C   UNL     1       0.645  12.892  18.409  0.00  0.00    +0.000 A 
ATOM      3  C   UNL     1       1.959  12.517  18.125  0.00  0.00    +0.000 A 
ATOM      4  N   UNL     1       2.339  11.224  18.118  0.00  0.00    +0.000 NA
ATOM      5  C   UNL     1       1.421  10.298  18.490  0.00  0.00    +0.000 A 
ATOM      6  N   UNL     1       1.829   8.964  18.611  0.00  0.00    +0.000 N 
ATOM      7  C   UNL     1       2.841   8.405  17.745  0.00  0.00    +0.000 C 
ATOM      8  C   UNL     1       3.111   7.071  18.375  0.00  0.00    +0.000 A 
ATOM      9  C   UNL     1       2.317   6.925  19.515  0.00  0.00    +0.000 A 
ATOM     10  C   UNL     1       2.372   5.814  20.334  0.00  0.00    +0.000 A 
ATOM     11  C   UNL     1       3.249   4.793  19.970  0.00  0.00    +0.000 A 
ATOM     12  C   UNL     1       4.048   4.915  18.816  0.00  0.00    +0.000 A 
ATOM     13  C   UNL     1       3.995   6.063  17.999  0.00  0.00    +0.000 A 
ATOM     14  C   UNL     1       1.499   8.136  19.673  0.00  0.00    +0.000 C 
ATOM     15  O   UNL     1       0.756   8.330  20.619  0.00  0.00    +0.000 OA
ATOM     16  C   UNL     1       0.084  10.607  18.733  0.00  0.00    +0.000 A 
ENDROOT
BRANCH  13  17
ATOM     17  C   UNL     1       4.889   6.162  16.789  0.00  0.00    +0.000 C 
ATOM     18  F   UNL     1       4.470   7.074  15.870  0.00  0.00    +0.000 F 
ATOM     19  F   UNL     1       6.160   6.522  17.117  0.00  0.00    +0.000 F 
ATOM     20  F   UNL     1       4.992   4.981  16.122  0.00  0.00    +0.000 F 
ENDBRANCH  13  17
BRANCH   1  22
ATOM     21  C   UNL     1      -2.691  11.738  17.789  0.00  0.00    +0.000 C 
ATOM     22  C   UNL     1      -1.789  12.374  18.866  0.00  0.00    +0.000 C 
BRANCH  22  23
ATOM     23  C   UNL     1      -2.338  12.101  20.287  0.00  0.00    +0.000 C 
BRANCH  23  24
ATOM     24  C   UNL     1      -1.810  13.035  21.321  0.00  0.00    +0.000 A 
ATOM     25  N   UNL     1      -1.797  14.345  21.241  0.00  0.00    +0.000 NA
ATOM     26  N   UNL     1      -1.221  14.843  22.382  0.00  0.00    +0.000 NA
ATOM     27  C   UNL     1      -0.907  13.820  23.144  0.00  0.00    +0.000 A 
ATOM     28  N   UNL     1      -1.261  12.659  22.526  0.00  0.00    +0.000 N 
ATOM     29  C   UNL     1      -1.070  11.339  23.049  0.00  0.00    +0.000 C 
ENDBRANCH  23  24
ENDBRANCH  22  23
ENDBRANCH   1  22
BRANCH   3  30
ATOM     30  N   UNL     1       2.835  13.538  17.706  0.00  0.00    +0.000 N 
ATOM     31  H   UNL     1       2.705  13.803  16.735  0.00  0.00    +0.000 HD
BRANCH  30  32
ATOM     32  C   UNL     1       3.452  14.504  18.564  0.00  0.00    +0.000 C 
ATOM     33  C   UNL     1       4.661  15.211  17.929  0.00  0.00    +0.000 C 
ATOM     34  O   UNL     1       4.080  16.515  18.171  0.00  0.00    +0.000 OA
ATOM     35  C   UNL     1       2.836  15.903  18.602  0.00  0.00    +0.000 C 
ENDBRANCH  30  32
ENDBRANCH   3  30
TORSDOF 6
ENDMDL
MODEL 7
REMARK VINA RESULT:      -8.0      2.153      3.202
REMARK  Name = 
REMARK  8 active torsions:
REMARK  status: ('A' for Active; 'I' for Inactive)
REMARK    1  A    between atoms: C_1  and  C_2
REMARK    2  A    between atoms: C_2  and  C_3
REMARK    3  A    between atoms: C_2  and  C_10
REMARK    4  A    between atoms: C_3  and  C_4
REMARK    5  A    between atoms: N_8  and  C_9
REMARK    6  A    between atoms: C_12  and  N_13
REMARK    7  A    between atoms: N_13  and  C_14
REMARK    8  A    between atoms: C_27  and  C_28
REMARK                            x       y       z     vdW  Elec       q    Type
REMARK                         _______ _______ _______ _____ _____    ______ ____
ROOT
ATOM      1  C   UNL     1      -0.249  11.877  18.863  0.00  0.00    +0.000 A 
ATOM      2  C   UNL     1       0.701  12.866  18.581  0.00  0.00    +0.000 A 
ATOM      3  C   UNL     1       2.000  12.528  18.198  0.00  0.00    +0.000 A 
ATOM      4  N   UNL     1       2.400  11.243  18.113  0.00  0.00    +0.000 NA
ATOM      5  C   UNL     1       1.523  10.285  18.503  0.00  0.00    +0.000 A 
ATOM      6  N   UNL     1       1.960   8.956  18.540  0.00  0.00    +0.000 N 
ATOM      7  C   UNL     1       2.924   8.452  17.590  0.00  0.00    +0.000 C 
ATOM      8  C   UNL     1       3.254   7.098  18.144  0.00  0.00    +0.000 A 
ATOM      9  C   UNL     1       2.537   6.891  19.324  0.00  0.00    +0.000 A 
ATOM     10  C   UNL     1       2.662   5.748  20.090  0.00  0.00    +0.000 A 
ATOM     11  C   UNL     1       3.531   4.760  19.628  0.00  0.00    +0.000 A 
ATOM     12  C   UNL     1       4.252   4.945  18.433  0.00  0.00    +0.000 A 
ATOM     13  C   UNL     1       4.129   6.124  17.670  0.00  0.00    +0.000 A 
ATOM     14  C   UNL     1       1.712   8.078  19.585  0.00  0.00    +0.000 C 
ATOM     15  O   UNL     1       1.027   8.219  20.583  0.00  0.00    +0.000 OA
ATOM     16  C   UNL     1       0.199  10.559  18.842  0.00  0.00    +0.000 A 
ENDROOT
BRANCH  13  17
ATOM     17  C   UNL     1       4.943   6.291  16.412  0.00  0.00    +0.000 C 
ATOM     18  F   UNL     1       4.418   7.188  15.534  0.00  0.00    +0.000 F 
ATOM     19  F   UNL     1       6.208   6.720  16.671  0.00  0.00    +0.000 F 
ATOM     20  F   UNL     1       5.073   5.126  15.721  0.00  0.00    +0.000 F 
ENDBRANCH  13  17
BRANCH   1  22
ATOM     21  C   UNL     1      -2.653  11.636  18.153  0.00  0.00    +0.000 C 
ATOM     22  C   UNL     1      -1.690  12.283  19.167  0.00  0.00    +0.000 C 
BRANCH  22  23
ATOM     23  C   UNL     1      -2.128  11.985  20.622  0.00  0.00    +0.000 C 
BRANCH  23  24
ATOM     24  C   UNL     1      -1.518  12.898  21.628  0.00  0.00    +0.000 A 
ATOM     25  N   UNL     1      -0.442  12.652  22.338  0.00  0.00    +0.000 NA
ATOM     26  N   UNL     1      -0.209  13.728  23.158  0.00  0.00    +0.000 NA
ATOM     27  C   UNL     1      -1.144  14.617  22.917  0.00  0.00    +0.000 A 
ATOM     28  N   UNL     1      -1.991  14.148  21.959  0.00  0.00    +0.000 N 
ATOM     29  C   UNL     1      -3.135  14.836  21.441  0.00  0.00    +0.000 C 
ENDBRANCH  23  24
ENDBRANCH  22  23
ENDBRANCH   1  22
BRANCH   3  30
ATOM     30  N   UNL     1       2.831  13.582  17.769  0.00  0.00    +0.000 N 
ATOM     31  H   UNL     1       2.556  13.967  16.871  0.00  0.00    +0.000 HD
BRANCH  30  32
ATOM     32  C   UNL     1       3.609  14.425  18.626  0.00  0.00    +0.000 C 
ATOM     33  C   UNL     1       3.009  15.826  18.824  0.00  0.00    +0.000 C 
ATOM     34  O   UNL     1       3.014  15.673  20.263  0.00  0.00    +0.000 OA
ATOM     35  C   UNL     1       3.397  14.279  20.133  0.00  0.00    +0.000 C 
ENDBRANCH  30  32
ENDBRANCH   3  30
TORSDOF 6
ENDMDL
MODEL 8
REMARK VINA RESULT:      -7.9      2.081      2.720
REMARK  Name = 
REMARK  8 active torsions:
REMARK  status: ('A' for Active; 'I' for Inactive)
REMARK    1  A    between atoms: C_1  and  C_2
REMARK    2  A    between atoms: C_2  and  C_3
REMARK    3  A    between atoms: C_2  and  C_10
REMARK    4  A    between atoms: C_3  and  C_4
REMARK    5  A    between atoms: N_8  and  C_9
REMARK    6  A    between atoms: C_12  and  N_13
REMARK    7  A    between atoms: N_13  and  C_14
REMARK    8  A    between atoms: C_27  and  C_28
REMARK                            x       y       z     vdW  Elec       q    Type
REMARK                         _______ _______ _______ _____ _____    ______ ____
ROOT
ATOM      1  C   UNL     1      -0.305  11.800  18.754  0.00  0.00    +0.000 A 
ATOM      2  C   UNL     1       0.638  12.803  18.498  0.00  0.00    +0.000 A 
ATOM      3  C   UNL     1       1.952  12.485  18.155  0.00  0.00    +0.000 A 
ATOM      4  N   UNL     1       2.375  11.207  18.083  0.00  0.00    +0.000 NA
ATOM      5  C   UNL     1       1.501  10.236  18.448  0.00  0.00    +0.000 A 
ATOM      6  N   UNL     1       1.958   8.914  18.500  0.00  0.00    +0.000 N 
ATOM      7  C   UNL     1       2.957   8.424  17.579  0.00  0.00    +0.000 C 
ATOM      8  C   UNL     1       3.292   7.076  18.144  0.00  0.00    +0.000 A 
ATOM      9  C   UNL     1       2.544   6.859  19.303  0.00  0.00    +0.000 A 
ATOM     10  C   UNL     1       2.665   5.718  20.074  0.00  0.00    +0.000 A 
ATOM     11  C   UNL     1       3.562   4.743  19.639  0.00  0.00    +0.000 A 
ATOM     12  C   UNL     1       4.315   4.939  18.465  0.00  0.00    +0.000 A 
ATOM     13  C   UNL     1       4.196   6.115  17.697  0.00  0.00    +0.000 A 
ATOM     14  C   UNL     1       1.693   8.033  19.538  0.00  0.00    +0.000 C 
ATOM     15  O   UNL     1       0.977   8.163  20.515  0.00  0.00    +0.000 OA
ATOM     16  C   UNL     1       0.164  10.489  18.748  0.00  0.00    +0.000 A 
ENDROOT
BRANCH  13  17
ATOM     17  C   UNL     1       5.043   6.294  16.464  0.00  0.00    +0.000 C 
ATOM     18  F   UNL     1       4.483   7.105  15.525  0.00  0.00    +0.000 F 
ATOM     19  F   UNL     1       6.258   6.838  16.748  0.00  0.00    +0.000 F 
ATOM     20  F   UNL     1       5.297   5.115  15.834  0.00  0.00    +0.000 F 
ENDBRANCH  13  17
BRANCH   1  22
ATOM     21  C   UNL     1      -2.708  11.145  18.383  0.00  0.00    +0.000 C 
ATOM     22  C   UNL     1      -1.761  12.183  19.015  0.00  0.00    +0.000 C 
BRANCH  22  23
ATOM     23  C   UNL     1      -2.089  12.401  20.512  0.00  0.00    +0.000 C 
BRANCH  23  24
ATOM     24  C   UNL     1      -2.903  13.621  20.774  0.00  0.00    +0.000 A 
ATOM     25  N   UNL     1      -2.443  14.846  20.876  0.00  0.00    +0.000 NA
ATOM     26  N   UNL     1      -3.498  15.685  21.131  0.00  0.00    +0.000 NA
ATOM     27  C   UNL     1      -4.587  14.952  21.164  0.00  0.00    +0.000 A 
ATOM     28  N   UNL     1      -4.270  13.647  20.939  0.00  0.00    +0.000 N 
ATOM     29  C   UNL     1      -5.194  12.552  20.905  0.00  0.00    +0.000 C 
ENDBRANCH  23  24
ENDBRANCH  22  23
ENDBRANCH   1  22
BRANCH   3  30
ATOM     30  N   UNL     1       2.778  13.552  17.748  0.00  0.00    +0.000 N 
ATOM     31  H   UNL     1       2.691  13.772  16.762  0.00  0.00    +0.000 HD
BRANCH  30  32
ATOM     32  C   UNL     1       3.272  14.590  18.603  0.00  0.00    +0.000 C 
ATOM     33  C   UNL     1       4.573  15.236  18.101  0.00  0.00    +0.000 C 
ATOM     34  O   UNL     1       3.981  16.557  18.135  0.00  0.00    +0.000 OA
ATOM     35  C   UNL     1       2.677  15.987  18.422  0.00  0.00    +0.000 C 
ENDBRANCH  30  32
ENDBRANCH   3  30
TORSDOF 6
ENDMDL
MODEL 9
REMARK VINA RESULT:      -7.9      1.915      2.759
REMARK  Name = 
REMARK  8 active torsions:
REMARK  status: ('A' for Active; 'I' for Inactive)
REMARK    1  A    between atoms: C_1  and  C_2
REMARK    2  A    between atoms: C_2  and  C_3
REMARK    3  A    between atoms: C_2  and  C_10
REMARK    4  A    between atoms: C_3  and  C_4
REMARK    5  A    between atoms: N_8  and  C_9
REMARK    6  A    between atoms: C_12  and  N_13
REMARK    7  A    between atoms: N_13  and  C_14
REMARK    8  A    between atoms: C_27  and  C_28
REMARK                            x       y       z     vdW  Elec       q    Type
REMARK                         _______ _______ _______ _____ _____    ______ ____
ROOT
ATOM      1  C   UNL     1      -0.117  11.615  18.816  0.00  0.00    +0.000 A 
ATOM      2  C   UNL     1       0.826  12.612  18.539  0.00  0.00    +0.000 A 
ATOM      3  C   UNL     1       2.124  12.286  18.147  0.00  0.00    +0.000 A 
ATOM      4  N   UNL     1       2.532  11.005  18.046  0.00  0.00    +0.000 NA
ATOM      5  C   UNL     1       1.662  10.038  18.430  0.00  0.00    +0.000 A 
ATOM      6  N   UNL     1       2.107   8.711  18.452  0.00  0.00    +0.000 N 
ATOM      7  C   UNL     1       3.069   8.223  17.491  0.00  0.00    +0.000 C 
ATOM      8  C   UNL     1       3.411   6.866  18.029  0.00  0.00    +0.000 A 
ATOM      9  C   UNL     1       2.701   6.642  19.212  0.00  0.00    +0.000 A 
ATOM     10  C   UNL     1       2.837   5.491  19.965  0.00  0.00    +0.000 A 
ATOM     11  C   UNL     1       3.709   4.513  19.489  0.00  0.00    +0.000 A 
ATOM     12  C   UNL     1       4.423   4.715  18.292  0.00  0.00    +0.000 A 
ATOM     13  C   UNL     1       4.289   5.902  17.541  0.00  0.00    +0.000 A 
ATOM     14  C   UNL     1       1.870   7.821  19.488  0.00  0.00    +0.000 C 
ATOM     15  O   UNL     1       1.190   7.947  20.492  0.00  0.00    +0.000 OA
ATOM     16  C   UNL     1       0.339  10.300  18.779  0.00  0.00    +0.000 A 
ENDROOT
BRANCH  13  17
ATOM     17  C   UNL     1       5.095   6.086  16.282  0.00  0.00    +0.000 C 
ATOM     18  F   UNL     1       4.622   7.067  15.465  0.00  0.00    +0.000 F 
ATOM     19  F   UNL     1       6.390   6.412  16.542  0.00  0.00    +0.000 F 
ATOM     20  F   UNL     1       5.136   4.958  15.522  0.00  0.00    +0.000 F 
ENDBRANCH  13  17
BRANCH   1  22
ATOM     21  C   UNL     1      -2.541  11.028  18.460  0.00  0.00    +0.000 C 
ATOM     22  C   UNL     1      -1.560  12.009  19.131  0.00  0.00    +0.000 C 
BRANCH  22  23
ATOM     23  C   UNL     1      -1.852  12.143  20.645  0.00  0.00    +0.000 C 
BRANCH  23  24
ATOM     24  C   UNL     1      -2.979  13.067  20.957  0.00  0.00    +0.000 A 
ATOM     25  N   UNL     1      -4.221  12.714  21.190  0.00  0.00    +0.000 NA
ATOM     26  N   UNL     1      -4.957  13.848  21.424  0.00  0.00    +0.000 NA
ATOM     27  C   UNL     1      -4.139  14.872  21.344  0.00  0.00    +0.000 A 
ATOM     28  N   UNL     1      -2.881  14.436  21.058  0.00  0.00    +0.000 N 
ATOM     29  C   UNL     1      -1.725  15.264  20.888  0.00  0.00    +0.000 C 
ENDBRANCH  23  24
ENDBRANCH  22  23
ENDBRANCH   1  22
BRANCH   3  30
ATOM     30  N   UNL     1       2.946  13.350  17.724  0.00  0.00    +0.000 N 
ATOM     31  H   UNL     1       3.190  13.300  16.740  0.00  0.00    +0.000 HD
BRANCH  30  32
ATOM     32  C   UNL     1       3.020  14.637  18.346  0.00  0.00    +0.000 C 
ATOM     33  C   UNL     1       4.395  14.949  18.959  0.00  0.00    +0.000 C 
ATOM     34  O   UNL     1       4.508  16.173  18.194  0.00  0.00    +0.000 OA
ATOM     35  C   UNL     1       3.312  15.836  17.443  0.00  0.00    +0.000 C 
ENDBRANCH  30  32
ENDBRANCH   3  30
TORSDOF 6
ENDMDL
