MODEL 1
REMARK VINA RESULT:      -9.5      0.000      0.000
REMARK  Name = 
REMARK  7 active torsions:
REMARK  status: ('A' for Active; 'I' for Inactive)
REMARK    1  A    between atoms: C_1  and  C_2
REMARK    2  A    between atoms: C_2  and  C_3
REMARK    3  A    between atoms: C_2  and  C_12
REMARK    4  A    between atoms: C_3  and  C_4
REMARK    5  A    between atoms: N_8  and  C_9
REMARK    6  A    between atoms: C_16  and  N_17
REMARK    7  A    between atoms: C_24  and  C_25
REMARK                            x       y       z     vdW  Elec       q    Type
REMARK                         _______ _______ _______ _____ _____    ______ ____
ROOT
ATOM      1  C   UNL     1       4.295   5.903  17.463  0.00  0.00    +0.000 A 
ATOM      2  C   UNL     1       3.934   4.703  18.080  0.00  0.00    +0.000 A 
ATOM      3  C   UNL     1       2.882   4.661  19.009  0.00  0.00    +0.000 A 
ATOM      4  C   UNL     1       2.179   5.818  19.370  0.00  0.00    +0.000 A 
ATOM      5  C   UNL     1       2.536   7.038  18.808  0.00  0.00    +0.000 A 
ATOM      6  C   UNL     1       3.585   7.046  17.853  0.00  0.00    +0.000 A 
ENDROOT
BRANCH   5   7
ATOM      7  N   UNL     1       1.915   8.265  19.143  0.00  0.00    +0.000 N 
ATOM      8  C   UNL     1       1.394   8.423  20.474  0.00  0.00    +0.000 C 
ATOM      9  C   UNL     1       0.684   9.716  20.460  0.00  0.00    +0.000 A 
ATOM     10  C   UNL     1       0.925  10.364  19.251  0.00  0.00    +0.000 A 
ATOM     11  C   UNL     1       0.477  11.654  19.057  0.00  0.00    +0.000 A 
ATOM     12  C   UNL     1      -0.237  12.265  20.103  0.00  0.00    +0.000 A 
ATOM     13  C   UNL     1      -0.529  11.568  21.298  0.00  0.00    +0.000 A 
ATOM     14  C   UNL     1      -0.075  10.261  21.491  0.00  0.00    +0.000 A 
ATOM     15  C   UNL     1       1.674   9.419  18.363  0.00  0.00    +0.000 C 
ATOM     16  O   UNL     1       1.960   9.663  17.207  0.00  0.00    +0.000 OA
BRANCH  14  17
ATOM     17  C   UNL     1      -0.407   9.473  22.737  0.00  0.00    +0.000 C 
ATOM     18  F   UNL     1      -1.292  10.093  23.564  0.00  0.00    +0.000 F 
ATOM     19  F   UNL     1      -0.960   8.261  22.461  0.00  0.00    +0.000 F 
ATOM     20  F   UNL     1       0.690   9.229  23.505  0.00  0.00    +0.000 F 
ENDBRANCH  14  17
ENDBRANCH   5   7
BRANCH   1  22
ATOM     21  C   UNL     1       4.942   7.083  15.298  0.00  0.00    +0.000 C 
ATOM     22  C   UNL     1       5.340   6.033  16.344  0.00  0.00    +0.000 C 
BRANCH  22  23
ATOM     23  C   UNL     1       5.686   4.664  15.693  0.00  0.00    +0.000 C 
BRANCH  23  24
ATOM     24  C   UNL     1       6.606   4.771  14.516  0.00  0.00    +0.000 A 
ATOM     25  N   UNL     1       7.739   5.451  14.483  0.00  0.00    +0.000 NA
ATOM     26  N   UNL     1       8.278   5.344  13.219  0.00  0.00    +0.000 NA
ATOM     27  C   UNL     1       7.476   4.586  12.509  0.00  0.00    +0.000 A 
ATOM     28  N   UNL     1       6.439   4.172  13.288  0.00  0.00    +0.000 N 
BRANCH  28  29
ATOM     29  C   UNL     1       5.384   3.266  12.891  0.00  0.00    +0.000 C 
ATOM     30  C   UNL     1       4.531   3.509  11.656  0.00  0.00    +0.000 C 
ATOM     31  C   UNL     1       5.506   2.384  11.659  0.00  0.00    +0.000 C 
ENDBRANCH  28  29
ENDBRANCH  23  24
ENDBRANCH  22  23
ENDBRANCH   1  22
TORSDOF 6
ENDMDL
MODEL 2
REMARK VINA RESULT:      -9.3      0.916      1.375
REMARK  Name = 
REMARK  7 active torsions:
REMARK  status: ('A' for Active; 'I' for Inactive)
REMARK    1  A    between atoms: C_1  and  C_2
REMARK    2  A    between atoms: C_2  and  C_3
REMARK    3  A    between atoms: C_2  and  C_12
REMARK    4  A    between atoms: C_3  and  C_4
REMARK    5  A    between atoms: N_8  and  C_9
REMARK    6  A    between atoms: C_16  and  N_17
REMARK    7  A    between atoms: C_24  and  C_25
REMARK                            x       y       z     vdW  Elec       q    Type
REMARK                         _______ _______ _______ _____ _____    ______ ____
ROOT
ATOM      1  C   UNL     1       4.220   4.454  18.299  0.00  0.00    +0.000 A 
ATOM      2  C   UNL     1       3.659   3.448  19.089  0.00  0.00    +0.000 A 
ATOM      3  C   UNL     1       2.569   3.720  19.931  0.00  0.00    +0.000 A 
ATOM      4  C   UNL     1       2.025   5.007  20.030  0.00  0.00    +0.000 A 
ATOM      5  C   UNL     1       2.582   6.043  19.290  0.00  0.00    +0.000 A 
ATOM      6  C   UNL     1       3.665   5.735  18.428  0.00  0.00    +0.000 A 
ENDROOT
BRANCH   5   7
ATOM      7  N   UNL     1       2.131   7.384  19.358  0.00  0.00    +0.000 N 
ATOM      8  C   UNL     1       1.532   7.840  20.582  0.00  0.00    +0.000 C 
ATOM      9  C   UNL     1       1.032   9.195  20.287  0.00  0.00    +0.000 A 
ATOM     10  C   UNL     1       1.469   9.585  19.024  0.00  0.00    +0.000 A 
ATOM     11  C   UNL     1       1.242  10.872  18.580  0.00  0.00    +0.000 A 
ATOM     12  C   UNL     1       0.546  11.746  19.433  0.00  0.00    +0.000 A 
ATOM     13  C   UNL     1       0.052  11.314  20.685  0.00  0.00    +0.000 A 
ATOM     14  C   UNL     1       0.283  10.009  21.131  0.00  0.00    +0.000 A 
ATOM     15  C   UNL     1       2.135   8.407  18.382  0.00  0.00    +0.000 C 
ATOM     16  O   UNL     1       2.550   8.406  17.240  0.00  0.00    +0.000 OA
BRANCH  14  17
ATOM     17  C   UNL     1      -0.268   9.502  22.444  0.00  0.00    +0.000 C 
ATOM     18  F   UNL     1       0.680   9.287  23.396  0.00  0.00    +0.000 F 
ATOM     19  F   UNL     1      -1.157  10.365  23.008  0.00  0.00    +0.000 F 
ATOM     20  F   UNL     1      -0.918   8.314  22.310  0.00  0.00    +0.000 F 
ENDBRANCH  14  17
ENDBRANCH   5   7
BRANCH   1  22
ATOM     21  C   UNL     1       6.706   4.655  17.775  0.00  0.00    +0.000 C 
ATOM     22  C   UNL     1       5.325   4.233  17.255  0.00  0.00    +0.000 C 
BRANCH  22  23
ATOM     23  C   UNL     1       4.991   4.894  15.888  0.00  0.00    +0.000 C 
BRANCH  23  24
ATOM     24  C   UNL     1       6.162   4.986  14.959  0.00  0.00    +0.000 A 
ATOM     25  N   UNL     1       7.255   5.702  15.166  0.00  0.00    +0.000 NA
ATOM     26  N   UNL     1       8.082   5.564  14.073  0.00  0.00    +0.000 NA
ATOM     27  C   UNL     1       7.491   4.754  13.226  0.00  0.00    +0.000 A 
ATOM     28  N   UNL     1       6.308   4.336  13.755  0.00  0.00    +0.000 N 
BRANCH  28  29
ATOM     29  C   UNL     1       5.399   3.381  13.159  0.00  0.00    +0.000 C 
ATOM     30  C   UNL     1       4.633   3.682  11.881  0.00  0.00    +0.000 C 
ATOM     31  C   UNL     1       5.724   2.670  11.856  0.00  0.00    +0.000 C 
ENDBRANCH  28  29
ENDBRANCH  23  24
ENDBRANCH  22  23
ENDBRANCH   1  22
TORSDOF 6
ENDMDL
MODEL 3
REMARK VINA RESULT:      -8.8      1.930      3.185
REMARK  Name = 
REMARK  7 active torsions:
REMARK  status: ('A' for Active; 'I' for Inactive)
REMARK    1  A    between atoms: C_1  and  C_2
REMARK    2  A    between atoms: C_2  and  C_3
REMARK    3  A    between atoms: C_2  and  C_12
REMARK    4  A    between atoms: C_3  and  C_4
REMARK    5  A    between atoms: N_8  and  C_9
REMARK    6  A    between atoms: C_16  and  N_17
REMARK    7  A    between atoms: C_24  and  C_25
REMARK                            x       y       z     vdW  Elec       q    Type
REMARK                         _______ _______ _______ _____ _____    ______ ____
ROOT
ATOM      1  C   UNL     1       3.214   3.916  19.012  0.00  0.00    +0.000 A 
ATOM      2  C   UNL     1       2.824   3.149  20.112  0.00  0.00    +0.000 A 
ATOM      3  C   UNL     1       2.059   3.712  21.146  0.00  0.00    +0.000 A 
ATOM      4  C   UNL     1       1.686   5.063  21.126  0.00  0.00    +0.000 A 
ATOM      5  C   UNL     1       2.090   5.868  20.068  0.00  0.00    +0.000 A 
ATOM      6  C   UNL     1       2.839   5.266  19.025  0.00  0.00    +0.000 A 
ENDROOT
BRANCH   5   7
ATOM      7  N   UNL     1       1.801   7.251  19.983  0.00  0.00    +0.000 N 
ATOM      8  C   UNL     1       1.286   7.913  21.150  0.00  0.00    +0.000 C 
ATOM      9  C   UNL     1       0.942   9.275  20.703  0.00  0.00    +0.000 A 
ATOM     10  C   UNL     1       1.395   9.463  19.400  0.00  0.00    +0.000 A 
ATOM     11  C   UNL     1       1.311  10.708  18.811  0.00  0.00    +0.000 A 
ATOM     12  C   UNL     1       0.740  11.751  19.562  0.00  0.00    +0.000 A 
ATOM     13  C   UNL     1       0.226  11.527  20.859  0.00  0.00    +0.000 A 
ATOM     14  C   UNL     1       0.311  10.264  21.452  0.00  0.00    +0.000 A 
ATOM     15  C   UNL     1       1.904   8.148  18.895  0.00  0.00    +0.000 C 
ATOM     16  O   UNL     1       2.292   7.967  17.757  0.00  0.00    +0.000 OA
BRANCH  14  17
ATOM     17  C   UNL     1      -0.268   9.980  22.819  0.00  0.00    +0.000 C 
ATOM     18  F   UNL     1       0.659   9.631  23.751  0.00  0.00    +0.000 F 
ATOM     19  F   UNL     1      -0.922  11.051  23.345  0.00  0.00    +0.000 F 
ATOM     20  F   UNL     1      -1.163   8.955  22.800  0.00  0.00    +0.000 F 
ENDBRANCH  14  17
ENDBRANCH   5   7
BRANCH   1  22
ATOM     21  C   UNL     1       3.615   1.885  17.524  0.00  0.00    +0.000 C 
ATOM     22  C   UNL     1       3.937   3.365  17.773  0.00  0.00    +0.000 C 
BRANCH  22  23
ATOM     23  C   UNL     1       5.469   3.629  17.814  0.00  0.00    +0.000 C 
BRANCH  23  24
ATOM     24  C   UNL     1       6.009   4.244  16.560  0.00  0.00    +0.000 A 
ATOM     25  N   UNL     1       6.054   3.661  15.373  0.00  0.00    +0.000 NA
ATOM     26  N   UNL     1       6.655   4.525  14.484  0.00  0.00    +0.000 NA
ATOM     27  C   UNL     1       6.950   5.625  15.136  0.00  0.00    +0.000 A 
ATOM     28  N   UNL     1       6.529   5.511  16.425  0.00  0.00    +0.000 N 
BRANCH  28  29
ATOM     29  C   UNL     1       6.608   6.538  17.440  0.00  0.00    +0.000 C 
ATOM     30  C   UNL     1       7.744   6.594  18.449  0.00  0.00    +0.000 C 
ATOM     31  C   UNL     1       7.657   7.637  17.390  0.00  0.00    +0.000 C 
ENDBRANCH  28  29
ENDBRANCH  23  24
ENDBRANCH  22  23
ENDBRANCH   1  22
TORSDOF 6
ENDMDL
MODEL 4
REMARK VINA RESULT:      -8.8      4.218      9.112
REMARK  Name = 
REMARK  7 active torsions:
REMARK  status: ('A' for Active; 'I' for Inactive)
REMARK    1  A    between atoms: C_1  and  C_2
REMARK    2  A    between atoms: C_2  and  C_3
REMARK    3  A    between atoms: C_2  and  C_12
REMARK    4  A    between atoms: C_3  and  C_4
REMARK    5  A    between atoms: N_8  and  C_9
REMARK    6  A    between atoms: C_16  and  N_17
REMARK    7  A    between atoms: C_24  and  C_25
REMARK                            x       y       z     vdW  Elec       q    Type
REMARK                         _______ _______ _______ _____ _____    ______ ____
ROOT
ATOM      1  C   UNL     1      -0.048  10.720  20.106  0.00  0.00    +0.000 A 
ATOM      2  C   UNL     1      -0.130  10.843  21.495  0.00  0.00    +0.000 A 
ATOM      3  C   UNL     1       0.465   9.891  22.337  0.00  0.00    +0.000 A 
ATOM      4  C   UNL     1       1.134   8.774  21.819  0.00  0.00    +0.000 A 
ATOM      5  C   UNL     1       1.201   8.595  20.443  0.00  0.00    +0.000 A 
ATOM      6  C   UNL     1       0.614   9.586  19.616  0.00  0.00    +0.000 A 
ENDROOT
BRANCH   5   7
ATOM      7  N   UNL     1       1.814   7.476  19.828  0.00  0.00    +0.000 N 
ATOM      8  C   UNL     1       1.652   6.187  20.444  0.00  0.00    +0.000 C 
ATOM      9  C   UNL     1       2.522   5.279  19.674  0.00  0.00    +0.000 A 
ATOM     10  C   UNL     1       3.026   5.951  18.563  0.00  0.00    +0.000 A 
ATOM     11  C   UNL     1       3.759   5.267  17.615  0.00  0.00    +0.000 A 
ATOM     12  C   UNL     1       3.988   3.896  17.827  0.00  0.00    +0.000 A 
ATOM     13  C   UNL     1       3.525   3.245  18.993  0.00  0.00    +0.000 A 
ATOM     14  C   UNL     1       2.784   3.941  19.952  0.00  0.00    +0.000 A 
ATOM     15  C   UNL     1       2.625   7.389  18.674  0.00  0.00    +0.000 C 
ATOM     16  O   UNL     1       2.984   8.251  17.895  0.00  0.00    +0.000 OA
BRANCH  14  17
ATOM     17  C   UNL     1       2.313   3.286  21.230  0.00  0.00    +0.000 C 
ATOM     18  F   UNL     1       2.434   4.073  22.333  0.00  0.00    +0.000 F 
ATOM     19  F   UNL     1       1.001   2.928  21.184  0.00  0.00    +0.000 F 
ATOM     20  F   UNL     1       3.010   2.153  21.520  0.00  0.00    +0.000 F 
ENDBRANCH  14  17
ENDBRANCH   5   7
BRANCH   1  22
ATOM     21  C   UNL     1       0.159  13.119  19.271  0.00  0.00    +0.000 C 
ATOM     22  C   UNL     1      -0.551  11.769  19.102  0.00  0.00    +0.000 C 
BRANCH  22  23
ATOM     23  C   UNL     1      -2.098  11.917  19.124  0.00  0.00    +0.000 C 
BRANCH  23  24
ATOM     24  C   UNL     1      -2.759  11.535  17.835  0.00  0.00    +0.000 A 
ATOM     25  N   UNL     1      -2.135  11.223  16.712  0.00  0.00    +0.000 NA
ATOM     26  N   UNL     1      -3.081  10.972  15.741  0.00  0.00    +0.000 NA
ATOM     27  C   UNL     1      -4.263  11.116  16.292  0.00  0.00    +0.000 A 
ATOM     28  N   UNL     1      -4.113  11.429  17.608  0.00  0.00    +0.000 N 
BRANCH  28  29
ATOM     29  C   UNL     1      -5.179  11.597  18.570  0.00  0.00    +0.000 C 
ATOM     30  C   UNL     1      -6.196  12.722  18.463  0.00  0.00    +0.000 C 
ATOM     31  C   UNL     1      -6.631  11.319  18.216  0.00  0.00    +0.000 C 
ENDBRANCH  28  29
ENDBRANCH  23  24
ENDBRANCH  22  23
ENDBRANCH   1  22
TORSDOF 6
ENDMDL
MODEL 5
REMARK VINA RESULT:      -8.7      4.206      8.924
REMARK  Name = 
REMARK  7 active torsions:
REMARK  status: ('A' for Active; 'I' for Inactive)
REMARK    1  A    between atoms: C_1  and  C_2
REMARK    2  A    between atoms: C_2  and  C_3
REMARK    3  A    between atoms: C_2  and  C_12
REMARK    4  A    between atoms: C_3  and  C_4
REMARK    5  A    between atoms: N_8  and  C_9
REMARK    6  A    between atoms: C_16  and  N_17
REMARK    7  A    between atoms: C_24  and  C_25
REMARK                            x       y       z     vdW  Elec       q    Type
REMARK                         _______ _______ _______ _____ _____    ______ ____
ROOT
ATOM      1  C   UNL     1       0.175  10.705  20.217  0.00  0.00    +0.000 A 
ATOM      2  C   UNL     1       0.015  10.757  21.603  0.00  0.00    +0.000 A 
ATOM      3  C   UNL     1       0.501   9.725  22.422  0.00  0.00    +0.000 A 
ATOM      4  C   UNL     1       1.135   8.599  21.880  0.00  0.00    +0.000 A 
ATOM      5  C   UNL     1       1.277   8.492  20.502  0.00  0.00    +0.000 A 
ATOM      6  C   UNL     1       0.800   9.561  19.701  0.00  0.00    +0.000 A 
ENDROOT
BRANCH   5   7
ATOM      7  N   UNL     1       1.861   7.373  19.860  0.00  0.00    +0.000 N 
ATOM      8  C   UNL     1       1.712   6.082  20.473  0.00  0.00    +0.000 C 
ATOM      9  C   UNL     1       2.549   5.173  19.669  0.00  0.00    +0.000 A 
ATOM     10  C   UNL     1       3.019   5.848  18.546  0.00  0.00    +0.000 A 
ATOM     11  C   UNL     1       3.714   5.165  17.568  0.00  0.00    +0.000 A 
ATOM     12  C   UNL     1       3.941   3.792  17.765  0.00  0.00    +0.000 A 
ATOM     13  C   UNL     1       3.515   3.137  18.942  0.00  0.00    +0.000 A 
ATOM     14  C   UNL     1       2.812   3.832  19.930  0.00  0.00    +0.000 A 
ATOM     15  C   UNL     1       2.631   7.288  18.678  0.00  0.00    +0.000 C 
ATOM     16  O   UNL     1       2.968   8.153  17.893  0.00  0.00    +0.000 OA
BRANCH  14  17
ATOM     17  C   UNL     1       2.381   3.172  21.220  0.00  0.00    +0.000 C 
ATOM     18  F   UNL     1       2.402   4.000  22.299  0.00  0.00    +0.000 F 
ATOM     19  F   UNL     1       1.111   2.686  21.163  0.00  0.00    +0.000 F 
ATOM     20  F   UNL     1       3.179   2.122  21.558  0.00  0.00    +0.000 F 
ENDBRANCH  14  17
ENDBRANCH   5   7
BRANCH   1  22
ATOM     21  C   UNL     1       1.027  12.607  18.750  0.00  0.00    +0.000 C 
ATOM     22  C   UNL     1      -0.203  11.836  19.248  0.00  0.00    +0.000 C 
BRANCH  22  23
ATOM     23  C   UNL     1      -1.286  12.783  19.836  0.00  0.00    +0.000 C 
BRANCH  23  24
ATOM     24  C   UNL     1      -2.686  12.407  19.460  0.00  0.00    +0.000 A 
ATOM     25  N   UNL     1      -3.771  12.665  20.171  0.00  0.00    +0.000 NA
ATOM     26  N   UNL     1      -4.859  12.127  19.519  0.00  0.00    +0.000 NA
ATOM     27  C   UNL     1      -4.425  11.567  18.415  0.00  0.00    +0.000 A 
ATOM     28  N   UNL     1      -3.079  11.752  18.315  0.00  0.00    +0.000 N 
BRANCH  28  29
ATOM     29  C   UNL     1      -2.244  11.345  17.207  0.00  0.00    +0.000 C 
ATOM     30  C   UNL     1      -1.961   9.883  16.901  0.00  0.00    +0.000 C 
ATOM     31  C   UNL     1      -2.821  10.670  15.973  0.00  0.00    +0.000 C 
ENDBRANCH  28  29
ENDBRANCH  23  24
ENDBRANCH  22  23
ENDBRANCH   1  22
TORSDOF 6
ENDMDL
MODEL 6
REMARK VINA RESULT:      -8.6      1.799      2.786
REMARK  Name = 
REMARK  7 active torsions:
REMARK  status: ('A' for Active; 'I' for Inactive)
REMARK    1  A    between atoms: C_1  and  C_2
REMARK    2  A    between atoms: C_2  and  C_3
REMARK    3  A    between atoms: C_2  and  C_12
REMARK    4  A    between atoms: C_3  and  C_4
REMARK    5  A    between atoms: N_8  and  C_9
REMARK    6  A    between atoms: C_16  and  N_17
REMARK    7  A    between atoms: C_24  and  C_25
REMARK                            x       y       z     vdW  Elec       q    Type
REMARK                         _______ _______ _______ _____ _____    ______ ____
ROOT
ATOM      1  C   UNL     1       2.772   3.704  18.978  0.00  0.00    +0.000 A 
ATOM      2  C   UNL     1       2.652   3.012  20.186  0.00  0.00    +0.000 A 
ATOM      3  C   UNL     1       2.192   3.661  21.342  0.00  0.00    +0.000 A 
ATOM      4  C   UNL     1       1.867   5.024  21.335  0.00  0.00    +0.000 A 
ATOM      5  C   UNL     1       2.012   5.756  20.163  0.00  0.00    +0.000 A 
ATOM      6  C   UNL     1       2.454   5.068  19.003  0.00  0.00    +0.000 A 
ENDROOT
BRANCH   5   7
ATOM      7  N   UNL     1       1.753   7.144  20.069  0.00  0.00    +0.000 N 
ATOM      8  C   UNL     1       1.239   7.821  21.229  0.00  0.00    +0.000 C 
ATOM      9  C   UNL     1       0.928   9.188  20.773  0.00  0.00    +0.000 A 
ATOM     10  C   UNL     1       1.397   9.361  19.473  0.00  0.00    +0.000 A 
ATOM     11  C   UNL     1       1.345  10.605  18.879  0.00  0.00    +0.000 A 
ATOM     12  C   UNL     1       0.788  11.662  19.619  0.00  0.00    +0.000 A 
ATOM     13  C   UNL     1       0.256  11.454  20.912  0.00  0.00    +0.000 A 
ATOM     14  C   UNL     1       0.310  10.192  21.510  0.00  0.00    +0.000 A 
ATOM     15  C   UNL     1       1.885   8.034  18.979  0.00  0.00    +0.000 C 
ATOM     16  O   UNL     1       2.281   7.841  17.846  0.00  0.00    +0.000 OA
BRANCH  14  17
ATOM     17  C   UNL     1      -0.289   9.926  22.872  0.00  0.00    +0.000 C 
ATOM     18  F   UNL     1      -1.180   8.899  22.894  0.00  0.00    +0.000 F 
ATOM     19  F   UNL     1       0.649   9.610  23.807  0.00  0.00    +0.000 F 
ATOM     20  F   UNL     1      -0.969  11.001  23.359  0.00  0.00    +0.000 F 
ENDBRANCH  14  17
ENDBRANCH   5   7
BRANCH   1  22
ATOM     21  C   UNL     1       3.853   1.712  17.812  0.00  0.00    +0.000 C 
ATOM     22  C   UNL     1       3.141   3.059  17.633  0.00  0.00    +0.000 C 
BRANCH  22  23
ATOM     23  C   UNL     1       3.941   4.023  16.712  0.00  0.00    +0.000 C 
BRANCH  23  24
ATOM     24  C   UNL     1       5.358   4.237  17.148  0.00  0.00    +0.000 A 
ATOM     25  N   UNL     1       5.752   4.510  18.381  0.00  0.00    +0.000 NA
ATOM     26  N   UNL     1       7.120   4.678  18.375  0.00  0.00    +0.000 NA
ATOM     27  C   UNL     1       7.539   4.486  17.147  0.00  0.00    +0.000 A 
ATOM     28  N   UNL     1       6.479   4.169  16.353  0.00  0.00    +0.000 N 
BRANCH  28  29
ATOM     29  C   UNL     1       6.540   3.816  14.952  0.00  0.00    +0.000 C 
ATOM     30  C   UNL     1       5.637   4.463  13.915  0.00  0.00    +0.000 C 
ATOM     31  C   UNL     1       7.094   4.772  13.908  0.00  0.00    +0.000 C 
ENDBRANCH  28  29
ENDBRANCH  23  24
ENDBRANCH  22  23
ENDBRANCH   1  22
TORSDOF 6
ENDMDL
MODEL 7
REMARK VINA RESULT:      -8.6      3.872     10.025
REMARK  Name = 
REMARK  7 active torsions:
REMARK  status: ('A' for Active; 'I' for Inactive)
REMARK    1  A    between atoms: C_1  and  C_2
REMARK    2  A    between atoms: C_2  and  C_3
REMARK    3  A    between atoms: C_2  and  C_12
REMARK    4  A    between atoms: C_3  and  C_4
REMARK    5  A    between atoms: N_8  and  C_9
REMARK    6  A    between atoms: C_16  and  N_17
REMARK    7  A    between atoms: C_24  and  C_25
REMARK                            x       y       z     vdW  Elec       q    Type
REMARK                         _______ _______ _______ _____ _____    ______ ____
ROOT
ATOM      1  C   UNL     1       0.890   9.876  20.263  0.00  0.00    +0.000 A 
ATOM      2  C   UNL     1       1.065  10.836  19.264  0.00  0.00    +0.000 A 
ATOM      3  C   UNL     1       1.690  10.505  18.051  0.00  0.00    +0.000 A 
ATOM      4  C   UNL     1       2.183   9.216  17.811  0.00  0.00    +0.000 A 
ATOM      5  C   UNL     1       2.064   8.244  18.797  0.00  0.00    +0.000 A 
ATOM      6  C   UNL     1       1.405   8.600  20.002  0.00  0.00    +0.000 A 
ENDROOT
BRANCH   5   7
ATOM      7  N   UNL     1       2.571   6.929  18.665  0.00  0.00    +0.000 N 
ATOM      8  C   UNL     1       2.064   5.912  19.545  0.00  0.00    +0.000 C 
ATOM      9  C   UNL     1       2.887   4.719  19.273  0.00  0.00    +0.000 A 
ATOM     10  C   UNL     1       3.707   4.963  18.174  0.00  0.00    +0.000 A 
ATOM     11  C   UNL     1       4.472   3.945  17.642  0.00  0.00    +0.000 A 
ATOM     12  C   UNL     1       4.405   2.684  18.260  0.00  0.00    +0.000 A 
ATOM     13  C   UNL     1       3.618   2.471  19.415  0.00  0.00    +0.000 A 
ATOM     14  C   UNL     1       2.845   3.505  19.951  0.00  0.00    +0.000 A 
ATOM     15  C   UNL     1       3.559   6.405  17.800  0.00  0.00    +0.000 C 
ATOM     16  O   UNL     1       4.209   6.946  16.927  0.00  0.00    +0.000 OA
BRANCH  14  17
ATOM     17  C   UNL     1       2.028   3.323  21.209  0.00  0.00    +0.000 C 
ATOM     18  F   UNL     1       2.163   2.098  21.785  0.00  0.00    +0.000 F 
ATOM     19  F   UNL     1       2.354   4.218  22.182  0.00  0.00    +0.000 F 
ATOM     20  F   UNL     1       0.693   3.468  20.986  0.00  0.00    +0.000 F 
ENDBRANCH  14  17
ENDBRANCH   5   7
BRANCH   1  22
ATOM     21  C   UNL     1      -0.329   8.782  22.215  0.00  0.00    +0.000 C 
ATOM     22  C   UNL     1       0.109  10.102  21.567  0.00  0.00    +0.000 C 
BRANCH  22  23
ATOM     23  C   UNL     1      -1.082  11.084  21.383  0.00  0.00    +0.000 C 
BRANCH  23  24
ATOM     24  C   UNL     1      -0.895  12.396  22.080  0.00  0.00    +0.000 A 
ATOM     25  N   UNL     1       0.226  13.097  22.116  0.00  0.00    +0.000 NA
ATOM     26  N   UNL     1       0.015  14.221  22.886  0.00  0.00    +0.000 NA
ATOM     27  C   UNL     1      -1.233  14.197  23.290  0.00  0.00    +0.000 A 
ATOM     28  N   UNL     1      -1.852  13.097  22.778  0.00  0.00    +0.000 N 
BRANCH  28  29
ATOM     29  C   UNL     1      -3.248  12.756  22.935  0.00  0.00    +0.000 C 
ATOM     30  C   UNL     1      -3.861  12.460  24.295  0.00  0.00    +0.000 C 
ATOM     31  C   UNL     1      -4.240  13.710  23.580  0.00  0.00    +0.000 C 
ENDBRANCH  28  29
ENDBRANCH  23  24
ENDBRANCH  22  23
ENDBRANCH   1  22
TORSDOF 6
ENDMDL
MODEL 8
REMARK VINA RESULT:      -8.5      4.155      9.265
REMARK  Name = 
REMARK  7 active torsions:
REMARK  status: ('A' for Active; 'I' for Inactive)
REMARK    1  A    between atoms: C_1  and  C_2
REMARK    2  A    between atoms: C_2  and  C_3
REMARK    3  A    between atoms: C_2  and  C_12
REMARK    4  A    between atoms: C_3  and  C_4
REMARK    5  A    between atoms: N_8  and  C_9
REMARK    6  A    between atoms: C_16  and  N_17
REMARK    7  A    between atoms: C_24  and  C_25
REMARK                            x       y       z     vdW  Elec       q    Type
REMARK                         _______ _______ _______ _____ _____    ______ ____
ROOT
ATOM      1  C   UNL     1       0.735  10.659  19.724  0.00  0.00    +0.000 A 
ATOM      2  C   UNL     1       0.383  10.768  21.071  0.00  0.00    +0.000 A 
ATOM      3  C   UNL     1       0.623   9.712  21.964  0.00  0.00    +0.000 A 
ATOM      4  C   UNL     1       1.194   8.507  21.534  0.00  0.00    +0.000 A 
ATOM      5  C   UNL     1       1.521   8.345  20.193  0.00  0.00    +0.000 A 
ATOM      6  C   UNL     1       1.292   9.438  19.319  0.00  0.00    +0.000 A 
ENDROOT
BRANCH   5   7
ATOM      7  N   UNL     1       2.059   7.150  19.657  0.00  0.00    +0.000 N 
ATOM      8  C   UNL     1       1.834   5.922  20.370  0.00  0.00    +0.000 C 
ATOM      9  C   UNL     1       2.638   4.910  19.661  0.00  0.00    +0.000 A 
ATOM     10  C   UNL     1       3.160   5.467  18.496  0.00  0.00    +0.000 A 
ATOM     11  C   UNL     1       3.836   4.673  17.592  0.00  0.00    +0.000 A 
ATOM     12  C   UNL     1       3.991   3.311  17.904  0.00  0.00    +0.000 A 
ATOM     13  C   UNL     1       3.513   2.776  19.123  0.00  0.00    +0.000 A 
ATOM     14  C   UNL     1       2.829   3.584  20.036  0.00  0.00    +0.000 A 
ATOM     15  C   UNL     1       2.843   6.930  18.502  0.00  0.00    +0.000 C 
ATOM     16  O   UNL     1       3.237   7.709  17.656  0.00  0.00    +0.000 OA
BRANCH  14  17
ATOM     17  C   UNL     1       2.344   3.055  21.366  0.00  0.00    +0.000 C 
ATOM     18  F   UNL     1       2.377   3.971  22.371  0.00  0.00    +0.000 F 
ATOM     19  F   UNL     1       1.056   2.617  21.319  0.00  0.00    +0.000 F 
ATOM     20  F   UNL     1       3.090   2.007  21.811  0.00  0.00    +0.000 F 
ENDBRANCH  14  17
ENDBRANCH   5   7
BRANCH   1  22
ATOM     21  C   UNL     1       1.950  12.577  18.565  0.00  0.00    +0.000 C 
ATOM     22  C   UNL     1       0.634  11.797  18.697  0.00  0.00    +0.000 C 
BRANCH  22  23
ATOM     23  C   UNL     1      -0.574  12.736  18.970  0.00  0.00    +0.000 C 
BRANCH  23  24
ATOM     24  C   UNL     1      -1.888  12.177  18.515  0.00  0.00    +0.000 A 
ATOM     25  N   UNL     1      -2.120  11.609  17.343  0.00  0.00    +0.000 NA
ATOM     26  N   UNL     1      -3.451  11.261  17.281  0.00  0.00    +0.000 NA
ATOM     27  C   UNL     1      -4.005  11.604  18.421  0.00  0.00    +0.000 A 
ATOM     28  N   UNL     1      -3.059  12.143  19.238  0.00  0.00    +0.000 N 
BRANCH  28  29
ATOM     29  C   UNL     1      -3.259  12.576  20.603  0.00  0.00    +0.000 C 
ATOM     30  C   UNL     1      -3.591  14.018  20.953  0.00  0.00    +0.000 C 
ATOM     31  C   UNL     1      -4.631  12.966  21.127  0.00  0.00    +0.000 C 
ENDBRANCH  28  29
ENDBRANCH  23  24
ENDBRANCH  22  23
ENDBRANCH   1  22
TORSDOF 6
ENDMDL
MODEL 9
REMARK VINA RESULT:      -8.5      4.517     10.784
REMARK  Name = 
REMARK  7 active torsions:
REMARK  status: ('A' for Active; 'I' for Inactive)
REMARK    1  A    between atoms: C_1  and  C_2
REMARK    2  A    between atoms: C_2  and  C_3
REMARK    3  A    between atoms: C_2  and  C_12
REMARK    4  A    between atoms: C_3  and  C_4
REMARK    5  A    between atoms: N_8  and  C_9
REMARK    6  A    between atoms: C_16  and  N_17
REMARK    7  A    between atoms: C_24  and  C_25
REMARK                            x       y       z     vdW  Elec       q    Type
REMARK                         _______ _______ _______ _____ _____    ______ ____
ROOT
ATOM      1  C   UNL     1       0.402  10.264  20.787  0.00  0.00    +0.000 A 
ATOM      2  C   UNL     1       0.012  10.975  19.650  0.00  0.00    +0.000 A 
ATOM      3  C   UNL     1       0.337  10.512  18.366  0.00  0.00    +0.000 A 
ATOM      4  C   UNL     1       1.085   9.342  18.179  0.00  0.00    +0.000 A 
ATOM      5  C   UNL     1       1.526   8.628  19.286  0.00  0.00    +0.000 A 
ATOM      6  C   UNL     1       1.160   9.105  20.571  0.00  0.00    +0.000 A 
ENDROOT
BRANCH   5   7
ATOM      7  N   UNL     1       2.324   7.462  19.199  0.00  0.00    +0.000 N 
ATOM      8  C   UNL     1       3.444   7.469  18.298  0.00  0.00    +0.000 C 
ATOM      9  C   UNL     1       3.963   6.089  18.315  0.00  0.00    +0.000 A 
ATOM     10  C   UNL     1       3.304   5.358  19.300  0.00  0.00    +0.000 A 
ATOM     11  C   UNL     1       3.713   4.074  19.600  0.00  0.00    +0.000 A 
ATOM     12  C   UNL     1       4.787   3.541  18.866  0.00  0.00    +0.000 A 
ATOM     13  C   UNL     1       5.401   4.273  17.824  0.00  0.00    +0.000 A 
ATOM     14  C   UNL     1       4.983   5.572  17.523  0.00  0.00    +0.000 A 
ATOM     15  C   UNL     1       2.201   6.211  19.847  0.00  0.00    +0.000 C 
ATOM     16  O   UNL     1       1.392   5.824  20.667  0.00  0.00    +0.000 OA
BRANCH  14  17
ATOM     17  C   UNL     1       5.589   6.364  16.388  0.00  0.00    +0.000 C 
ATOM     18  F   UNL     1       6.353   7.415  16.791  0.00  0.00    +0.000 F 
ATOM     19  F   UNL     1       6.400   5.612  15.595  0.00  0.00    +0.000 F 
ATOM     20  F   UNL     1       4.644   6.903  15.568  0.00  0.00    +0.000 F 
ENDBRANCH  14  17
ENDBRANCH   5   7
BRANCH   1  22
ATOM     21  C   UNL     1       0.108   9.412  23.171  0.00  0.00    +0.000 C 
ATOM     22  C   UNL     1      -0.011  10.614  22.225  0.00  0.00    +0.000 C 
BRANCH  22  23
ATOM     23  C   UNL     1      -1.418  11.273  22.294  0.00  0.00    +0.000 C 
BRANCH  23  24
ATOM     24  C   UNL     1      -1.422  12.618  22.953  0.00  0.00    +0.000 A 
ATOM     25  N   UNL     1      -0.366  13.394  23.129  0.00  0.00    +0.000 NA
ATOM     26  N   UNL     1      -0.762  14.526  23.808  0.00  0.00    +0.000 NA
ATOM     27  C   UNL     1      -2.054  14.432  24.018  0.00  0.00    +0.000 A 
ATOM     28  N   UNL     1      -2.517  13.276  23.467  0.00  0.00    +0.000 N 
BRANCH  28  29
ATOM     29  C   UNL     1      -3.897  12.846  23.425  0.00  0.00    +0.000 C 
ATOM     30  C   UNL     1      -4.646  12.406  24.673  0.00  0.00    +0.000 C 
ATOM     31  C   UNL     1      -5.018  13.688  24.012  0.00  0.00    +0.000 C 
ENDBRANCH  28  29
ENDBRANCH  23  24
ENDBRANCH  22  23
ENDBRANCH   1  22
TORSDOF 6
ENDMDL
