MODEL 1
REMARK VINA RESULT:     -10.3      0.000      0.000
REMARK  Name = 
REMARK  9 active torsions:
REMARK  status: ('A' for Active; 'I' for Inactive)
REMARK    1  A    between atoms: C_1  and  C_2
REMARK    2  A    between atoms: C_2  and  C_3
REMARK    3  A    between atoms: C_2  and  N_34
REMARK    4  A    between atoms: C_7  and  C_8
REMARK    5  A    between atoms: N_14  and  C_15
REMARK    6  A    between atoms: C_19  and  C_20
REMARK    7  A    between atoms: C_20  and  C_21
REMARK    8  A    between atoms: C_21  and  C_22
REMARK    9  A    between atoms: N_26  and  C_27
REMARK                            x       y       z     vdW  Elec       q    Type
REMARK                         _______ _______ _______ _____ _____    ______ ____
ROOT
ATOM      1  C   UNL     1       0.344  11.803  19.705  0.00  0.00    +0.000 A 
ATOM      2  C   UNL     1       1.122  11.105  18.769  0.00  0.00    +0.000 A 
ATOM      3  C   UNL     1       1.466   9.799  19.052  0.00  0.00    +0.000 A 
ATOM      4  C   UNL     1       1.105   9.165  20.235  0.00  0.00    +0.000 A 
ATOM      5  C   UNL     1       0.421   9.855  21.230  0.00  0.00    +0.000 A 
ATOM      6  C   UNL     1       0.031  11.182  20.941  0.00  0.00    +0.000 A 
ATOM      7  C   UNL     1       1.477   7.718  20.149  0.00  0.00    +0.000 C 
ATOM      8  N   UNL     1       2.084   7.599  18.829  0.00  0.00    +0.000 N 
ATOM      9  C   UNL     1       2.110   8.825  18.161  0.00  0.00    +0.000 C 
ATOM     10  O   UNL     1       2.510   9.127  17.055  0.00  0.00    +0.000 OA
ENDROOT
BRANCH   8  11
ATOM     11  C   UNL     1       2.536   6.360  18.315  0.00  0.00    +0.000 A 
ATOM     12  C   UNL     1       1.721   5.228  18.304  0.00  0.00    +0.000 A 
ATOM     13  C   UNL     1       2.179   4.025  17.769  0.00  0.00    +0.000 A 
ATOM     14  C   UNL     1       3.482   3.926  17.285  0.00  0.00    +0.000 A 
ATOM     15  C   UNL     1       4.368   5.017  17.329  0.00  0.00    +0.000 A 
ATOM     16  C   UNL     1       3.840   6.235  17.808  0.00  0.00    +0.000 A 
BRANCH  15  17
ATOM     17  C   UNL     1       5.909   4.882  16.917  0.00  0.00    +0.000 C 
ATOM     18  C   UNL     1       6.763   6.180  16.789  0.00  0.00    +0.000 C 
ATOM     19  O   UNL     1       7.835   5.575  17.565  0.00  0.00    +0.000 OA
ATOM     20  C   UNL     1       6.891   4.615  18.096  0.00  0.00    +0.000 C 
BRANCH  17  21
ATOM     21  C   UNL     1       6.109   3.898  15.751  0.00  0.00    +0.000 C 
BRANCH  21  22
ATOM     22  C   UNL     1       6.808   4.510  14.580  0.00  0.00    +0.000 A 
ATOM     23  N   UNL     1       7.800   5.376  14.638  0.00  0.00    +0.000 NA
ATOM     24  N   UNL     1       8.178   5.690  13.355  0.00  0.00    +0.000 NA
ATOM     25  C   UNL     1       7.413   5.006  12.539  0.00  0.00    +0.000 A 
ATOM     26  N   UNL     1       6.533   4.259  13.259  0.00  0.00    +0.000 N 
ATOM     27  C   UNL     1       5.533   3.386  12.708  0.00  0.00    +0.000 C 
ENDBRANCH  21  22
ENDBRANCH  17  21
ENDBRANCH  15  17
ENDBRANCH   8  11
BRANCH   5  28
ATOM     28  C   UNL     1       0.049   9.229  22.548  0.00  0.00    +0.000 C 
ATOM     29  F   UNL     1      -0.628  10.072  23.377  0.00  0.00    +0.000 F 
ATOM     30  F   UNL     1      -0.754   8.140  22.394  0.00  0.00    +0.000 F 
ATOM     31  F   UNL     1       1.132   8.806  23.254  0.00  0.00    +0.000 F 
ENDBRANCH   5  28
BRANCH   1  33
ATOM     32  C   UNL     1      -1.770  12.705  18.897  0.00  0.00    +0.000 C 
ATOM     33  C   UNL     1      -0.321  13.111  19.255  0.00  0.00    +0.000 C 
BRANCH  33  34
ATOM     34  N   UNL     1      -0.273  14.209  20.253  0.00  0.00    +0.000 NA
ATOM     35  C   UNL     1       1.101  14.577  20.658  0.00  0.00    +0.000 C 
ATOM     36  C   UNL     1       1.944  15.272  19.577  0.00  0.00    +0.000 C 
ATOM     37  C   UNL     1       1.201  16.394  18.874  0.00  0.00    +0.000 C 
ATOM     38  C   UNL     1      -0.260  16.109  18.593  0.00  0.00    +0.000 C 
ATOM     39  C   UNL     1      -0.943  15.448  19.797  0.00  0.00    +0.000 C 
ATOM     40  C   UNL     1       1.636  17.830  19.097  0.00  0.00    +0.000 C 
ATOM     41  C   UNL     1       1.962  17.149  17.802  0.00  0.00    +0.000 C 
ENDBRANCH  33  34
ENDBRANCH   1  33
TORSDOF 7
ENDMDL
MODEL 2
REMARK VINA RESULT:     -10.0      1.648      2.565
REMARK  Name = 
REMARK  9 active torsions:
REMARK  status: ('A' for Active; 'I' for Inactive)
REMARK    1  A    between atoms: C_1  and  C_2
REMARK    2  A    between atoms: C_2  and  C_3
REMARK    3  A    between atoms: C_2  and  N_34
REMARK    4  A    between atoms: C_7  and  C_8
REMARK    5  A    between atoms: N_14  and  C_15
REMARK    6  A    between atoms: C_19  and  C_20
REMARK    7  A    between atoms: C_20  and  C_21
REMARK    8  A    between atoms: C_21  and  C_22
REMARK    9  A    between atoms: N_26  and  C_27
REMARK                            x       y       z     vdW  Elec       q    Type
REMARK                         _______ _______ _______ _____ _____    ______ ____
ROOT
ATOM      1  C   UNL     1       0.256  11.753  19.725  0.00  0.00    +0.000 A 
ATOM      2  C   UNL     1       1.032  11.020  18.814  0.00  0.00    +0.000 A 
ATOM      3  C   UNL     1       1.410   9.740  19.161  0.00  0.00    +0.000 A 
ATOM      4  C   UNL     1       1.086   9.166  20.385  0.00  0.00    +0.000 A 
ATOM      5  C   UNL     1       0.405   9.895  21.354  0.00  0.00    +0.000 A 
ATOM      6  C   UNL     1      -0.021  11.195  20.999  0.00  0.00    +0.000 A 
ATOM      7  C   UNL     1       1.488   7.725  20.372  0.00  0.00    +0.000 C 
ATOM      8  N   UNL     1       2.074   7.544  19.049  0.00  0.00    +0.000 N 
ATOM      9  C   UNL     1       2.060   8.732  18.314  0.00  0.00    +0.000 C 
ATOM     10  O   UNL     1       2.433   8.979  17.185  0.00  0.00    +0.000 OA
ENDROOT
BRANCH   8  11
ATOM     11  C   UNL     1       2.544   6.289  18.596  0.00  0.00    +0.000 A 
ATOM     12  C   UNL     1       2.050   5.090  19.111  0.00  0.00    +0.000 A 
ATOM     13  C   UNL     1       2.510   3.865  18.631  0.00  0.00    +0.000 A 
ATOM     14  C   UNL     1       3.512   3.825  17.664  0.00  0.00    +0.000 A 
ATOM     15  C   UNL     1       4.091   5.001  17.154  0.00  0.00    +0.000 A 
ATOM     16  C   UNL     1       3.543   6.218  17.612  0.00  0.00    +0.000 A 
BRANCH  15  17
ATOM     17  C   UNL     1       5.342   4.973  16.155  0.00  0.00    +0.000 C 
ATOM     18  C   UNL     1       6.050   3.611  15.885  0.00  0.00    +0.000 C 
ATOM     19  O   UNL     1       6.042   3.868  14.453  0.00  0.00    +0.000 OA
ATOM     20  C   UNL     1       4.982   4.836  14.646  0.00  0.00    +0.000 C 
BRANCH  17  21
ATOM     21  C   UNL     1       6.319   6.131  16.424  0.00  0.00    +0.000 C 
BRANCH  21  22
ATOM     22  C   UNL     1       7.080   5.972  17.700  0.00  0.00    +0.000 A 
ATOM     23  N   UNL     1       7.151   4.874  18.427  0.00  0.00    +0.000 NA
ATOM     24  N   UNL     1       7.953   5.123  19.513  0.00  0.00    +0.000 NA
ATOM     25  C   UNL     1       8.362   6.366  19.426  0.00  0.00    +0.000 A 
ATOM     26  N   UNL     1       7.834   6.941  18.313  0.00  0.00    +0.000 N 
ATOM     27  C   UNL     1       8.054   8.298  17.890  0.00  0.00    +0.000 C 
ENDBRANCH  21  22
ENDBRANCH  17  21
ENDBRANCH  15  17
ENDBRANCH   8  11
BRANCH   5  28
ATOM     28  C   UNL     1       0.071   9.336  22.711  0.00  0.00    +0.000 C 
ATOM     29  F   UNL     1       1.167   9.088  23.481  0.00  0.00    +0.000 F 
ATOM     30  F   UNL     1      -0.708  10.181  23.441  0.00  0.00    +0.000 F 
ATOM     31  F   UNL     1      -0.607   8.159  22.642  0.00  0.00    +0.000 F 
ENDBRANCH   5  28
BRANCH   1  33
ATOM     32  C   UNL     1      -1.877  12.551  18.856  0.00  0.00    +0.000 C 
ATOM     33  C   UNL     1      -0.447  13.019  19.216  0.00  0.00    +0.000 C 
BRANCH  33  34
ATOM     34  N   UNL     1      -0.449  14.156  20.170  0.00  0.00    +0.000 NA
ATOM     35  C   UNL     1       0.877  14.425  20.769  0.00  0.00    +0.000 C 
ATOM     36  C   UNL     1       1.932  14.994  19.807  0.00  0.00    +0.000 C 
ATOM     37  C   UNL     1       1.408  16.139  18.959  0.00  0.00    +0.000 C 
ATOM     38  C   UNL     1      -0.014  15.966  18.467  0.00  0.00    +0.000 C 
ATOM     39  C   UNL     1      -0.927  15.423  19.574  0.00  0.00    +0.000 C 
ATOM     40  C   UNL     1       1.933  17.542  19.197  0.00  0.00    +0.000 C 
ATOM     41  C   UNL     1       2.387  16.775  17.991  0.00  0.00    +0.000 C 
ENDBRANCH  33  34
ENDBRANCH   1  33
TORSDOF 7
ENDMDL
MODEL 3
REMARK VINA RESULT:     -10.0      1.543      2.497
REMARK  Name = 
REMARK  9 active torsions:
REMARK  status: ('A' for Active; 'I' for Inactive)
REMARK    1  A    between atoms: C_1  and  C_2
REMARK    2  A    between atoms: C_2  and  C_3
REMARK    3  A    between atoms: C_2  and  N_34
REMARK    4  A    between atoms: C_7  and  C_8
REMARK    5  A    between atoms: N_14  and  C_15
REMARK    6  A    between atoms: C_19  and  C_20
REMARK    7  A    between atoms: C_20  and  C_21
REMARK    8  A    between atoms: C_21  and  C_22
REMARK    9  A    between atoms: N_26  and  C_27
REMARK                            x       y       z     vdW  Elec       q    Type
REMARK                         _______ _______ _______ _____ _____    ______ ____
ROOT
ATOM      1  C   UNL     1       0.843  11.688  19.397  0.00  0.00    +0.000 A 
ATOM      2  C   UNL     1       1.616  10.899  18.531  0.00  0.00    +0.000 A 
ATOM      3  C   UNL     1       1.827   9.578  18.867  0.00  0.00    +0.000 A 
ATOM      4  C   UNL     1       1.337   9.011  20.038  0.00  0.00    +0.000 A 
ATOM      5  C   UNL     1       0.652   9.785  20.969  0.00  0.00    +0.000 A 
ATOM      6  C   UNL     1       0.397  11.131  20.623  0.00  0.00    +0.000 A 
ATOM      7  C   UNL     1       1.586   7.536  20.011  0.00  0.00    +0.000 C 
ATOM      8  N   UNL     1       2.266   7.327  18.738  0.00  0.00    +0.000 N 
ATOM      9  C   UNL     1       2.441   8.527  18.045  0.00  0.00    +0.000 C 
ATOM     10  O   UNL     1       2.936   8.761  16.961  0.00  0.00    +0.000 OA
ENDROOT
BRANCH   8  11
ATOM     11  C   UNL     1       2.641   6.040  18.284  0.00  0.00    +0.000 A 
ATOM     12  C   UNL     1       1.933   4.896  18.652  0.00  0.00    +0.000 A 
ATOM     13  C   UNL     1       2.306   3.641  18.172  0.00  0.00    +0.000 A 
ATOM     14  C   UNL     1       3.429   3.510  17.359  0.00  0.00    +0.000 A 
ATOM     15  C   UNL     1       4.218   4.620  17.008  0.00  0.00    +0.000 A 
ATOM     16  C   UNL     1       3.761   5.880  17.452  0.00  0.00    +0.000 A 
BRANCH  15  17
ATOM     17  C   UNL     1       5.592   4.470  16.200  0.00  0.00    +0.000 C 
ATOM     18  C   UNL     1       5.681   3.396  15.074  0.00  0.00    +0.000 C 
ATOM     19  O   UNL     1       6.285   4.364  14.170  0.00  0.00    +0.000 OA
ATOM     20  C   UNL     1       5.759   5.436  14.990  0.00  0.00    +0.000 C 
BRANCH  17  21
ATOM     21  C   UNL     1       6.814   4.483  17.135  0.00  0.00    +0.000 C 
BRANCH  21  22
ATOM     22  C   UNL     1       7.325   5.860  17.415  0.00  0.00    +0.000 A 
ATOM     23  N   UNL     1       7.414   6.843  16.541  0.00  0.00    +0.000 NA
ATOM     24  N   UNL     1       7.916   7.949  17.182  0.00  0.00    +0.000 NA
ATOM     25  C   UNL     1       8.119   7.621  18.435  0.00  0.00    +0.000 A 
ATOM     26  N   UNL     1       7.772   6.320  18.627  0.00  0.00    +0.000 N 
ATOM     27  C   UNL     1       7.863   5.607  19.872  0.00  0.00    +0.000 C 
ENDBRANCH  21  22
ENDBRANCH  17  21
ENDBRANCH  15  17
ENDBRANCH   8  11
BRANCH   5  28
ATOM     28  C   UNL     1       0.142   9.231  22.273  0.00  0.00    +0.000 C 
ATOM     29  F   UNL     1      -0.611  10.118  22.981  0.00  0.00    +0.000 F 
ATOM     30  F   UNL     1      -0.647   8.136  22.096  0.00  0.00    +0.000 F 
ATOM     31  F   UNL     1       1.144   8.847  23.108  0.00  0.00    +0.000 F 
ENDBRANCH   5  28
BRANCH   1  33
ATOM     32  C   UNL     1      -1.185  12.796  18.623  0.00  0.00    +0.000 C 
ATOM     33  C   UNL     1       0.323  13.033  18.872  0.00  0.00    +0.000 C 
BRANCH  33  34
ATOM     34  N   UNL     1       0.571  14.189  19.771  0.00  0.00    +0.000 NA
ATOM     35  C   UNL     1       1.807  14.055  20.574  0.00  0.00    +0.000 C 
ATOM     36  C   UNL     1       3.122  14.151  19.783  0.00  0.00    +0.000 C 
ATOM     37  C   UNL     1       3.151  15.323  18.818  0.00  0.00    +0.000 C 
ATOM     38  C   UNL     1       1.844  15.587  18.100  0.00  0.00    +0.000 C 
ATOM     39  C   UNL     1       0.649  15.483  19.057  0.00  0.00    +0.000 C 
ATOM     40  C   UNL     1       4.084  16.487  19.089  0.00  0.00    +0.000 C 
ATOM     41  C   UNL     1       4.418  15.505  18.006  0.00  0.00    +0.000 C 
ENDBRANCH  33  34
ENDBRANCH   1  33
TORSDOF 7
ENDMDL
MODEL 4
REMARK VINA RESULT:      -9.9      0.670      1.252
REMARK  Name = 
REMARK  9 active torsions:
REMARK  status: ('A' for Active; 'I' for Inactive)
REMARK    1  A    between atoms: C_1  and  C_2
REMARK    2  A    between atoms: C_2  and  C_3
REMARK    3  A    between atoms: C_2  and  N_34
REMARK    4  A    between atoms: C_7  and  C_8
REMARK    5  A    between atoms: N_14  and  C_15
REMARK    6  A    between atoms: C_19  and  C_20
REMARK    7  A    between atoms: C_20  and  C_21
REMARK    8  A    between atoms: C_21  and  C_22
REMARK    9  A    between atoms: N_26  and  C_27
REMARK                            x       y       z     vdW  Elec       q    Type
REMARK                         _______ _______ _______ _____ _____    ______ ____
ROOT
ATOM      1  C   UNL     1       0.092  11.928  19.838  0.00  0.00    +0.000 A 
ATOM      2  C   UNL     1       0.881  11.274  18.880  0.00  0.00    +0.000 A 
ATOM      3  C   UNL     1       1.318   9.996  19.159  0.00  0.00    +0.000 A 
ATOM      4  C   UNL     1       1.040   9.350  20.358  0.00  0.00    +0.000 A 
ATOM      5  C   UNL     1       0.347  10.002  21.372  0.00  0.00    +0.000 A 
ATOM      6  C   UNL     1      -0.139  11.298  21.088  0.00  0.00    +0.000 A 
ATOM      7  C   UNL     1       1.501   7.929  20.268  0.00  0.00    +0.000 C 
ATOM      8  N   UNL     1       2.070   7.838  18.929  0.00  0.00    +0.000 N 
ATOM      9  C   UNL     1       1.994   9.058  18.253  0.00  0.00    +0.000 C 
ATOM     10  O   UNL     1       2.336   9.375  17.132  0.00  0.00    +0.000 OA
ENDROOT
BRANCH   8  11
ATOM     11  C   UNL     1       2.584   6.627  18.408  0.00  0.00    +0.000 A 
ATOM     12  C   UNL     1       1.906   5.417  18.555  0.00  0.00    +0.000 A 
ATOM     13  C   UNL     1       2.419   4.240  18.011  0.00  0.00    +0.000 A 
ATOM     14  C   UNL     1       3.648   4.252  17.356  0.00  0.00    +0.000 A 
ATOM     15  C   UNL     1       4.406   5.430  17.232  0.00  0.00    +0.000 A 
ATOM     16  C   UNL     1       3.814   6.611  17.731  0.00  0.00    +0.000 A 
BRANCH  15  17
ATOM     17  C   UNL     1       5.883   5.434  16.616  0.00  0.00    +0.000 C 
ATOM     18  C   UNL     1       7.063   5.922  17.510  0.00  0.00    +0.000 C 
ATOM     19  O   UNL     1       7.861   4.769  17.123  0.00  0.00    +0.000 OA
ATOM     20  C   UNL     1       6.650   4.083  16.723  0.00  0.00    +0.000 C 
BRANCH  17  21
ATOM     21  C   UNL     1       5.911   6.015  15.191  0.00  0.00    +0.000 C 
BRANCH  21  22
ATOM     22  C   UNL     1       6.015   4.966  14.132  0.00  0.00    +0.000 A 
ATOM     23  N   UNL     1       5.125   4.025  13.885  0.00  0.00    +0.000 NA
ATOM     24  N   UNL     1       5.574   3.267  12.832  0.00  0.00    +0.000 NA
ATOM     25  C   UNL     1       6.727   3.763  12.452  0.00  0.00    +0.000 A 
ATOM     26  N   UNL     1       7.050   4.823  13.242  0.00  0.00    +0.000 N 
ATOM     27  C   UNL     1       8.244   5.615  13.129  0.00  0.00    +0.000 C 
ENDBRANCH  21  22
ENDBRANCH  17  21
ENDBRANCH  15  17
ENDBRANCH   8  11
BRANCH   5  28
ATOM     28  C   UNL     1       0.060   9.365  22.705  0.00  0.00    +0.000 C 
ATOM     29  F   UNL     1       1.183   8.993  23.381  0.00  0.00    +0.000 F 
ATOM     30  F   UNL     1      -0.615  10.199  23.543  0.00  0.00    +0.000 F 
ATOM     31  F   UNL     1      -0.697   8.239  22.598  0.00  0.00    +0.000 F 
ENDBRANCH   5  28
BRANCH   1  33
ATOM     32  C   UNL     1      -2.127  12.704  19.192  0.00  0.00    +0.000 C 
ATOM     33  C   UNL     1      -0.672  13.187  19.403  0.00  0.00    +0.000 C 
BRANCH  33  34
ATOM     34  N   UNL     1      -0.588  14.325  20.351  0.00  0.00    +0.000 NA
ATOM     35  C   UNL     1       0.782  14.573  20.853  0.00  0.00    +0.000 C 
ATOM     36  C   UNL     1       1.776  15.122  19.816  0.00  0.00    +0.000 C 
ATOM     37  C   UNL     1       1.211  16.274  19.004  0.00  0.00    +0.000 C 
ATOM     38  C   UNL     1      -0.245  16.124  18.615  0.00  0.00    +0.000 C 
ATOM     39  C   UNL     1      -1.085  15.599  19.786  0.00  0.00    +0.000 C 
ATOM     40  C   UNL     1       1.776  17.668  19.199  0.00  0.00    +0.000 C 
ATOM     41  C   UNL     1       2.129  16.891  17.966  0.00  0.00    +0.000 C 
ENDBRANCH  33  34
ENDBRANCH   1  33
TORSDOF 7
ENDMDL
MODEL 5
REMARK VINA RESULT:      -9.7      2.486     10.267
REMARK  Name = 
REMARK  9 active torsions:
REMARK  status: ('A' for Active; 'I' for Inactive)
REMARK    1  A    between atoms: C_1  and  C_2
REMARK    2  A    between atoms: C_2  and  C_3
REMARK    3  A    between atoms: C_2  and  N_34
REMARK    4  A    between atoms: C_7  and  C_8
REMARK    5  A    between atoms: N_14  and  C_15
REMARK    6  A    between atoms: C_19  and  C_20
REMARK    7  A    between atoms: C_20  and  C_21
REMARK    8  A    between atoms: C_21  and  C_22
REMARK    9  A    between atoms: N_26  and  C_27
REMARK                            x       y       z     vdW  Elec       q    Type
REMARK                         _______ _______ _______ _____ _____    ______ ____
ROOT
ATOM      1  C   UNL     1       4.061   6.032  17.702  0.00  0.00    +0.000 A 
ATOM      2  C   UNL     1       3.373   7.254  17.750  0.00  0.00    +0.000 A 
ATOM      3  C   UNL     1       2.473   7.455  18.776  0.00  0.00    +0.000 A 
ATOM      4  C   UNL     1       2.196   6.488  19.735  0.00  0.00    +0.000 A 
ATOM      5  C   UNL     1       2.782   5.229  19.663  0.00  0.00    +0.000 A 
ATOM      6  C   UNL     1       3.734   5.020  18.640  0.00  0.00    +0.000 A 
ATOM      7  C   UNL     1       1.321   7.083  20.793  0.00  0.00    +0.000 C 
ATOM      8  N   UNL     1       1.122   8.455  20.341  0.00  0.00    +0.000 N 
ATOM      9  C   UNL     1       1.778   8.699  19.133  0.00  0.00    +0.000 C 
ATOM     10  O   UNL     1       1.866   9.705  18.458  0.00  0.00    +0.000 OA
ENDROOT
BRANCH   8  11
ATOM     11  C   UNL     1       0.382   9.398  21.093  0.00  0.00    +0.000 A 
ATOM     12  C   UNL     1       0.111   9.207  22.448  0.00  0.00    +0.000 A 
ATOM     13  C   UNL     1      -0.598  10.162  23.176  0.00  0.00    +0.000 A 
ATOM     14  C   UNL     1      -1.092  11.298  22.540  0.00  0.00    +0.000 A 
ATOM     15  C   UNL     1      -0.904  11.513  21.163  0.00  0.00    +0.000 A 
ATOM     16  C   UNL     1      -0.117  10.560  20.482  0.00  0.00    +0.000 A 
BRANCH  15  17
ATOM     17  C   UNL     1      -1.589  12.734  20.387  0.00  0.00    +0.000 C 
ATOM     18  C   UNL     1      -3.144  12.779  20.293  0.00  0.00    +0.000 C 
ATOM     19  O   UNL     1      -3.148  14.182  20.682  0.00  0.00    +0.000 OA
ATOM     20  C   UNL     1      -1.823  14.015  21.242  0.00  0.00    +0.000 C 
BRANCH  17  21
ATOM     21  C   UNL     1      -0.884  13.038  19.053  0.00  0.00    +0.000 C 
BRANCH  21  22
ATOM     22  C   UNL     1      -0.028  14.262  19.108  0.00  0.00    +0.000 A 
ATOM     23  N   UNL     1      -0.404  15.483  18.785  0.00  0.00    +0.000 NA
ATOM     24  N   UNL     1       0.659  16.331  18.980  0.00  0.00    +0.000 NA
ATOM     25  C   UNL     1       1.661  15.612  19.424  0.00  0.00    +0.000 A 
ATOM     26  N   UNL     1       1.283  14.308  19.512  0.00  0.00    +0.000 N 
ATOM     27  C   UNL     1       2.118  13.224  19.953  0.00  0.00    +0.000 C 
ENDBRANCH  21  22
ENDBRANCH  17  21
ENDBRANCH  15  17
ENDBRANCH   8  11
BRANCH   5  28
ATOM     28  C   UNL     1       2.481   4.132  20.649  0.00  0.00    +0.000 C 
ATOM     29  F   UNL     1       1.194   3.691  20.593  0.00  0.00    +0.000 F 
ATOM     30  F   UNL     1       3.257   3.031  20.450  0.00  0.00    +0.000 F 
ATOM     31  F   UNL     1       2.686   4.513  21.939  0.00  0.00    +0.000 F 
ENDBRANCH   5  28
BRANCH   1  33
ATOM     32  C   UNL     1       6.287   6.966  17.367  0.00  0.00    +0.000 C 
ATOM     33  C   UNL     1       5.290   5.935  16.788  0.00  0.00    +0.000 C 
BRANCH  33  34
ATOM     34  N   UNL     1       5.881   4.577  16.683  0.00  0.00    +0.000 NA
ATOM     35  C   UNL     1       5.007   3.606  15.988  0.00  0.00    +0.000 C 
ATOM     36  C   UNL     1       4.823   3.845  14.481  0.00  0.00    +0.000 C 
ATOM     37  C   UNL     1       6.132   4.107  13.756  0.00  0.00    +0.000 C 
ATOM     38  C   UNL     1       7.119   4.966  14.519  0.00  0.00    +0.000 C 
ATOM     39  C   UNL     1       7.192   4.558  15.996  0.00  0.00    +0.000 C 
ATOM     40  C   UNL     1       6.663   3.073  12.783  0.00  0.00    +0.000 C 
ATOM     41  C   UNL     1       6.049   4.337  12.260  0.00  0.00    +0.000 C 
ENDBRANCH  33  34
ENDBRANCH   1  33
TORSDOF 7
ENDMDL
MODEL 6
REMARK VINA RESULT:      -9.7      2.536     10.455
REMARK  Name = 
REMARK  9 active torsions:
REMARK  status: ('A' for Active; 'I' for Inactive)
REMARK    1  A    between atoms: C_1  and  C_2
REMARK    2  A    between atoms: C_2  and  C_3
REMARK    3  A    between atoms: C_2  and  N_34
REMARK    4  A    between atoms: C_7  and  C_8
REMARK    5  A    between atoms: N_14  and  C_15
REMARK    6  A    between atoms: C_19  and  C_20
REMARK    7  A    between atoms: C_20  and  C_21
REMARK    8  A    between atoms: C_21  and  C_22
REMARK    9  A    between atoms: N_26  and  C_27
REMARK                            x       y       z     vdW  Elec       q    Type
REMARK                         _______ _______ _______ _____ _____    ______ ____
ROOT
ATOM      1  C   UNL     1       4.161   6.113  17.600  0.00  0.00    +0.000 A 
ATOM      2  C   UNL     1       3.466   7.327  17.707  0.00  0.00    +0.000 A 
ATOM      3  C   UNL     1       2.570   7.477  18.744  0.00  0.00    +0.000 A 
ATOM      4  C   UNL     1       2.303   6.466  19.660  0.00  0.00    +0.000 A 
ATOM      5  C   UNL     1       2.895   5.214  19.528  0.00  0.00    +0.000 A 
ATOM      6  C   UNL     1       3.843   5.057  18.493  0.00  0.00    +0.000 A 
ATOM      7  C   UNL     1       1.429   7.007  20.747  0.00  0.00    +0.000 C 
ATOM      8  N   UNL     1       1.220   8.397  20.358  0.00  0.00    +0.000 N 
ATOM      9  C   UNL     1       1.870   8.699  19.160  0.00  0.00    +0.000 C 
ATOM     10  O   UNL     1       1.949   9.735  18.531  0.00  0.00    +0.000 OA
ENDROOT
BRANCH   8  11
ATOM     11  C   UNL     1       0.478   9.300  21.156  0.00  0.00    +0.000 A 
ATOM     12  C   UNL     1       0.111   8.993  22.466  0.00  0.00    +0.000 A 
ATOM     13  C   UNL     1      -0.598   9.910  23.241  0.00  0.00    +0.000 A 
ATOM     14  C   UNL     1      -0.995  11.128  22.695  0.00  0.00    +0.000 A 
ATOM     15  C   UNL     1      -0.707  11.465  21.360  0.00  0.00    +0.000 A 
ATOM     16  C   UNL     1       0.077  10.541  20.635  0.00  0.00    +0.000 A 
BRANCH  15  17
ATOM     17  C   UNL     1      -1.281  12.791  20.671  0.00  0.00    +0.000 C 
ATOM     18  C   UNL     1      -2.644  12.711  19.920  0.00  0.00    +0.000 C 
ATOM     19  O   UNL     1      -3.104  13.923  20.583  0.00  0.00    +0.000 OA
ATOM     20  C   UNL     1      -2.102  13.724  21.610  0.00  0.00    +0.000 C 
BRANCH  17  21
ATOM     21  C   UNL     1      -0.193  13.552  19.891  0.00  0.00    +0.000 C 
BRANCH  21  22
ATOM     22  C   UNL     1       0.774  14.266  20.779  0.00  0.00    +0.000 A 
ATOM     23  N   UNL     1       1.737  13.704  21.483  0.00  0.00    +0.000 NA
ATOM     24  N   UNL     1       2.415  14.691  22.156  0.00  0.00    +0.000 NA
ATOM     25  C   UNL     1       1.856  15.836  21.847  0.00  0.00    +0.000 A 
ATOM     26  N   UNL     1       0.818  15.620  20.995  0.00  0.00    +0.000 N 
ATOM     27  C   UNL     1      -0.035  16.638  20.444  0.00  0.00    +0.000 C 
ENDBRANCH  21  22
ENDBRANCH  17  21
ENDBRANCH  15  17
ENDBRANCH   8  11
BRANCH   5  28
ATOM     28  C   UNL     1       2.605   4.072  20.465  0.00  0.00    +0.000 C 
ATOM     29  F   UNL     1       1.440   3.423  20.185  0.00  0.00    +0.000 F 
ATOM     30  F   UNL     1       3.576   3.118  20.433  0.00  0.00    +0.000 F 
ATOM     31  F   UNL     1       2.504   4.468  21.762  0.00  0.00    +0.000 F 
ENDBRANCH   5  28
BRANCH   1  33
ATOM     32  C   UNL     1       6.329   7.160  17.226  0.00  0.00    +0.000 C 
ATOM     33  C   UNL     1       5.386   6.063  16.677  0.00  0.00    +0.000 C 
BRANCH  33  34
ATOM     34  N   UNL     1       6.051   4.738  16.595  0.00  0.00    +0.000 NA
ATOM     35  C   UNL     1       5.162   3.664  16.099  0.00  0.00    +0.000 C 
ATOM     36  C   UNL     1       4.769   3.766  14.616  0.00  0.00    +0.000 C 
ATOM     37  C   UNL     1       5.952   4.042  13.705  0.00  0.00    +0.000 C 
ATOM     38  C   UNL     1       6.968   5.018  14.262  0.00  0.00    +0.000 C 
ATOM     39  C   UNL     1       7.259   4.738  15.741  0.00  0.00    +0.000 C 
ATOM     40  C   UNL     1       6.422   2.963  12.748  0.00  0.00    +0.000 C 
ATOM     41  C   UNL     1       5.660   4.142  12.220  0.00  0.00    +0.000 C 
ENDBRANCH  33  34
ENDBRANCH   1  33
TORSDOF 7
ENDMDL
MODEL 7
REMARK VINA RESULT:      -9.6      2.849     10.189
REMARK  Name = 
REMARK  9 active torsions:
REMARK  status: ('A' for Active; 'I' for Inactive)
REMARK    1  A    between atoms: C_1  and  C_2
REMARK    2  A    between atoms: C_2  and  C_3
REMARK    3  A    between atoms: C_2  and  N_34
REMARK    4  A    between atoms: C_7  and  C_8
REMARK    5  A    between atoms: N_14  and  C_15
REMARK    6  A    between atoms: C_19  and  C_20
REMARK    7  A    between atoms: C_20  and  C_21
REMARK    8  A    between atoms: C_21  and  C_22
REMARK    9  A    between atoms: N_26  and  C_27
REMARK                            x       y       z     vdW  Elec       q    Type
REMARK                         _______ _______ _______ _____ _____    ______ ____
ROOT
ATOM      1  C   UNL     1       4.180   6.018  17.533  0.00  0.00    +0.000 A 
ATOM      2  C   UNL     1       3.511   7.250  17.583  0.00  0.00    +0.000 A 
ATOM      3  C   UNL     1       2.595   7.454  18.594  0.00  0.00    +0.000 A 
ATOM      4  C   UNL     1       2.285   6.480  19.536  0.00  0.00    +0.000 A 
ATOM      5  C   UNL     1       2.852   5.213  19.460  0.00  0.00    +0.000 A 
ATOM      6  C   UNL     1       3.819   5.000  18.453  0.00  0.00    +0.000 A 
ATOM      7  C   UNL     1       1.400   7.077  20.585  0.00  0.00    +0.000 C 
ATOM      8  N   UNL     1       1.230   8.457  20.145  0.00  0.00    +0.000 N 
ATOM      9  C   UNL     1       1.913   8.704  18.953  0.00  0.00    +0.000 C 
ATOM     10  O   UNL     1       2.029   9.717  18.292  0.00  0.00    +0.000 OA
ENDROOT
BRANCH   8  11
ATOM     11  C   UNL     1       0.491   9.402  20.895  0.00  0.00    +0.000 A 
ATOM     12  C   UNL     1       0.262   9.240  22.262  0.00  0.00    +0.000 A 
ATOM     13  C   UNL     1      -0.447  10.198  22.985  0.00  0.00    +0.000 A 
ATOM     14  C   UNL     1      -0.983  11.308  22.336  0.00  0.00    +0.000 A 
ATOM     15  C   UNL     1      -0.838  11.491  20.949  0.00  0.00    +0.000 A 
ATOM     16  C   UNL     1      -0.049  10.538  20.270  0.00  0.00    +0.000 A 
BRANCH  15  17
ATOM     17  C   UNL     1      -1.571  12.678  20.163  0.00  0.00    +0.000 C 
ATOM     18  C   UNL     1      -1.437  14.130  20.713  0.00  0.00    +0.000 C 
ATOM     19  O   UNL     1      -1.131  14.628  19.380  0.00  0.00    +0.000 OA
ATOM     20  C   UNL     1      -0.765  13.286  18.978  0.00  0.00    +0.000 C 
BRANCH  17  21
ATOM     21  C   UNL     1      -3.010  12.302  19.765  0.00  0.00    +0.000 C 
BRANCH  21  22
ATOM     22  C   UNL     1      -3.106  11.727  18.389  0.00  0.00    +0.000 A 
ATOM     23  N   UNL     1      -2.136  11.119  17.736  0.00  0.00    +0.000 NA
ATOM     24  N   UNL     1      -2.617  10.723  16.512  0.00  0.00    +0.000 NA
ATOM     25  C   UNL     1      -3.874  11.091  16.444  0.00  0.00    +0.000 A 
ATOM     26  N   UNL     1      -4.223  11.732  17.592  0.00  0.00    +0.000 N 
ATOM     27  C   UNL     1      -5.519  12.284  17.879  0.00  0.00    +0.000 C 
ENDBRANCH  21  22
ENDBRANCH  17  21
ENDBRANCH  15  17
ENDBRANCH   8  11
BRANCH   5  28
ATOM     28  C   UNL     1       2.515   4.109  20.427  0.00  0.00    +0.000 C 
ATOM     29  F   UNL     1       2.629   4.478  21.733  0.00  0.00    +0.000 F 
ATOM     30  F   UNL     1       1.236   3.665  20.280  0.00  0.00    +0.000 F 
ATOM     31  F   UNL     1       3.315   3.018  20.280  0.00  0.00    +0.000 F 
ENDBRANCH   5  28
BRANCH   1  33
ATOM     32  C   UNL     1       6.456   6.858  17.300  0.00  0.00    +0.000 C 
ATOM     33  C   UNL     1       5.425   5.911  16.641  0.00  0.00    +0.000 C 
BRANCH  33  34
ATOM     34  N   UNL     1       5.952   4.534  16.471  0.00  0.00    +0.000 NA
ATOM     35  C   UNL     1       5.096   3.678  15.620  0.00  0.00    +0.000 C 
ATOM     36  C   UNL     1       5.064   4.050  14.129  0.00  0.00    +0.000 C 
ATOM     37  C   UNL     1       6.446   4.292  13.547  0.00  0.00    +0.000 C 
ATOM     38  C   UNL     1       7.402   5.025  14.465  0.00  0.00    +0.000 C 
ATOM     39  C   UNL     1       7.317   4.493  15.901  0.00  0.00    +0.000 C 
ATOM     40  C   UNL     1       7.010   3.311  12.537  0.00  0.00    +0.000 C 
ATOM     41  C   UNL     1       6.513   4.649  12.075  0.00  0.00    +0.000 C 
ENDBRANCH  33  34
ENDBRANCH   1  33
TORSDOF 7
ENDMDL
MODEL 8
REMARK VINA RESULT:      -9.6      2.789     10.164
REMARK  Name = 
REMARK  9 active torsions:
REMARK  status: ('A' for Active; 'I' for Inactive)
REMARK    1  A    between atoms: C_1  and  C_2
REMARK    2  A    between atoms: C_2  and  C_3
REMARK    3  A    between atoms: C_2  and  N_34
REMARK    4  A    between atoms: C_7  and  C_8
REMARK    5  A    between atoms: N_14  and  C_15
REMARK    6  A    between atoms: C_19  and  C_20
REMARK    7  A    between atoms: C_20  and  C_21
REMARK    8  A    between atoms: C_21  and  C_22
REMARK    9  A    between atoms: N_26  and  C_27
REMARK                            x       y       z     vdW  Elec       q    Type
REMARK                         _______ _______ _______ _____ _____    ______ ____
ROOT
ATOM      1  C   UNL     1       4.107   6.034  17.768  0.00  0.00    +0.000 A 
ATOM      2  C   UNL     1       3.434   7.265  17.789  0.00  0.00    +0.000 A 
ATOM      3  C   UNL     1       2.506   7.484  18.785  0.00  0.00    +0.000 A 
ATOM      4  C   UNL     1       2.187   6.526  19.740  0.00  0.00    +0.000 A 
ATOM      5  C   UNL     1       2.757   5.259  19.693  0.00  0.00    +0.000 A 
ATOM      6  C   UNL     1       3.737   5.031  18.701  0.00  0.00    +0.000 A 
ATOM      7  C   UNL     1       1.288   7.139  20.768  0.00  0.00    +0.000 C 
ATOM      8  N   UNL     1       1.121   8.511  20.302  0.00  0.00    +0.000 N 
ATOM      9  C   UNL     1       1.817   8.739  19.114  0.00  0.00    +0.000 C 
ATOM     10  O   UNL     1       1.939   9.740  18.437  0.00  0.00    +0.000 OA
ENDROOT
BRANCH   8  11
ATOM     11  C   UNL     1       0.371   9.467  21.027  0.00  0.00    +0.000 A 
ATOM     12  C   UNL     1      -0.096   9.212  22.316  0.00  0.00    +0.000 A 
ATOM     13  C   UNL     1      -0.811  10.180  23.021  0.00  0.00    +0.000 A 
ATOM     14  C   UNL     1      -1.114  11.400  22.419  0.00  0.00    +0.000 A 
ATOM     15  C   UNL     1      -0.724  11.687  21.099  0.00  0.00    +0.000 A 
ATOM     16  C   UNL     1       0.062  10.711  20.451  0.00  0.00    +0.000 A 
BRANCH  15  17
ATOM     17  C   UNL     1      -1.190  13.019  20.342  0.00  0.00    +0.000 C 
ATOM     18  C   UNL     1      -2.254  13.931  21.024  0.00  0.00    +0.000 C 
ATOM     19  O   UNL     1      -1.453  15.112  20.742  0.00  0.00    +0.000 OA
ATOM     20  C   UNL     1      -0.288  14.266  20.580  0.00  0.00    +0.000 C 
BRANCH  17  21
ATOM     21  C   UNL     1      -1.463  12.766  18.849  0.00  0.00    +0.000 C 
BRANCH  21  22
ATOM     22  C   UNL     1      -2.664  11.910  18.609  0.00  0.00    +0.000 A 
ATOM     23  N   UNL     1      -3.896  12.180  18.995  0.00  0.00    +0.000 NA
ATOM     24  N   UNL     1      -4.716  11.160  18.576  0.00  0.00    +0.000 NA
ATOM     25  C   UNL     1      -3.970  10.290  17.939  0.00  0.00    +0.000 A 
ATOM     26  N   UNL     1      -2.676  10.712  17.941  0.00  0.00    +0.000 N 
ATOM     27  C   UNL     1      -1.570  10.015  17.342  0.00  0.00    +0.000 C 
ENDBRANCH  21  22
ENDBRANCH  17  21
ENDBRANCH  15  17
ENDBRANCH   8  11
BRANCH   5  28
ATOM     28  C   UNL     1       2.411   4.171  20.675  0.00  0.00    +0.000 C 
ATOM     29  F   UNL     1       1.133   3.718  20.554  0.00  0.00    +0.000 F 
ATOM     30  F   UNL     1       3.206   3.075  20.534  0.00  0.00    +0.000 F 
ATOM     31  F   UNL     1       2.540   4.570  21.969  0.00  0.00    +0.000 F 
ENDBRANCH   5  28
BRANCH   1  33
ATOM     32  C   UNL     1       6.405   6.826  17.585  0.00  0.00    +0.000 C 
ATOM     33  C   UNL     1       5.362   5.914  16.894  0.00  0.00    +0.000 C 
BRANCH  33  34
ATOM     34  N   UNL     1       5.861   4.529  16.707  0.00  0.00    +0.000 NA
ATOM     35  C   UNL     1       5.006   3.711  15.818  0.00  0.00    +0.000 C 
ATOM     36  C   UNL     1       5.020   4.115  14.334  0.00  0.00    +0.000 C 
ATOM     37  C   UNL     1       6.421   4.335  13.791  0.00  0.00    +0.000 C 
ATOM     38  C   UNL     1       7.371   5.026  14.747  0.00  0.00    +0.000 C 
ATOM     39  C   UNL     1       7.239   4.467  16.170  0.00  0.00    +0.000 C 
ATOM     40  C   UNL     1       6.987   3.362  12.775  0.00  0.00    +0.000 C 
ATOM     41  C   UNL     1       6.533   4.720  12.329  0.00  0.00    +0.000 C 
ENDBRANCH  33  34
ENDBRANCH   1  33
TORSDOF 7
ENDMDL
MODEL 9
REMARK VINA RESULT:      -9.6      2.489     10.073
REMARK  Name = 
REMARK  9 active torsions:
REMARK  status: ('A' for Active; 'I' for Inactive)
REMARK    1  A    between atoms: C_1  and  C_2
REMARK    2  A    between atoms: C_2  and  C_3
REMARK    3  A    between atoms: C_2  and  N_34
REMARK    4  A    between atoms: C_7  and  C_8
REMARK    5  A    between atoms: N_14  and  C_15
REMARK    6  A    between atoms: C_19  and  C_20
REMARK    7  A    between atoms: C_20  and  C_21
REMARK    8  A    between atoms: C_21  and  C_22
REMARK    9  A    between atoms: N_26  and  C_27
REMARK                            x       y       z     vdW  Elec       q    Type
REMARK                         _______ _______ _______ _____ _____    ______ ____
ROOT
ATOM      1  C   UNL     1       3.992   6.118  17.628  0.00  0.00    +0.000 A 
ATOM      2  C   UNL     1       3.357   7.367  17.712  0.00  0.00    +0.000 A 
ATOM      3  C   UNL     1       2.486   7.588  18.757  0.00  0.00    +0.000 A 
ATOM      4  C   UNL     1       2.186   6.615  19.705  0.00  0.00    +0.000 A 
ATOM      5  C   UNL     1       2.716   5.334  19.599  0.00  0.00    +0.000 A 
ATOM      6  C   UNL     1       3.639   5.104  18.555  0.00  0.00    +0.000 A 
ATOM      7  C   UNL     1       1.357   7.227  20.790  0.00  0.00    +0.000 C 
ATOM      8  N   UNL     1       1.207   8.614  20.366  0.00  0.00    +0.000 N 
ATOM      9  C   UNL     1       1.851   8.853  19.150  0.00  0.00    +0.000 C 
ATOM     10  O   UNL     1       1.969   9.867  18.491  0.00  0.00    +0.000 OA
ENDROOT
BRANCH   8  11
ATOM     11  C   UNL     1       0.522   9.573  21.149  0.00  0.00    +0.000 A 
ATOM     12  C   UNL     1      -0.240   9.208  22.259  0.00  0.00    +0.000 A 
ATOM     13  C   UNL     1      -0.885  10.173  23.031  0.00  0.00    +0.000 A 
ATOM     14  C   UNL     1      -0.818  11.516  22.668  0.00  0.00    +0.000 A 
ATOM     15  C   UNL     1      -0.118  11.936  21.523  0.00  0.00    +0.000 A 
ATOM     16  C   UNL     1       0.583  10.936  20.815  0.00  0.00    +0.000 A 
BRANCH  15  17
ATOM     17  C   UNL     1      -0.154  13.452  21.008  0.00  0.00    +0.000 C 
ATOM     18  C   UNL     1      -0.796  13.752  19.620  0.00  0.00    +0.000 C 
ATOM     19  O   UNL     1      -1.551  14.859  20.186  0.00  0.00    +0.000 OA
ATOM     20  C   UNL     1      -1.367  14.292  21.506  0.00  0.00    +0.000 C 
BRANCH  17  21
ATOM     21  C   UNL     1       1.190  14.168  21.232  0.00  0.00    +0.000 C 
BRANCH  21  22
ATOM     22  C   UNL     1       1.977  14.345  19.974  0.00  0.00    +0.000 A 
ATOM     23  N   UNL     1       2.686  13.414  19.368  0.00  0.00    +0.000 NA
ATOM     24  N   UNL     1       3.249  13.961  18.241  0.00  0.00    +0.000 NA
ATOM     25  C   UNL     1       2.868  15.214  18.178  0.00  0.00    +0.000 A 
ATOM     26  N   UNL     1       2.078  15.504  19.246  0.00  0.00    +0.000 N 
ATOM     27  C   UNL     1       1.478  16.782  19.518  0.00  0.00    +0.000 C 
ENDBRANCH  21  22
ENDBRANCH  17  21
ENDBRANCH  15  17
ENDBRANCH   8  11
BRANCH   5  28
ATOM     28  C   UNL     1       2.387   4.232  20.572  0.00  0.00    +0.000 C 
ATOM     29  F   UNL     1       3.169   3.127  20.424  0.00  0.00    +0.000 F 
ATOM     30  F   UNL     1       2.541   4.623  21.867  0.00  0.00    +0.000 F 
ATOM     31  F   UNL     1       1.103   3.796  20.456  0.00  0.00    +0.000 F 
ENDBRANCH   5  28
BRANCH   1  33
ATOM     32  C   UNL     1       6.228   7.003  17.235  0.00  0.00    +0.000 C 
ATOM     33  C   UNL     1       5.198   5.986  16.689  0.00  0.00    +0.000 C 
BRANCH  33  34
ATOM     34  N   UNL     1       5.760   4.615  16.587  0.00  0.00    +0.000 NA
ATOM     35  C   UNL     1       4.954   3.712  15.736  0.00  0.00    +0.000 C 
ATOM     36  C   UNL     1       4.972   4.031  14.233  0.00  0.00    +0.000 C 
ATOM     37  C   UNL     1       6.369   4.283  13.694  0.00  0.00    +0.000 C 
ATOM     38  C   UNL     1       7.274   5.068  14.621  0.00  0.00    +0.000 C 
ATOM     39  C   UNL     1       7.146   4.585  16.071  0.00  0.00    +0.000 C 
ATOM     40  C   UNL     1       6.991   3.280  12.741  0.00  0.00    +0.000 C 
ATOM     41  C   UNL     1       6.485   4.590  12.214  0.00  0.00    +0.000 C 
ENDBRANCH  33  34
ENDBRANCH   1  33
TORSDOF 7
ENDMDL
