MODEL 1
REMARK VINA RESULT:      -7.7      0.000      0.000
REMARK  Name = 
REMARK  8 active torsions:
REMARK  status: ('A' for Active; 'I' for Inactive)
REMARK    1  A    between atoms: C_1  and  C_2
REMARK    2  A    between atoms: C_2  and  C_3
REMARK    3  A    between atoms: C_2  and  C_10
REMARK    4  A    between atoms: C_3  and  C_4
REMARK    5  A    between atoms: N_8  and  C_9
REMARK    6  A    between atoms: C_14  and  N_15
REMARK    7  A    between atoms: C_16  and  C_18
REMARK    8  A    between atoms: N_21  and  C_22
REMARK                            x       y       z     vdW  Elec       q    Type
REMARK                         _______ _______ _______ _____ _____    ______ ____
ROOT
ATOM      1  C   UNL     1       4.159   5.326  17.190  0.00  0.00    +0.000 A 
ATOM      2  C   UNL     1       4.714   4.325  16.381  0.00  0.00    +0.000 A 
ATOM      3  C   UNL     1       6.017   4.446  15.901  0.00  0.00    +0.000 A 
ATOM      4  C   UNL     1       6.778   5.575  16.209  0.00  0.00    +0.000 A 
ATOM      5  C   UNL     1       6.256   6.587  17.012  0.00  0.00    +0.000 A 
ATOM      6  C   UNL     1       4.959   6.440  17.526  0.00  0.00    +0.000 A 
ENDROOT
BRANCH   5   7
ATOM      7  N   UNL     1       6.975   7.756  17.337  0.00  0.00    +0.000 N 
ATOM      8  C   UNL     1       7.996   7.876  18.265  0.00  0.00    +0.000 C 
ATOM      9  O   UNL     1       8.469   6.969  18.945  0.00  0.00    +0.000 OA
ATOM     10  H   UNL     1       6.801   8.606  16.806  0.00  0.00    +0.000 HD
BRANCH   8  11
ATOM     11  C   UNL     1       8.531   9.243  18.366  0.00  0.00    +0.000 A 
ATOM     12  C   UNL     1       8.264  10.315  17.473  0.00  0.00    +0.000 A 
ATOM     13  C   UNL     1       8.962  11.389  17.967  0.00  0.00    +0.000 A 
ATOM     14  N   UNL     1       9.599  10.938  19.083  0.00  0.00    +0.000 N 
ATOM     15  C   UNL     1      10.462  11.701  19.949  0.00  0.00    +0.000 C 
ATOM     16  N   UNL     1       9.359   9.636  19.358  0.00  0.00    +0.000 NA
ENDBRANCH   8  11
ENDBRANCH   5   7
BRANCH   1  18
ATOM     17  C   UNL     1       2.449   6.027  18.933  0.00  0.00    +0.000 C 
ATOM     18  C   UNL     1       2.727   5.160  17.696  0.00  0.00    +0.000 C 
BRANCH  18  19
ATOM     19  C   UNL     1       2.414   3.661  17.885  0.00  0.00    +0.000 C 
BRANCH  19  20
ATOM     20  C   UNL     1       2.166   3.275  19.308  0.00  0.00    +0.000 A 
ATOM     21  N   UNL     1       1.011   3.359  19.934  0.00  0.00    +0.000 NA
ATOM     22  N   UNL     1       1.186   2.912  21.223  0.00  0.00    +0.000 NA
ATOM     23  C   UNL     1       2.448   2.573  21.357  0.00  0.00    +0.000 A 
ATOM     24  N   UNL     1       3.102   2.786  20.184  0.00  0.00    +0.000 N 
ATOM     25  C   UNL     1       4.499   2.550  19.944  0.00  0.00    +0.000 C 
ENDBRANCH  19  20
ENDBRANCH  18  19
ENDBRANCH   1  18
TORSDOF 5
ENDMDL
MODEL 2
REMARK VINA RESULT:      -7.6      0.841      1.270
REMARK  Name = 
REMARK  8 active torsions:
REMARK  status: ('A' for Active; 'I' for Inactive)
REMARK    1  A    between atoms: C_1  and  C_2
REMARK    2  A    between atoms: C_2  and  C_3
REMARK    3  A    between atoms: C_2  and  C_10
REMARK    4  A    between atoms: C_3  and  C_4
REMARK    5  A    between atoms: N_8  and  C_9
REMARK    6  A    between atoms: C_14  and  N_15
REMARK    7  A    between atoms: C_16  and  C_18
REMARK    8  A    between atoms: N_21  and  C_22
REMARK                            x       y       z     vdW  Elec       q    Type
REMARK                         _______ _______ _______ _____ _____    ______ ____
ROOT
ATOM      1  C   UNL     1       4.635   4.695  16.960  0.00  0.00    +0.000 A 
ATOM      2  C   UNL     1       5.161   3.917  15.919  0.00  0.00    +0.000 A 
ATOM      3  C   UNL     1       6.333   4.302  15.271  0.00  0.00    +0.000 A 
ATOM      4  C   UNL     1       6.987   5.478  15.642  0.00  0.00    +0.000 A 
ATOM      5  C   UNL     1       6.492   6.272  16.674  0.00  0.00    +0.000 A 
ATOM      6  C   UNL     1       5.334   5.858  17.350  0.00  0.00    +0.000 A 
ENDROOT
BRANCH   5   7
ATOM      7  N   UNL     1       7.102   7.479  17.075  0.00  0.00    +0.000 N 
ATOM      8  C   UNL     1       7.952   7.665  18.153  0.00  0.00    +0.000 C 
ATOM      9  O   UNL     1       8.342   6.795  18.928  0.00  0.00    +0.000 OA
ATOM     10  H   UNL     1       6.985   8.307  16.497  0.00  0.00    +0.000 HD
BRANCH   8  11
ATOM     11  C   UNL     1       8.412   9.055  18.296  0.00  0.00    +0.000 A 
ATOM     12  C   UNL     1       8.056  10.146  17.459  0.00  0.00    +0.000 A 
ATOM     13  C   UNL     1       8.707  11.237  17.978  0.00  0.00    +0.000 A 
ATOM     14  N   UNL     1       9.403  10.779  19.055  0.00  0.00    +0.000 N 
ATOM     15  C   UNL     1      10.248  11.554  19.929  0.00  0.00    +0.000 C 
ATOM     16  N   UNL     1       9.247   9.454  19.281  0.00  0.00    +0.000 NA
ENDBRANCH   8  11
ENDBRANCH   5   7
BRANCH   1  18
ATOM     17  C   UNL     1       2.758   5.337  18.547  0.00  0.00    +0.000 C 
ATOM     18  C   UNL     1       3.347   4.241  17.645  0.00  0.00    +0.000 C 
BRANCH  18  19
ATOM     19  C   UNL     1       3.583   2.892  18.354  0.00  0.00    +0.000 C 
BRANCH  19  20
ATOM     20  C   UNL     1       2.926   2.794  19.694  0.00  0.00    +0.000 A 
ATOM     21  N   UNL     1       3.540   2.871  20.855  0.00  0.00    +0.000 NA
ATOM     22  N   UNL     1       2.601   2.736  21.850  0.00  0.00    +0.000 NA
ATOM     23  C   UNL     1       1.433   2.571  21.272  0.00  0.00    +0.000 A 
ATOM     24  N   UNL     1       1.587   2.596  19.922  0.00  0.00    +0.000 N 
ATOM     25  C   UNL     1       0.540   2.432  18.951  0.00  0.00    +0.000 C 
ENDBRANCH  19  20
ENDBRANCH  18  19
ENDBRANCH   1  18
TORSDOF 5
ENDMDL
MODEL 3
REMARK VINA RESULT:      -7.5      3.297      6.531
REMARK  Name = 
REMARK  8 active torsions:
REMARK  status: ('A' for Active; 'I' for Inactive)
REMARK    1  A    between atoms: C_1  and  C_2
REMARK    2  A    between atoms: C_2  and  C_3
REMARK    3  A    between atoms: C_2  and  C_10
REMARK    4  A    between atoms: C_3  and  C_4
REMARK    5  A    between atoms: N_8  and  C_9
REMARK    6  A    between atoms: C_14  and  N_15
REMARK    7  A    between atoms: C_16  and  C_18
REMARK    8  A    between atoms: N_21  and  C_22
REMARK                            x       y       z     vdW  Elec       q    Type
REMARK                         _______ _______ _______ _____ _____    ______ ____
ROOT
ATOM      1  C   UNL     1       4.396   4.639  16.798  0.00  0.00    +0.000 A 
ATOM      2  C   UNL     1       3.660   3.446  16.795  0.00  0.00    +0.000 A 
ATOM      3  C   UNL     1       2.424   3.375  17.435  0.00  0.00    +0.000 A 
ATOM      4  C   UNL     1       1.913   4.490  18.101  0.00  0.00    +0.000 A 
ATOM      5  C   UNL     1       2.619   5.692  18.121  0.00  0.00    +0.000 A 
ATOM      6  C   UNL     1       3.843   5.768  17.440  0.00  0.00    +0.000 A 
ENDROOT
BRANCH   5   7
ATOM      7  N   UNL     1       2.157   6.842  18.796  0.00  0.00    +0.000 N 
ATOM      8  C   UNL     1       1.881   6.959  20.149  0.00  0.00    +0.000 C 
ATOM      9  O   UNL     1       2.021   6.081  20.997  0.00  0.00    +0.000 OA
ATOM     10  H   UNL     1       2.072   7.715  18.283  0.00  0.00    +0.000 HD
BRANCH   8  11
ATOM     11  C   UNL     1       1.409   8.299  20.531  0.00  0.00    +0.000 A 
ATOM     12  C   UNL     1       1.091   8.732  21.846  0.00  0.00    +0.000 A 
ATOM     13  C   UNL     1       0.712  10.045  21.720  0.00  0.00    +0.000 A 
ATOM     14  N   UNL     1       0.806  10.335  20.393  0.00  0.00    +0.000 N 
ATOM     15  C   UNL     1       0.507  11.596  19.763  0.00  0.00    +0.000 C 
ATOM     16  N   UNL     1       1.229   9.296  19.637  0.00  0.00    +0.000 NA
ENDBRANCH   8  11
ENDBRANCH   5   7
BRANCH   1  18
ATOM     17  C   UNL     1       5.869   3.574  15.024  0.00  0.00    +0.000 C 
ATOM     18  C   UNL     1       5.747   4.677  16.087  0.00  0.00    +0.000 C 
BRANCH  18  19
ATOM     19  C   UNL     1       6.884   4.685  17.130  0.00  0.00    +0.000 C 
BRANCH  19  20
ATOM     20  C   UNL     1       7.371   6.054  17.477  0.00  0.00    +0.000 A 
ATOM     21  N   UNL     1       7.376   7.094  16.669  0.00  0.00    +0.000 NA
ATOM     22  N   UNL     1       7.898   8.168  17.350  0.00  0.00    +0.000 NA
ATOM     23  C   UNL     1       8.210   7.757  18.558  0.00  0.00    +0.000 A 
ATOM     24  N   UNL     1       7.901   6.439  18.684  0.00  0.00    +0.000 N 
ATOM     25  C   UNL     1       8.112   5.631  19.854  0.00  0.00    +0.000 C 
ENDBRANCH  19  20
ENDBRANCH  18  19
ENDBRANCH   1  18
TORSDOF 5
ENDMDL
MODEL 4
REMARK VINA RESULT:      -7.5      3.177      6.469
REMARK  Name = 
REMARK  8 active torsions:
REMARK  status: ('A' for Active; 'I' for Inactive)
REMARK    1  A    between atoms: C_1  and  C_2
REMARK    2  A    between atoms: C_2  and  C_3
REMARK    3  A    between atoms: C_2  and  C_10
REMARK    4  A    between atoms: C_3  and  C_4
REMARK    5  A    between atoms: N_8  and  C_9
REMARK    6  A    between atoms: C_14  and  N_15
REMARK    7  A    between atoms: C_16  and  C_18
REMARK    8  A    between atoms: N_21  and  C_22
REMARK                            x       y       z     vdW  Elec       q    Type
REMARK                         _______ _______ _______ _____ _____    ______ ____
ROOT
ATOM      1  C   UNL     1       4.445   4.659  16.801  0.00  0.00    +0.000 A 
ATOM      2  C   UNL     1       3.778   3.426  16.809  0.00  0.00    +0.000 A 
ATOM      3  C   UNL     1       2.568   3.280  17.485  0.00  0.00    +0.000 A 
ATOM      4  C   UNL     1       2.015   4.359  18.176  0.00  0.00    +0.000 A 
ATOM      5  C   UNL     1       2.651   5.599  18.186  0.00  0.00    +0.000 A 
ATOM      6  C   UNL     1       3.848   5.750  17.470  0.00  0.00    +0.000 A 
ENDROOT
BRANCH   5   7
ATOM      7  N   UNL     1       2.146   6.716  18.884  0.00  0.00    +0.000 N 
ATOM      8  C   UNL     1       2.098   8.026  18.438  0.00  0.00    +0.000 C 
ATOM      9  O   UNL     1       2.465   8.432  17.337  0.00  0.00    +0.000 OA
ATOM     10  H   UNL     1       1.698   6.573  19.785  0.00  0.00    +0.000 HD
BRANCH   8  11
ATOM     11  C   UNL     1       1.513   8.953  19.419  0.00  0.00    +0.000 A 
ATOM     12  C   UNL     1       1.138  10.302  19.177  0.00  0.00    +0.000 A 
ATOM     13  C   UNL     1       0.632  10.762  20.367  0.00  0.00    +0.000 A 
ATOM     14  N   UNL     1       0.725   9.722  21.240  0.00  0.00    +0.000 N 
ATOM     15  C   UNL     1       0.323   9.719  22.624  0.00  0.00    +0.000 C 
ATOM     16  N   UNL     1       1.256   8.602  20.698  0.00  0.00    +0.000 NA
ENDBRANCH   8  11
ENDBRANCH   5   7
BRANCH   1  18
ATOM     17  C   UNL     1       5.878   3.758  14.908  0.00  0.00    +0.000 C 
ATOM     18  C   UNL     1       5.770   4.779  16.051  0.00  0.00    +0.000 C 
BRANCH  18  19
ATOM     19  C   UNL     1       6.941   4.740  17.054  0.00  0.00    +0.000 C 
BRANCH  19  20
ATOM     20  C   UNL     1       7.437   6.092  17.452  0.00  0.00    +0.000 A 
ATOM     21  N   UNL     1       7.527   7.139  16.660  0.00  0.00    +0.000 NA
ATOM     22  N   UNL     1       8.026   8.192  17.390  0.00  0.00    +0.000 NA
ATOM     23  C   UNL     1       8.238   7.761  18.612  0.00  0.00    +0.000 A 
ATOM     24  N   UNL     1       7.887   6.450  18.699  0.00  0.00    +0.000 N 
ATOM     25  C   UNL     1       7.991   5.625  19.871  0.00  0.00    +0.000 C 
ENDBRANCH  19  20
ENDBRANCH  18  19
ENDBRANCH   1  18
TORSDOF 5
ENDMDL
MODEL 5
REMARK VINA RESULT:      -7.5      3.348      6.560
REMARK  Name = 
REMARK  8 active torsions:
REMARK  status: ('A' for Active; 'I' for Inactive)
REMARK    1  A    between atoms: C_1  and  C_2
REMARK    2  A    between atoms: C_2  and  C_3
REMARK    3  A    between atoms: C_2  and  C_10
REMARK    4  A    between atoms: C_3  and  C_4
REMARK    5  A    between atoms: N_8  and  C_9
REMARK    6  A    between atoms: C_14  and  N_15
REMARK    7  A    between atoms: C_16  and  C_18
REMARK    8  A    between atoms: N_21  and  C_22
REMARK                            x       y       z     vdW  Elec       q    Type
REMARK                         _______ _______ _______ _____ _____    ______ ____
ROOT
ATOM      1  C   UNL     1       4.282   4.753  16.895  0.00  0.00    +0.000 A 
ATOM      2  C   UNL     1       3.598   3.533  16.801  0.00  0.00    +0.000 A 
ATOM      3  C   UNL     1       2.418   3.327  17.513  0.00  0.00    +0.000 A 
ATOM      4  C   UNL     1       1.913   4.330  18.342  0.00  0.00    +0.000 A 
ATOM      5  C   UNL     1       2.567   5.555  18.457  0.00  0.00    +0.000 A 
ATOM      6  C   UNL     1       3.732   5.771  17.706  0.00  0.00    +0.000 A 
ENDROOT
BRANCH   5   7
ATOM      7  N   UNL     1       2.111   6.594  19.295  0.00  0.00    +0.000 N 
ATOM      8  C   UNL     1       1.928   7.923  18.950  0.00  0.00    +0.000 C 
ATOM      9  O   UNL     1       2.105   8.415  17.838  0.00  0.00    +0.000 OA
ATOM     10  H   UNL     1       1.810   6.370  20.239  0.00  0.00    +0.000 HD
BRANCH   8  11
ATOM     11  C   UNL     1       1.445   8.751  20.066  0.00  0.00    +0.000 A 
ATOM     12  C   UNL     1       1.403   8.371  21.434  0.00  0.00    +0.000 A 
ATOM     13  C   UNL     1       0.894   9.456  22.102  0.00  0.00    +0.000 A 
ATOM     14  N   UNL     1       0.654  10.401  21.152  0.00  0.00    +0.000 N 
ATOM     15  C   UNL     1       0.112  11.719  21.365  0.00  0.00    +0.000 C 
ATOM     16  N   UNL     1       0.978  10.007  19.899  0.00  0.00    +0.000 NA
ENDBRANCH   8  11
ENDBRANCH   5   7
BRANCH   1  18
ATOM     17  C   UNL     1       5.644   4.001  14.888  0.00  0.00    +0.000 C 
ATOM     18  C   UNL     1       5.573   4.941  16.101  0.00  0.00    +0.000 C 
BRANCH  18  19
ATOM     19  C   UNL     1       6.785   4.848  17.050  0.00  0.00    +0.000 C 
BRANCH  19  20
ATOM     20  C   UNL     1       7.329   6.177  17.463  0.00  0.00    +0.000 A 
ATOM     21  N   UNL     1       7.351   7.261  16.716  0.00  0.00    +0.000 NA
ATOM     22  N   UNL     1       7.927   8.276  17.444  0.00  0.00    +0.000 NA
ATOM     23  C   UNL     1       8.252   7.785  18.618  0.00  0.00    +0.000 A 
ATOM     24  N   UNL     1       7.901   6.473  18.676  0.00  0.00    +0.000 N 
ATOM     25  C   UNL     1       8.110   5.592  19.792  0.00  0.00    +0.000 C 
ENDBRANCH  19  20
ENDBRANCH  18  19
ENDBRANCH   1  18
TORSDOF 5
ENDMDL
MODEL 6
REMARK VINA RESULT:      -7.5      0.678      1.294
REMARK  Name = 
REMARK  8 active torsions:
REMARK  status: ('A' for Active; 'I' for Inactive)
REMARK    1  A    between atoms: C_1  and  C_2
REMARK    2  A    between atoms: C_2  and  C_3
REMARK    3  A    between atoms: C_2  and  C_10
REMARK    4  A    between atoms: C_3  and  C_4
REMARK    5  A    between atoms: N_8  and  C_9
REMARK    6  A    between atoms: C_14  and  N_15
REMARK    7  A    between atoms: C_16  and  C_18
REMARK    8  A    between atoms: N_21  and  C_22
REMARK                            x       y       z     vdW  Elec       q    Type
REMARK                         _______ _______ _______ _____ _____    ______ ____
ROOT
ATOM      1  C   UNL     1       4.266   5.421  17.103  0.00  0.00    +0.000 A 
ATOM      2  C   UNL     1       4.795   4.500  16.187  0.00  0.00    +0.000 A 
ATOM      3  C   UNL     1       6.064   4.692  15.644  0.00  0.00    +0.000 A 
ATOM      4  C   UNL     1       6.816   5.814  15.994  0.00  0.00    +0.000 A 
ATOM      5  C   UNL     1       6.320   6.747  16.903  0.00  0.00    +0.000 A 
ATOM      6  C   UNL     1       5.059   6.527  17.477  0.00  0.00    +0.000 A 
ENDROOT
BRANCH   5   7
ATOM      7  N   UNL     1       7.030   7.908  17.276  0.00  0.00    +0.000 N 
ATOM      8  C   UNL     1       8.032   8.001  18.228  0.00  0.00    +0.000 C 
ATOM      9  O   UNL     1       8.492   7.075  18.891  0.00  0.00    +0.000 OA
ATOM     10  H   UNL     1       6.866   8.772  16.767  0.00  0.00    +0.000 HD
BRANCH   8  11
ATOM     11  C   UNL     1       8.563   9.365  18.379  0.00  0.00    +0.000 A 
ATOM     12  C   UNL     1       8.300  10.466  17.522  0.00  0.00    +0.000 A 
ATOM     13  C   UNL     1       8.991  11.524  18.057  0.00  0.00    +0.000 A 
ATOM     14  N   UNL     1       9.621  11.037  19.162  0.00  0.00    +0.000 N 
ATOM     15  C   UNL     1      10.476  11.772  20.061  0.00  0.00    +0.000 C 
ATOM     16  N   UNL     1       9.383   9.726  19.391  0.00  0.00    +0.000 NA
ENDBRANCH   8  11
ENDBRANCH   5   7
BRANCH   1  18
ATOM     17  C   UNL     1       2.627   5.984  18.960  0.00  0.00    +0.000 C 
ATOM     18  C   UNL     1       2.871   5.177  17.675  0.00  0.00    +0.000 C 
BRANCH  18  19
ATOM     19  C   UNL     1       2.625   3.661  17.818  0.00  0.00    +0.000 C 
BRANCH  19  20
ATOM     20  C   UNL     1       3.178   3.079  19.079  0.00  0.00    +0.000 A 
ATOM     21  N   UNL     1       4.425   2.702  19.267  0.00  0.00    +0.000 NA
ATOM     22  N   UNL     1       4.543   2.221  20.549  0.00  0.00    +0.000 NA
ATOM     23  C   UNL     1       3.360   2.307  21.114  0.00  0.00    +0.000 A 
ATOM     24  N   UNL     1       2.472   2.836  20.231  0.00  0.00    +0.000 N 
ATOM     25  C   UNL     1       1.075   3.068  20.478  0.00  0.00    +0.000 C 
ENDBRANCH  19  20
ENDBRANCH  18  19
ENDBRANCH   1  18
TORSDOF 5
ENDMDL
MODEL 7
REMARK VINA RESULT:      -7.5      1.009      1.660
REMARK  Name = 
REMARK  8 active torsions:
REMARK  status: ('A' for Active; 'I' for Inactive)
REMARK    1  A    between atoms: C_1  and  C_2
REMARK    2  A    between atoms: C_2  and  C_3
REMARK    3  A    between atoms: C_2  and  C_10
REMARK    4  A    between atoms: C_3  and  C_4
REMARK    5  A    between atoms: N_8  and  C_9
REMARK    6  A    between atoms: C_14  and  N_15
REMARK    7  A    between atoms: C_16  and  C_18
REMARK    8  A    between atoms: N_21  and  C_22
REMARK                            x       y       z     vdW  Elec       q    Type
REMARK                         _______ _______ _______ _____ _____    ______ ____
ROOT
ATOM      1  C   UNL     1       4.275   5.471  17.082  0.00  0.00    +0.000 A 
ATOM      2  C   UNL     1       4.828   4.551  16.181  0.00  0.00    +0.000 A 
ATOM      3  C   UNL     1       6.102   4.756  15.653  0.00  0.00    +0.000 A 
ATOM      4  C   UNL     1       6.834   5.891  16.004  0.00  0.00    +0.000 A 
ATOM      5  C   UNL     1       6.313   6.824  16.899  0.00  0.00    +0.000 A 
ATOM      6  C   UNL     1       5.048   6.591  17.458  0.00  0.00    +0.000 A 
ENDROOT
BRANCH   5   7
ATOM      7  N   UNL     1       7.002   7.997  17.271  0.00  0.00    +0.000 N 
ATOM      8  C   UNL     1       8.028   8.103  18.196  0.00  0.00    +0.000 C 
ATOM      9  O   UNL     1       8.533   7.178  18.828  0.00  0.00    +0.000 OA
ATOM     10  H   UNL     1       6.799   8.865  16.782  0.00  0.00    +0.000 HD
BRANCH   8  11
ATOM     11  C   UNL     1       8.526   9.478  18.355  0.00  0.00    +0.000 A 
ATOM     12  C   UNL     1       9.467   9.921  19.322  0.00  0.00    +0.000 A 
ATOM     13  C   UNL     1       9.636  11.262  19.085  0.00  0.00    +0.000 A 
ATOM     14  N   UNL     1       8.820  11.561  18.037  0.00  0.00    +0.000 N 
ATOM     15  C   UNL     1       8.645  12.853  17.422  0.00  0.00    +0.000 C 
ATOM     16  N   UNL     1       8.129  10.499  17.565  0.00  0.00    +0.000 NA
ENDBRANCH   8  11
ENDBRANCH   5   7
BRANCH   1  18
ATOM     17  C   UNL     1       2.612   6.009  18.924  0.00  0.00    +0.000 C 
ATOM     18  C   UNL     1       2.876   5.213  17.637  0.00  0.00    +0.000 C 
BRANCH  18  19
ATOM     19  C   UNL     1       2.640   3.694  17.768  0.00  0.00    +0.000 C 
BRANCH  19  20
ATOM     20  C   UNL     1       3.198   3.106  19.023  0.00  0.00    +0.000 A 
ATOM     21  N   UNL     1       4.450   2.741  19.208  0.00  0.00    +0.000 NA
ATOM     22  N   UNL     1       4.572   2.247  20.485  0.00  0.00    +0.000 NA
ATOM     23  C   UNL     1       3.388   2.314  21.050  0.00  0.00    +0.000 A 
ATOM     24  N   UNL     1       2.494   2.841  20.172  0.00  0.00    +0.000 N 
ATOM     25  C   UNL     1       1.095   3.055  20.419  0.00  0.00    +0.000 C 
ENDBRANCH  19  20
ENDBRANCH  18  19
ENDBRANCH   1  18
TORSDOF 5
ENDMDL
MODEL 8
REMARK VINA RESULT:      -7.4      3.784      5.164
REMARK  Name = 
REMARK  8 active torsions:
REMARK  status: ('A' for Active; 'I' for Inactive)
REMARK    1  A    between atoms: C_1  and  C_2
REMARK    2  A    between atoms: C_2  and  C_3
REMARK    3  A    between atoms: C_2  and  C_10
REMARK    4  A    between atoms: C_3  and  C_4
REMARK    5  A    between atoms: N_8  and  C_9
REMARK    6  A    between atoms: C_14  and  N_15
REMARK    7  A    between atoms: C_16  and  C_18
REMARK    8  A    between atoms: N_21  and  C_22
REMARK                            x       y       z     vdW  Elec       q    Type
REMARK                         _______ _______ _______ _____ _____    ______ ____
ROOT
ATOM      1  C   UNL     1       6.403   5.917  17.200  0.00  0.00    +0.000 A 
ATOM      2  C   UNL     1       6.961   5.146  18.230  0.00  0.00    +0.000 A 
ATOM      3  C   UNL     1       7.899   5.700  19.100  0.00  0.00    +0.000 A 
ATOM      4  C   UNL     1       8.305   7.026  18.943  0.00  0.00    +0.000 A 
ATOM      5  C   UNL     1       7.768   7.820  17.931  0.00  0.00    +0.000 A 
ATOM      6  C   UNL     1       6.795   7.268  17.084  0.00  0.00    +0.000 A 
ENDROOT
BRANCH   5   7
ATOM      7  N   UNL     1       8.159   9.158  17.716  0.00  0.00    +0.000 N 
ATOM      8  C   UNL     1       8.881   9.964  18.581  0.00  0.00    +0.000 C 
ATOM      9  O   UNL     1       9.331   9.633  19.676  0.00  0.00    +0.000 OA
ATOM     10  H   UNL     1       7.968   9.590  16.816  0.00  0.00    +0.000 HD
BRANCH   8  11
ATOM     11  C   UNL     1       9.116  11.317  18.054  0.00  0.00    +0.000 A 
ATOM     12  C   UNL     1       8.118  12.249  17.664  0.00  0.00    +0.000 A 
ATOM     13  C   UNL     1       8.799  13.368  17.253  0.00  0.00    +0.000 A 
ATOM     14  N   UNL     1      10.121  13.074  17.397  0.00  0.00    +0.000 N 
ATOM     15  C   UNL     1      11.234  13.937  17.090  0.00  0.00    +0.000 C 
ATOM     16  N   UNL     1      10.353  11.834  17.884  0.00  0.00    +0.000 NA
ENDBRANCH   8  11
ENDBRANCH   5   7
BRANCH   1  18
ATOM     17  C   UNL     1       4.101   4.861  17.010  0.00  0.00    +0.000 C 
ATOM     18  C   UNL     1       5.380   5.274  16.266  0.00  0.00    +0.000 C 
BRANCH  18  19
ATOM     19  C   UNL     1       6.048   4.135  15.468  0.00  0.00    +0.000 C 
BRANCH  19  20
ATOM     20  C   UNL     1       6.791   4.604  14.259  0.00  0.00    +0.000 A 
ATOM     21  N   UNL     1       7.762   5.493  14.253  0.00  0.00    +0.000 NA
ATOM     22  N   UNL     1       8.188   5.658  12.956  0.00  0.00    +0.000 NA
ATOM     23  C   UNL     1       7.461   4.871  12.197  0.00  0.00    +0.000 A 
ATOM     24  N   UNL     1       6.569   4.193  12.968  0.00  0.00    +0.000 N 
ATOM     25  C   UNL     1       5.591   3.251  12.496  0.00  0.00    +0.000 C 
ENDBRANCH  19  20
ENDBRANCH  18  19
ENDBRANCH   1  18
TORSDOF 5
ENDMDL
MODEL 9
REMARK VINA RESULT:      -7.2      5.870      7.407
REMARK  Name = 
REMARK  8 active torsions:
REMARK  status: ('A' for Active; 'I' for Inactive)
REMARK    1  A    between atoms: C_1  and  C_2
REMARK    2  A    between atoms: C_2  and  C_3
REMARK    3  A    between atoms: C_2  and  C_10
REMARK    4  A    between atoms: C_3  and  C_4
REMARK    5  A    between atoms: N_8  and  C_9
REMARK    6  A    between atoms: C_14  and  N_15
REMARK    7  A    between atoms: C_16  and  C_18
REMARK    8  A    between atoms: N_21  and  C_22
REMARK                            x       y       z     vdW  Elec       q    Type
REMARK                         _______ _______ _______ _____ _____    ______ ____
ROOT
ATOM      1  C   UNL     1       2.092   7.565  19.643  0.00  0.00    +0.000 A 
ATOM      2  C   UNL     1       2.311   7.890  18.296  0.00  0.00    +0.000 A 
ATOM      3  C   UNL     1       1.824   9.084  17.769  0.00  0.00    +0.000 A 
ATOM      4  C   UNL     1       1.097   9.963  18.572  0.00  0.00    +0.000 A 
ATOM      5  C   UNL     1       0.863   9.671  19.915  0.00  0.00    +0.000 A 
ATOM      6  C   UNL     1       1.391   8.487  20.451  0.00  0.00    +0.000 A 
ENDROOT
BRANCH   5   7
ATOM      7  N   UNL     1       0.118  10.514  20.765  0.00  0.00    +0.000 N 
ATOM      8  C   UNL     1       0.523  11.725  21.302  0.00  0.00    +0.000 C 
ATOM      9  O   UNL     1       1.599  12.284  21.101  0.00  0.00    +0.000 OA
ATOM     10  H   UNL     1      -0.848  10.276  20.974  0.00  0.00    +0.000 HD
BRANCH   8  11
ATOM     11  C   UNL     1      -0.496  12.351  22.158  0.00  0.00    +0.000 A 
ATOM     12  C   UNL     1      -1.828  11.894  22.345  0.00  0.00    +0.000 A 
ATOM     13  C   UNL     1      -2.400  12.776  23.228  0.00  0.00    +0.000 A 
ATOM     14  N   UNL     1      -1.435  13.692  23.518  0.00  0.00    +0.000 N 
ATOM     15  C   UNL     1      -1.559  14.824  24.402  0.00  0.00    +0.000 C 
ATOM     16  N   UNL     1      -0.261  13.465  22.886  0.00  0.00    +0.000 NA
ENDBRANCH   8  11
ENDBRANCH   5   7
BRANCH   1  18
ATOM     17  C   UNL     1       3.790   5.703  19.322  0.00  0.00    +0.000 C 
ATOM     18  C   UNL     1       2.640   6.247  20.184  0.00  0.00    +0.000 C 
BRANCH  18  19
ATOM     19  C   UNL     1       1.481   5.251  20.401  0.00  0.00    +0.000 C 
BRANCH  19  20
ATOM     20  C   UNL     1       1.628   3.981  19.627  0.00  0.00    +0.000 A 
ATOM     21  N   UNL     1       1.263   3.800  18.375  0.00  0.00    +0.000 NA
ATOM     22  N   UNL     1       1.560   2.504  18.022  0.00  0.00    +0.000 NA
ATOM     23  C   UNL     1       2.091   1.920  19.071  0.00  0.00    +0.000 A 
ATOM     24  N   UNL     1       2.151   2.804  20.103  0.00  0.00    +0.000 N 
ATOM     25  C   UNL     1       2.655   2.530  21.420  0.00  0.00    +0.000 C 
ENDBRANCH  19  20
ENDBRANCH  18  19
ENDBRANCH   1  18
TORSDOF 5
ENDMDL
