MODEL 1
REMARK VINA RESULT:     -10.2      0.000      0.000
REMARK  Name = 
REMARK  9 active torsions:
REMARK  status: ('A' for Active; 'I' for Inactive)
REMARK    1  A    between atoms: C_1  and  C_2
REMARK    2  A    between atoms: C_2  and  C_3
REMARK    3  A    between atoms: C_2  and  N_36
REMARK    4  A    between atoms: C_7  and  C_8
REMARK    5  A    between atoms: N_14  and  C_15
REMARK    6  A    between atoms: C_19  and  C_20
REMARK    7  A    between atoms: C_20  and  C_21
REMARK    8  A    between atoms: C_21  and  C_24
REMARK    9  A    between atoms: N_28  and  C_29
REMARK                            x       y       z     vdW  Elec       q    Type
REMARK                         _______ _______ _______ _____ _____    ______ ____
ROOT
ATOM      1  C   UNL     1       0.724  11.852  19.750  0.00  0.00    +0.000 A 
ATOM      2  C   UNL     1       1.315  10.975  18.838  0.00  0.00    +0.000 A 
ATOM      3  C   UNL     1       1.453   9.660  19.212  0.00  0.00    +0.000 A 
ATOM      4  C   UNL     1       1.032   9.166  20.440  0.00  0.00    +0.000 A 
ATOM      5  C   UNL     1       0.435  10.007  21.376  0.00  0.00    +0.000 A 
ATOM      6  C   UNL     1       0.295  11.365  21.013  0.00  0.00    +0.000 A 
ATOM      7  C   UNL     1       1.343   7.707  20.502  0.00  0.00    +0.000 C 
ATOM      8  N   UNL     1       1.992   7.441  19.219  0.00  0.00    +0.000 N 
ATOM      9  C   UNL     1       2.045   8.581  18.424  0.00  0.00    +0.000 C 
ATOM     10  O   UNL     1       2.486   8.769  17.306  0.00  0.00    +0.000 OA
ENDROOT
BRANCH   8  11
ATOM     11  C   UNL     1       2.508   6.168  18.878  0.00  0.00    +0.000 A 
ATOM     12  C   UNL     1       2.029   4.987  19.444  0.00  0.00    +0.000 A 
ATOM     13  C   UNL     1       2.554   3.754  19.061  0.00  0.00    +0.000 A 
ATOM     14  C   UNL     1       3.581   3.689  18.119  0.00  0.00    +0.000 A 
ATOM     15  C   UNL     1       4.116   4.850  17.537  0.00  0.00    +0.000 A 
ATOM     16  C   UNL     1       3.537   6.072  17.937  0.00  0.00    +0.000 A 
BRANCH  15  17
ATOM     17  C   UNL     1       5.340   4.848  16.501  0.00  0.00    +0.000 C 
ATOM     18  C   UNL     1       5.342   3.772  15.387  0.00  0.00    +0.000 C 
ATOM     19  O   UNL     1       5.691   4.769  14.389  0.00  0.00    +0.000 OA
ATOM     20  C   UNL     1       5.226   5.809  15.286  0.00  0.00    +0.000 C 
BRANCH  17  21
ATOM     21  C   UNL     1       6.685   4.884  17.239  0.00  0.00    +0.000 C 
ATOM     22  F   UNL     1       6.521   4.180  18.405  0.00  0.00    +0.000 F 
ATOM     23  F   UNL     1       7.622   4.172  16.543  0.00  0.00    +0.000 F 
BRANCH  21  24
ATOM     24  C   UNL     1       7.236   6.244  17.537  0.00  0.00    +0.000 A 
ATOM     25  N   UNL     1       7.246   7.305  16.751  0.00  0.00    +0.000 NA
ATOM     26  N   UNL     1       7.921   8.314  17.388  0.00  0.00    +0.000 NA
ATOM     27  C   UNL     1       8.329   7.849  18.546  0.00  0.00    +0.000 A 
ATOM     28  N   UNL     1       7.896   6.568  18.697  0.00  0.00    +0.000 N 
ATOM     29  C   UNL     1       8.111   5.747  19.861  0.00  0.00    +0.000 C 
ENDBRANCH  21  24
ENDBRANCH  17  21
ENDBRANCH  15  17
ENDBRANCH   8  11
BRANCH   5  30
ATOM     30  C   UNL     1      -0.053   9.526  22.717  0.00  0.00    +0.000 C 
ATOM     31  F   UNL     1      -0.884   8.453  22.639  0.00  0.00    +0.000 F 
ATOM     32  F   UNL     1       0.968   9.143  23.532  0.00  0.00    +0.000 F 
ATOM     33  F   UNL     1      -0.740  10.483  23.396  0.00  0.00    +0.000 F 
ENDBRANCH   5  30
BRANCH   1  35
ATOM     34  C   UNL     1      -0.451  13.322  18.147  0.00  0.00    +0.000 C 
ATOM     35  C   UNL     1       0.534  13.305  19.328  0.00  0.00    +0.000 C 
BRANCH  35  36
ATOM     36  N   UNL     1       1.815  13.972  19.021  0.00  0.00    +0.000 NA
ATOM     37  C   UNL     1       1.655  15.374  18.589  0.00  0.00    +0.000 C 
ATOM     38  C   UNL     1       2.065  16.240  19.768  0.00  0.00    +0.000 C 
ATOM     39  C   UNL     1       3.208  15.451  20.355  0.00  0.00    +0.000 C 
ATOM     40  F   UNL     1       4.329  15.676  19.620  0.00  0.00    +0.000 F 
ATOM     41  C   UNL     1       2.755  14.009  20.177  0.00  0.00    +0.000 C 
ENDBRANCH  35  36
ENDBRANCH   1  35
TORSDOF 7
ENDMDL
MODEL 2
REMARK VINA RESULT:      -9.8      1.643      2.553
REMARK  Name = 
REMARK  9 active torsions:
REMARK  status: ('A' for Active; 'I' for Inactive)
REMARK    1  A    between atoms: C_1  and  C_2
REMARK    2  A    between atoms: C_2  and  C_3
REMARK    3  A    between atoms: C_2  and  N_36
REMARK    4  A    between atoms: C_7  and  C_8
REMARK    5  A    between atoms: N_14  and  C_15
REMARK    6  A    between atoms: C_19  and  C_20
REMARK    7  A    between atoms: C_20  and  C_21
REMARK    8  A    between atoms: C_21  and  C_24
REMARK    9  A    between atoms: N_28  and  C_29
REMARK                            x       y       z     vdW  Elec       q    Type
REMARK                         _______ _______ _______ _____ _____    ______ ____
ROOT
ATOM      1  C   UNL     1       0.440  11.590  19.474  0.00  0.00    +0.000 A 
ATOM      2  C   UNL     1       1.113  10.692  18.643  0.00  0.00    +0.000 A 
ATOM      3  C   UNL     1       1.412   9.450  19.150  0.00  0.00    +0.000 A 
ATOM      4  C   UNL     1       1.074   9.048  20.436  0.00  0.00    +0.000 A 
ATOM      5  C   UNL     1       0.398   9.911  21.295  0.00  0.00    +0.000 A 
ATOM      6  C   UNL     1       0.094  11.197  20.794  0.00  0.00    +0.000 A 
ATOM      7  C   UNL     1       1.555   7.650  20.643  0.00  0.00    +0.000 C 
ATOM      8  N   UNL     1       2.207   7.322  19.376  0.00  0.00    +0.000 N 
ATOM      9  C   UNL     1       2.112   8.367  18.464  0.00  0.00    +0.000 C 
ATOM     10  O   UNL     1       2.507   8.481  17.318  0.00  0.00    +0.000 OA
ENDROOT
BRANCH   8  11
ATOM     11  C   UNL     1       2.862   6.087  19.157  0.00  0.00    +0.000 A 
ATOM     12  C   UNL     1       2.656   4.972  19.968  0.00  0.00    +0.000 A 
ATOM     13  C   UNL     1       3.308   3.769  19.700  0.00  0.00    +0.000 A 
ATOM     14  C   UNL     1       4.193   3.674  18.626  0.00  0.00    +0.000 A 
ATOM     15  C   UNL     1       4.455   4.774  17.792  0.00  0.00    +0.000 A 
ATOM     16  C   UNL     1       3.754   5.961  18.088  0.00  0.00    +0.000 A 
BRANCH  15  17
ATOM     17  C   UNL     1       5.509   4.748  16.584  0.00  0.00    +0.000 C 
ATOM     18  C   UNL     1       5.403   3.595  15.556  0.00  0.00    +0.000 C 
ATOM     19  O   UNL     1       5.545   4.531  14.453  0.00  0.00    +0.000 OA
ATOM     20  C   UNL     1       5.164   5.612  15.340  0.00  0.00    +0.000 C 
BRANCH  17  21
ATOM     21  C   UNL     1       6.945   4.896  17.104  0.00  0.00    +0.000 C 
ATOM     22  F   UNL     1       7.067   4.060  18.185  0.00  0.00    +0.000 F 
ATOM     23  F   UNL     1       7.830   4.397  16.189  0.00  0.00    +0.000 F 
BRANCH  21  24
ATOM     24  C   UNL     1       7.370   6.281  17.481  0.00  0.00    +0.000 A 
ATOM     25  N   UNL     1       7.338   7.370  16.734  0.00  0.00    +0.000 NA
ATOM     26  N   UNL     1       7.896   8.402  17.443  0.00  0.00    +0.000 NA
ATOM     27  C   UNL     1       8.277   7.925  18.606  0.00  0.00    +0.000 A 
ATOM     28  N   UNL     1       7.939   6.609  18.687  0.00  0.00    +0.000 N 
ATOM     29  C   UNL     1       8.154   5.762  19.831  0.00  0.00    +0.000 C 
ENDBRANCH  21  24
ENDBRANCH  17  21
ENDBRANCH  15  17
ENDBRANCH   8  11
BRANCH   5  30
ATOM     30  C   UNL     1      -0.005   9.528  22.694  0.00  0.00    +0.000 C 
ATOM     31  F   UNL     1      -0.812   8.434  22.744  0.00  0.00    +0.000 F 
ATOM     32  F   UNL     1       1.067   9.232  23.479  0.00  0.00    +0.000 F 
ATOM     33  F   UNL     1      -0.679  10.520  23.334  0.00  0.00    +0.000 F 
ENDBRANCH   5  30
BRANCH   1  35
ATOM     34  C   UNL     1       0.452  14.014  19.957  0.00  0.00    +0.000 C 
ATOM     35  C   UNL     1       0.073  12.956  18.906  0.00  0.00    +0.000 C 
BRANCH  35  36
ATOM     36  N   UNL     1      -1.344  13.032  18.496  0.00  0.00    +0.000 NA
ATOM     37  C   UNL     1      -1.733  11.971  17.547  0.00  0.00    +0.000 C 
ATOM     38  C   UNL     1      -2.541  10.957  18.339  0.00  0.00    +0.000 C 
ATOM     39  C   UNL     1      -3.305  11.838  19.294  0.00  0.00    +0.000 C 
ATOM     40  F   UNL     1      -4.367  12.384  18.644  0.00  0.00    +0.000 F 
ATOM     41  C   UNL     1      -2.296  12.926  19.636  0.00  0.00    +0.000 C 
ENDBRANCH  35  36
ENDBRANCH   1  35
TORSDOF 7
ENDMDL
MODEL 3
REMARK VINA RESULT:      -9.8      3.375      9.545
REMARK  Name = 
REMARK  9 active torsions:
REMARK  status: ('A' for Active; 'I' for Inactive)
REMARK    1  A    between atoms: C_1  and  C_2
REMARK    2  A    between atoms: C_2  and  C_3
REMARK    3  A    between atoms: C_2  and  N_36
REMARK    4  A    between atoms: C_7  and  C_8
REMARK    5  A    between atoms: N_14  and  C_15
REMARK    6  A    between atoms: C_19  and  C_20
REMARK    7  A    between atoms: C_20  and  C_21
REMARK    8  A    between atoms: C_21  and  C_24
REMARK    9  A    between atoms: N_28  and  C_29
REMARK                            x       y       z     vdW  Elec       q    Type
REMARK                         _______ _______ _______ _____ _____    ______ ____
ROOT
ATOM      1  C   UNL     1       3.826   5.089  17.932  0.00  0.00    +0.000 A 
ATOM      2  C   UNL     1       3.447   6.431  18.013  0.00  0.00    +0.000 A 
ATOM      3  C   UNL     1       2.619   6.801  19.045  0.00  0.00    +0.000 A 
ATOM      4  C   UNL     1       2.150   5.913  20.005  0.00  0.00    +0.000 A 
ATOM      5  C   UNL     1       2.509   4.568  19.962  0.00  0.00    +0.000 A 
ATOM      6  C   UNL     1       3.350   4.167  18.900  0.00  0.00    +0.000 A 
ATOM      7  C   UNL     1       1.280   6.657  20.963  0.00  0.00    +0.000 C 
ATOM      8  N   UNL     1       1.286   8.023  20.439  0.00  0.00    +0.000 N 
ATOM      9  C   UNL     1       2.097   8.138  19.315  0.00  0.00    +0.000 C 
ATOM     10  O   UNL     1       2.371   9.091  18.609  0.00  0.00    +0.000 OA
ENDROOT
BRANCH   8  11
ATOM     11  C   UNL     1       0.528   9.064  21.025  0.00  0.00    +0.000 A 
ATOM     12  C   UNL     1       0.198   9.084  22.379  0.00  0.00    +0.000 A 
ATOM     13  C   UNL     1      -0.534  10.142  22.916  0.00  0.00    +0.000 A 
ATOM     14  C   UNL     1      -0.962  11.187  22.097  0.00  0.00    +0.000 A 
ATOM     15  C   UNL     1      -0.678  11.203  20.721  0.00  0.00    +0.000 A 
ATOM     16  C   UNL     1       0.085  10.125  20.229  0.00  0.00    +0.000 A 
BRANCH  15  17
ATOM     17  C   UNL     1      -1.198  12.339  19.715  0.00  0.00    +0.000 C 
ATOM     18  C   UNL     1      -1.564  13.721  20.310  0.00  0.00    +0.000 C 
ATOM     19  O   UNL     1      -0.837  14.398  19.250  0.00  0.00    +0.000 OA
ATOM     20  C   UNL     1      -0.111  13.173  18.983  0.00  0.00    +0.000 C 
BRANCH  17  21
ATOM     21  C   UNL     1      -2.325  11.806  18.820  0.00  0.00    +0.000 C 
ATOM     22  F   UNL     1      -2.095  12.288  17.557  0.00  0.00    +0.000 F 
ATOM     23  F   UNL     1      -2.218  10.449  18.688  0.00  0.00    +0.000 F 
BRANCH  21  24
ATOM     24  C   UNL     1      -3.720  12.140  19.248  0.00  0.00    +0.000 A 
ATOM     25  N   UNL     1      -4.123  12.587  20.423  0.00  0.00    +0.000 NA
ATOM     26  N   UNL     1      -5.491  12.682  20.409  0.00  0.00    +0.000 NA
ATOM     27  C   UNL     1      -5.905  12.275  19.232  0.00  0.00    +0.000 A 
ATOM     28  N   UNL     1      -4.830  11.956  18.460  0.00  0.00    +0.000 N 
ATOM     29  C   UNL     1      -4.889  11.514  17.090  0.00  0.00    +0.000 C 
ENDBRANCH  21  24
ENDBRANCH  17  21
ENDBRANCH  15  17
ENDBRANCH   8  11
BRANCH   5  30
ATOM     30  C   UNL     1       2.043   3.562  20.981  0.00  0.00    +0.000 C 
ATOM     31  F   UNL     1       2.553   2.316  20.786  0.00  0.00    +0.000 F 
ATOM     32  F   UNL     1       2.394   3.910  22.250  0.00  0.00    +0.000 F 
ATOM     33  F   UNL     1       0.691   3.415  20.991  0.00  0.00    +0.000 F 
ENDBRANCH   5  30
BRANCH   1  35
ATOM     34  C   UNL     1       4.280   3.333  16.252  0.00  0.00    +0.000 C 
ATOM     35  C   UNL     1       4.774   4.678  16.810  0.00  0.00    +0.000 C 
BRANCH  35  36
ATOM     36  N   UNL     1       6.183   4.637  17.252  0.00  0.00    +0.000 NA
ATOM     37  C   UNL     1       7.008   5.714  16.673  0.00  0.00    +0.000 C 
ATOM     38  C   UNL     1       7.219   6.739  17.775  0.00  0.00    +0.000 C 
ATOM     39  C   UNL     1       7.347   5.865  18.996  0.00  0.00    +0.000 C 
ATOM     40  F   UNL     1       8.604   5.349  19.045  0.00  0.00    +0.000 F 
ATOM     41  C   UNL     1       6.342   4.754  18.729  0.00  0.00    +0.000 C 
ENDBRANCH  35  36
ENDBRANCH   1  35
TORSDOF 7
ENDMDL
MODEL 4
REMARK VINA RESULT:      -9.7      2.663      8.712
REMARK  Name = 
REMARK  9 active torsions:
REMARK  status: ('A' for Active; 'I' for Inactive)
REMARK    1  A    between atoms: C_1  and  C_2
REMARK    2  A    between atoms: C_2  and  C_3
REMARK    3  A    between atoms: C_2  and  N_36
REMARK    4  A    between atoms: C_7  and  C_8
REMARK    5  A    between atoms: N_14  and  C_15
REMARK    6  A    between atoms: C_19  and  C_20
REMARK    7  A    between atoms: C_20  and  C_21
REMARK    8  A    between atoms: C_21  and  C_24
REMARK    9  A    between atoms: N_28  and  C_29
REMARK                            x       y       z     vdW  Elec       q    Type
REMARK                         _______ _______ _______ _____ _____    ______ ____
ROOT
ATOM      1  C   UNL     1       3.782   5.215  17.905  0.00  0.00    +0.000 A 
ATOM      2  C   UNL     1       3.408   6.550  18.078  0.00  0.00    +0.000 A 
ATOM      3  C   UNL     1       2.593   6.854  19.141  0.00  0.00    +0.000 A 
ATOM      4  C   UNL     1       2.132   5.906  20.047  0.00  0.00    +0.000 A 
ATOM      5  C   UNL     1       2.485   4.566  19.912  0.00  0.00    +0.000 A 
ATOM      6  C   UNL     1       3.313   4.233  18.818  0.00  0.00    +0.000 A 
ATOM      7  C   UNL     1       1.274   6.589  21.060  0.00  0.00    +0.000 C 
ATOM      8  N   UNL     1       1.279   7.986  20.626  0.00  0.00    +0.000 N 
ATOM      9  C   UNL     1       2.078   8.172  19.503  0.00  0.00    +0.000 C 
ATOM     10  O   UNL     1       2.348   9.168  18.857  0.00  0.00    +0.000 OA
ENDROOT
BRANCH   8  11
ATOM     11  C   UNL     1       0.531   8.989  21.286  0.00  0.00    +0.000 A 
ATOM     12  C   UNL     1       0.300   8.972  22.661  0.00  0.00    +0.000 A 
ATOM     13  C   UNL     1      -0.427   9.994  23.271  0.00  0.00    +0.000 A 
ATOM     14  C   UNL     1      -0.948  11.038  22.507  0.00  0.00    +0.000 A 
ATOM     15  C   UNL     1      -0.765  11.090  21.115  0.00  0.00    +0.000 A 
ATOM     16  C   UNL     1      -0.005  10.048  20.547  0.00  0.00    +0.000 A 
BRANCH  15  17
ATOM     17  C   UNL     1      -1.395  12.225  20.173  0.00  0.00    +0.000 C 
ATOM     18  C   UNL     1      -2.525  11.811  19.199  0.00  0.00    +0.000 C 
ATOM     19  O   UNL     1      -3.311  12.973  19.576  0.00  0.00    +0.000 OA
ATOM     20  C   UNL     1      -2.526  13.092  20.789  0.00  0.00    +0.000 C 
BRANCH  17  21
ATOM     21  C   UNL     1      -0.294  13.007  19.446  0.00  0.00    +0.000 C 
ATOM     22  F   UNL     1       0.092  12.250  18.370  0.00  0.00    +0.000 F 
ATOM     23  F   UNL     1      -0.814  14.144  18.890  0.00  0.00    +0.000 F 
BRANCH  21  24
ATOM     24  C   UNL     1       0.903  13.377  20.265  0.00  0.00    +0.000 A 
ATOM     25  N   UNL     1       0.931  13.797  21.516  0.00  0.00    +0.000 NA
ATOM     26  N   UNL     1       2.227  14.099  21.847  0.00  0.00    +0.000 NA
ATOM     27  C   UNL     1       2.969  13.876  20.788  0.00  0.00    +0.000 A 
ATOM     28  N   UNL     1       2.190  13.392  19.783  0.00  0.00    +0.000 N 
ATOM     29  C   UNL     1       2.660  12.987  18.483  0.00  0.00    +0.000 C 
ENDBRANCH  21  24
ENDBRANCH  17  21
ENDBRANCH  15  17
ENDBRANCH   8  11
BRANCH   5  30
ATOM     30  C   UNL     1       2.027   3.497  20.869  0.00  0.00    +0.000 C 
ATOM     31  F   UNL     1       0.675   3.367  20.929  0.00  0.00    +0.000 F 
ATOM     32  F   UNL     1       2.502   2.266  20.535  0.00  0.00    +0.000 F 
ATOM     33  F   UNL     1       2.438   3.727  22.145  0.00  0.00    +0.000 F 
ENDBRANCH   5  30
BRANCH   1  35
ATOM     34  C   UNL     1       4.216   3.566  16.115  0.00  0.00    +0.000 C 
ATOM     35  C   UNL     1       4.716   4.875  16.749  0.00  0.00    +0.000 C 
BRANCH  35  36
ATOM     36  N   UNL     1       6.130   4.809  17.171  0.00  0.00    +0.000 NA
ATOM     37  C   UNL     1       6.947   5.923  16.651  0.00  0.00    +0.000 C 
ATOM     38  C   UNL     1       7.169   6.875  17.814  0.00  0.00    +0.000 C 
ATOM     39  C   UNL     1       7.314   5.926  18.975  0.00  0.00    +0.000 C 
ATOM     40  F   UNL     1       8.572   5.410  18.976  0.00  0.00    +0.000 F 
ATOM     41  C   UNL     1       6.308   4.831  18.649  0.00  0.00    +0.000 C 
ENDBRANCH  35  36
ENDBRANCH   1  35
TORSDOF 7
ENDMDL
MODEL 5
REMARK VINA RESULT:      -9.6      1.263      1.594
REMARK  Name = 
REMARK  9 active torsions:
REMARK  status: ('A' for Active; 'I' for Inactive)
REMARK    1  A    between atoms: C_1  and  C_2
REMARK    2  A    between atoms: C_2  and  C_3
REMARK    3  A    between atoms: C_2  and  N_36
REMARK    4  A    between atoms: C_7  and  C_8
REMARK    5  A    between atoms: N_14  and  C_15
REMARK    6  A    between atoms: C_19  and  C_20
REMARK    7  A    between atoms: C_20  and  C_21
REMARK    8  A    between atoms: C_21  and  C_24
REMARK    9  A    between atoms: N_28  and  C_29
REMARK                            x       y       z     vdW  Elec       q    Type
REMARK                         _______ _______ _______ _____ _____    ______ ____
ROOT
ATOM      1  C   UNL     1       0.957  11.921  19.691  0.00  0.00    +0.000 A 
ATOM      2  C   UNL     1       1.455  11.047  18.722  0.00  0.00    +0.000 A 
ATOM      3  C   UNL     1       1.563   9.718  19.054  0.00  0.00    +0.000 A 
ATOM      4  C   UNL     1       1.199   9.208  20.293  0.00  0.00    +0.000 A 
ATOM      5  C   UNL     1       0.695  10.045  21.285  0.00  0.00    +0.000 A 
ATOM      6  C   UNL     1       0.588  11.417  20.966  0.00  0.00    +0.000 A 
ATOM      7  C   UNL     1       1.455   7.737  20.299  0.00  0.00    +0.000 C 
ATOM      8  N   UNL     1       2.011   7.481  18.971  0.00  0.00    +0.000 N 
ATOM      9  C   UNL     1       2.061   8.640  18.203  0.00  0.00    +0.000 C 
ATOM     10  O   UNL     1       2.439   8.841  17.064  0.00  0.00    +0.000 OA
ENDROOT
BRANCH   8  11
ATOM     11  C   UNL     1       2.453   6.199  18.567  0.00  0.00    +0.000 A 
ATOM     12  C   UNL     1       1.818   5.024  18.968  0.00  0.00    +0.000 A 
ATOM     13  C   UNL     1       2.278   3.784  18.527  0.00  0.00    +0.000 A 
ATOM     14  C   UNL     1       3.393   3.703  17.692  0.00  0.00    +0.000 A 
ATOM     15  C   UNL     1       4.083   4.855  17.279  0.00  0.00    +0.000 A 
ATOM     16  C   UNL     1       3.568   6.087  17.730  0.00  0.00    +0.000 A 
BRANCH  15  17
ATOM     17  C   UNL     1       5.409   4.826  16.377  0.00  0.00    +0.000 C 
ATOM     18  C   UNL     1       5.529   3.717  15.303  0.00  0.00    +0.000 C 
ATOM     19  O   UNL     1       5.978   4.684  14.317  0.00  0.00    +0.000 OA
ATOM     20  C   UNL     1       5.421   5.749  15.127  0.00  0.00    +0.000 C 
BRANCH  17  21
ATOM     21  C   UNL     1       6.669   4.891  17.249  0.00  0.00    +0.000 C 
ATOM     22  F   UNL     1       6.379   4.238  18.420  0.00  0.00    +0.000 F 
ATOM     23  F   UNL     1       7.670   4.149  16.686  0.00  0.00    +0.000 F 
BRANCH  21  24
ATOM     24  C   UNL     1       7.194   6.262  17.547  0.00  0.00    +0.000 A 
ATOM     25  N   UNL     1       7.103   7.345  16.798  0.00  0.00    +0.000 NA
ATOM     26  N   UNL     1       7.791   8.360  17.411  0.00  0.00    +0.000 NA
ATOM     27  C   UNL     1       8.307   7.877  18.517  0.00  0.00    +0.000 A 
ATOM     28  N   UNL     1       7.934   6.576  18.661  0.00  0.00    +0.000 N 
ATOM     29  C   UNL     1       8.270   5.729  19.776  0.00  0.00    +0.000 C 
ENDBRANCH  21  24
ENDBRANCH  17  21
ENDBRANCH  15  17
ENDBRANCH   8  11
BRANCH   5  30
ATOM     30  C   UNL     1       0.272   9.547  22.642  0.00  0.00    +0.000 C 
ATOM     31  F   UNL     1       1.298   9.036  23.375  0.00  0.00    +0.000 F 
ATOM     32  F   UNL     1      -0.273  10.532  23.407  0.00  0.00    +0.000 F 
ATOM     33  F   UNL     1      -0.663   8.563  22.570  0.00  0.00    +0.000 F 
ENDBRANCH   5  30
BRANCH   1  35
ATOM     34  C   UNL     1       2.204  13.956  19.047  0.00  0.00    +0.000 C 
ATOM     35  C   UNL     1       0.800  13.392  19.318  0.00  0.00    +0.000 C 
BRANCH  35  36
ATOM     36  N   UNL     1       0.059  14.154  20.343  0.00  0.00    +0.000 NA
ATOM     37  C   UNL     1       0.934  14.770  21.359  0.00  0.00    +0.000 C 
ATOM     38  C   UNL     1       1.003  16.251  21.031  0.00  0.00    +0.000 C 
ATOM     39  C   UNL     1      -0.397  16.533  20.548  0.00  0.00    +0.000 C 
ATOM     40  F   UNL     1      -1.220  16.667  21.622  0.00  0.00    +0.000 F 
ATOM     41  C   UNL     1      -0.753  15.268  19.779  0.00  0.00    +0.000 C 
ENDBRANCH  35  36
ENDBRANCH   1  35
TORSDOF 7
ENDMDL
MODEL 6
REMARK VINA RESULT:      -9.5      2.711      8.943
REMARK  Name = 
REMARK  9 active torsions:
REMARK  status: ('A' for Active; 'I' for Inactive)
REMARK    1  A    between atoms: C_1  and  C_2
REMARK    2  A    between atoms: C_2  and  C_3
REMARK    3  A    between atoms: C_2  and  N_36
REMARK    4  A    between atoms: C_7  and  C_8
REMARK    5  A    between atoms: N_14  and  C_15
REMARK    6  A    between atoms: C_19  and  C_20
REMARK    7  A    between atoms: C_20  and  C_21
REMARK    8  A    between atoms: C_21  and  C_24
REMARK    9  A    between atoms: N_28  and  C_29
REMARK                            x       y       z     vdW  Elec       q    Type
REMARK                         _______ _______ _______ _____ _____    ______ ____
ROOT
ATOM      1  C   UNL     1       3.829   5.110  17.920  0.00  0.00    +0.000 A 
ATOM      2  C   UNL     1       3.448   6.451  18.016  0.00  0.00    +0.000 A 
ATOM      3  C   UNL     1       2.617   6.808  19.050  0.00  0.00    +0.000 A 
ATOM      4  C   UNL     1       2.146   5.908  19.998  0.00  0.00    +0.000 A 
ATOM      5  C   UNL     1       2.506   4.564  19.941  0.00  0.00    +0.000 A 
ATOM      6  C   UNL     1       3.351   4.177  18.877  0.00  0.00    +0.000 A 
ATOM      7  C   UNL     1       1.272   6.641  20.961  0.00  0.00    +0.000 C 
ATOM      8  N   UNL     1       1.278   8.012  20.454  0.00  0.00    +0.000 N 
ATOM      9  C   UNL     1       2.092   8.141  19.334  0.00  0.00    +0.000 C 
ATOM     10  O   UNL     1       2.368   9.102  18.639  0.00  0.00    +0.000 OA
ENDROOT
BRANCH   8  11
ATOM     11  C   UNL     1       0.517   9.045  21.049  0.00  0.00    +0.000 A 
ATOM     12  C   UNL     1       0.346   9.155  22.429  0.00  0.00    +0.000 A 
ATOM     13  C   UNL     1      -0.396  10.203  22.971  0.00  0.00    +0.000 A 
ATOM     14  C   UNL     1      -0.994  11.146  22.135  0.00  0.00    +0.000 A 
ATOM     15  C   UNL     1      -0.874  11.068  20.737  0.00  0.00    +0.000 A 
ATOM     16  C   UNL     1      -0.095  10.006  20.237  0.00  0.00    +0.000 A 
BRANCH  15  17
ATOM     17  C   UNL     1      -1.592  12.080  19.721  0.00  0.00    +0.000 C 
ATOM     18  C   UNL     1      -2.695  11.514  18.795  0.00  0.00    +0.000 C 
ATOM     19  O   UNL     1      -3.562  12.641  19.094  0.00  0.00    +0.000 OA
ATOM     20  C   UNL     1      -2.779  12.908  20.285  0.00  0.00    +0.000 C 
BRANCH  17  21
ATOM     21  C   UNL     1      -0.557  12.883  18.923  0.00  0.00    +0.000 C 
ATOM     22  F   UNL     1       0.556  12.091  18.799  0.00  0.00    +0.000 F 
ATOM     23  F   UNL     1      -0.989  13.062  17.638  0.00  0.00    +0.000 F 
BRANCH  21  24
ATOM     24  C   UNL     1      -0.174  14.214  19.492  0.00  0.00    +0.000 A 
ATOM     25  N   UNL     1      -0.699  15.394  19.217  0.00  0.00    +0.000 NA
ATOM     26  N   UNL     1       0.004  16.355  19.899  0.00  0.00    +0.000 NA
ATOM     27  C   UNL     1       0.958  15.749  20.566  0.00  0.00    +0.000 A 
ATOM     28  N   UNL     1       0.867  14.406  20.368  0.00  0.00    +0.000 N 
ATOM     29  C   UNL     1       1.715  13.413  20.975  0.00  0.00    +0.000 C 
ENDBRANCH  21  24
ENDBRANCH  17  21
ENDBRANCH  15  17
ENDBRANCH   8  11
BRANCH   5  30
ATOM     30  C   UNL     1       2.038   3.546  20.946  0.00  0.00    +0.000 C 
ATOM     31  F   UNL     1       0.686   3.399  20.980  0.00  0.00    +0.000 F 
ATOM     32  F   UNL     1       2.537   2.304  20.697  0.00  0.00    +0.000 F 
ATOM     33  F   UNL     1       2.412   3.856  22.216  0.00  0.00    +0.000 F 
ENDBRANCH   5  30
BRANCH   1  35
ATOM     34  C   UNL     1       4.293   3.372  16.225  0.00  0.00    +0.000 C 
ATOM     35  C   UNL     1       4.781   4.713  16.797  0.00  0.00    +0.000 C 
BRANCH  35  36
ATOM     36  N   UNL     1       6.189   4.673  17.243  0.00  0.00    +0.000 NA
ATOM     37  C   UNL     1       7.014   5.753  16.668  0.00  0.00    +0.000 C 
ATOM     38  C   UNL     1       7.221   6.774  17.773  0.00  0.00    +0.000 C 
ATOM     39  C   UNL     1       7.348   5.898  18.993  0.00  0.00    +0.000 C 
ATOM     40  F   UNL     1       8.605   5.382  19.043  0.00  0.00    +0.000 F 
ATOM     41  C   UNL     1       6.345   4.785  18.720  0.00  0.00    +0.000 C 
ENDBRANCH  35  36
ENDBRANCH   1  35
TORSDOF 7
ENDMDL
MODEL 7
REMARK VINA RESULT:      -9.5      1.514      2.280
REMARK  Name = 
REMARK  9 active torsions:
REMARK  status: ('A' for Active; 'I' for Inactive)
REMARK    1  A    between atoms: C_1  and  C_2
REMARK    2  A    between atoms: C_2  and  C_3
REMARK    3  A    between atoms: C_2  and  N_36
REMARK    4  A    between atoms: C_7  and  C_8
REMARK    5  A    between atoms: N_14  and  C_15
REMARK    6  A    between atoms: C_19  and  C_20
REMARK    7  A    between atoms: C_20  and  C_21
REMARK    8  A    between atoms: C_21  and  C_24
REMARK    9  A    between atoms: N_28  and  C_29
REMARK                            x       y       z     vdW  Elec       q    Type
REMARK                         _______ _______ _______ _____ _____    ______ ____
ROOT
ATOM      1  C   UNL     1       0.701  11.839  19.713  0.00  0.00    +0.000 A 
ATOM      2  C   UNL     1       1.264  10.961  18.784  0.00  0.00    +0.000 A 
ATOM      3  C   UNL     1       1.428   9.649  19.161  0.00  0.00    +0.000 A 
ATOM      4  C   UNL     1       1.060   9.160  20.408  0.00  0.00    +0.000 A 
ATOM      5  C   UNL     1       0.492  10.002  21.360  0.00  0.00    +0.000 A 
ATOM      6  C   UNL     1       0.327  11.356  20.995  0.00  0.00    +0.000 A 
ATOM      7  C   UNL     1       1.387   7.704  20.467  0.00  0.00    +0.000 C 
ATOM      8  N   UNL     1       1.987   7.435  19.160  0.00  0.00    +0.000 N 
ATOM      9  C   UNL     1       1.998   8.571  18.357  0.00  0.00    +0.000 C 
ATOM     10  O   UNL     1       2.393   8.755  17.221  0.00  0.00    +0.000 OA
ENDROOT
BRANCH   8  11
ATOM     11  C   UNL     1       2.500   6.165  18.808  0.00  0.00    +0.000 A 
ATOM     12  C   UNL     1       1.992   4.977  19.332  0.00  0.00    +0.000 A 
ATOM     13  C   UNL     1       2.516   3.747  18.938  0.00  0.00    +0.000 A 
ATOM     14  C   UNL     1       3.571   3.691  18.027  0.00  0.00    +0.000 A 
ATOM     15  C   UNL     1       4.136   4.859  17.488  0.00  0.00    +0.000 A 
ATOM     16  C   UNL     1       3.557   6.078  17.897  0.00  0.00    +0.000 A 
BRANCH  15  17
ATOM     17  C   UNL     1       5.391   4.866  16.490  0.00  0.00    +0.000 C 
ATOM     18  C   UNL     1       5.444   3.781  15.387  0.00  0.00    +0.000 C 
ATOM     19  O   UNL     1       5.808   4.774  14.391  0.00  0.00    +0.000 OA
ATOM     20  C   UNL     1       5.300   5.814  15.263  0.00  0.00    +0.000 C 
BRANCH  17  21
ATOM     21  C   UNL     1       6.711   4.930  17.268  0.00  0.00    +0.000 C 
ATOM     22  F   UNL     1       6.516   4.250  18.444  0.00  0.00    +0.000 F 
ATOM     23  F   UNL     1       7.676   4.210  16.618  0.00  0.00    +0.000 F 
BRANCH  21  24
ATOM     24  C   UNL     1       7.243   6.300  17.554  0.00  0.00    +0.000 A 
ATOM     25  N   UNL     1       7.191   7.367  16.778  0.00  0.00    +0.000 NA
ATOM     26  N   UNL     1       7.870   8.388  17.393  0.00  0.00    +0.000 NA
ATOM     27  C   UNL     1       8.341   7.924  18.527  0.00  0.00    +0.000 A 
ATOM     28  N   UNL     1       7.947   6.631  18.686  0.00  0.00    +0.000 N 
ATOM     29  C   UNL     1       8.233   5.806  19.831  0.00  0.00    +0.000 C 
ENDBRANCH  21  24
ENDBRANCH  17  21
ENDBRANCH  15  17
ENDBRANCH   8  11
BRANCH   5  30
ATOM     30  C   UNL     1       0.062   9.526  22.723  0.00  0.00    +0.000 C 
ATOM     31  F   UNL     1      -0.645  10.454  23.422  0.00  0.00    +0.000 F 
ATOM     32  F   UNL     1      -0.737   8.426  22.658  0.00  0.00    +0.000 F 
ATOM     33  F   UNL     1       1.114   9.184  23.513  0.00  0.00    +0.000 F 
ENDBRANCH   5  30
BRANCH   1  35
ATOM     34  C   UNL     1       1.253  14.182  20.274  0.00  0.00    +0.000 C 
ATOM     35  C   UNL     1       0.482  13.287  19.290  0.00  0.00    +0.000 C 
BRANCH  35  36
ATOM     36  N   UNL     1      -0.951  13.633  19.195  0.00  0.00    +0.000 NA
ATOM     37  C   UNL     1      -1.829  12.454  19.069  0.00  0.00    +0.000 C 
ATOM     38  C   UNL     1      -2.485  12.256  20.425  0.00  0.00    +0.000 C 
ATOM     39  C   UNL     1      -2.700  13.676  20.882  0.00  0.00    +0.000 C 
ATOM     40  F   UNL     1      -3.803  14.179  20.267  0.00  0.00    +0.000 F 
ATOM     41  C   UNL     1      -1.455  14.390  20.375  0.00  0.00    +0.000 C 
ENDBRANCH  35  36
ENDBRANCH   1  35
TORSDOF 7
ENDMDL
MODEL 8
REMARK VINA RESULT:      -9.5      2.487      8.766
REMARK  Name = 
REMARK  9 active torsions:
REMARK  status: ('A' for Active; 'I' for Inactive)
REMARK    1  A    between atoms: C_1  and  C_2
REMARK    2  A    between atoms: C_2  and  C_3
REMARK    3  A    between atoms: C_2  and  N_36
REMARK    4  A    between atoms: C_7  and  C_8
REMARK    5  A    between atoms: N_14  and  C_15
REMARK    6  A    between atoms: C_19  and  C_20
REMARK    7  A    between atoms: C_20  and  C_21
REMARK    8  A    between atoms: C_21  and  C_24
REMARK    9  A    between atoms: N_28  and  C_29
REMARK                            x       y       z     vdW  Elec       q    Type
REMARK                         _______ _______ _______ _____ _____    ______ ____
ROOT
ATOM      1  C   UNL     1       3.849   4.952  18.012  0.00  0.00    +0.000 A 
ATOM      2  C   UNL     1       3.470   6.294  18.095  0.00  0.00    +0.000 A 
ATOM      3  C   UNL     1       2.648   6.664  19.133  0.00  0.00    +0.000 A 
ATOM      4  C   UNL     1       2.186   5.776  20.096  0.00  0.00    +0.000 A 
ATOM      5  C   UNL     1       2.545   4.431  20.051  0.00  0.00    +0.000 A 
ATOM      6  C   UNL     1       3.379   4.031  18.985  0.00  0.00    +0.000 A 
ATOM      7  C   UNL     1       1.321   6.521  21.058  0.00  0.00    +0.000 C 
ATOM      8  N   UNL     1       1.323   7.886  20.534  0.00  0.00    +0.000 N 
ATOM      9  C   UNL     1       2.127   8.001  19.405  0.00  0.00    +0.000 C 
ATOM     10  O   UNL     1       2.396   8.953  18.696  0.00  0.00    +0.000 OA
ENDROOT
BRANCH   8  11
ATOM     11  C   UNL     1       0.568   8.927  21.124  0.00  0.00    +0.000 A 
ATOM     12  C   UNL     1       0.300   8.980  22.491  0.00  0.00    +0.000 A 
ATOM     13  C   UNL     1      -0.432  10.037  23.030  0.00  0.00    +0.000 A 
ATOM     14  C   UNL     1      -0.922  11.047  22.202  0.00  0.00    +0.000 A 
ATOM     15  C   UNL     1      -0.700  11.029  20.814  0.00  0.00    +0.000 A 
ATOM     16  C   UNL     1       0.064   9.954  20.319  0.00  0.00    +0.000 A 
BRANCH  15  17
ATOM     17  C   UNL     1      -1.292  12.122  19.801  0.00  0.00    +0.000 C 
ATOM     18  C   UNL     1      -1.542  11.690  18.335  0.00  0.00    +0.000 C 
ATOM     19  O   UNL     1      -2.849  12.324  18.344  0.00  0.00    +0.000 OA
ATOM     20  C   UNL     1      -2.835  12.301  19.793  0.00  0.00    +0.000 C 
BRANCH  17  21
ATOM     21  C   UNL     1      -0.484  13.424  19.865  0.00  0.00    +0.000 C 
ATOM     22  F   UNL     1      -1.305  14.428  19.418  0.00  0.00    +0.000 F 
ATOM     23  F   UNL     1      -0.224  13.754  21.166  0.00  0.00    +0.000 F 
BRANCH  21  24
ATOM     24  C   UNL     1       0.803  13.440  19.098  0.00  0.00    +0.000 A 
ATOM     25  N   UNL     1       1.502  12.406  18.667  0.00  0.00    +0.000 NA
ATOM     26  N   UNL     1       2.653  12.869  18.084  0.00  0.00    +0.000 NA
ATOM     27  C   UNL     1       2.649  14.178  18.183  0.00  0.00    +0.000 A 
ATOM     28  N   UNL     1       1.495  14.583  18.782  0.00  0.00    +0.000 N 
ATOM     29  C   UNL     1       1.114  15.951  19.020  0.00  0.00    +0.000 C 
ENDBRANCH  21  24
ENDBRANCH  17  21
ENDBRANCH  15  17
ENDBRANCH   8  11
BRANCH   5  30
ATOM     30  C   UNL     1       2.086   3.426  21.074  0.00  0.00    +0.000 C 
ATOM     31  F   UNL     1       0.747   3.187  21.036  0.00  0.00    +0.000 F 
ATOM     32  F   UNL     1       2.681   2.213  20.910  0.00  0.00    +0.000 F 
ATOM     33  F   UNL     1       2.361   3.813  22.348  0.00  0.00    +0.000 F 
ENDBRANCH   5  30
BRANCH   1  35
ATOM     34  C   UNL     1       4.346   3.155  16.389  0.00  0.00    +0.000 C 
ATOM     35  C   UNL     1       4.790   4.541  16.885  0.00  0.00    +0.000 C 
BRANCH  35  36
ATOM     36  N   UNL     1       6.209   4.581  17.296  0.00  0.00    +0.000 NA
ATOM     37  C   UNL     1       6.979   5.650  16.631  0.00  0.00    +0.000 C 
ATOM     38  C   UNL     1       7.173   6.748  17.663  0.00  0.00    +0.000 C 
ATOM     39  C   UNL     1       7.361   5.958  18.933  0.00  0.00    +0.000 C 
ATOM     40  F   UNL     1       8.638   5.493  18.983  0.00  0.00    +0.000 F 
ATOM     41  C   UNL     1       6.395   4.795  18.758  0.00  0.00    +0.000 C 
ENDBRANCH  35  36
ENDBRANCH   1  35
TORSDOF 7
ENDMDL
MODEL 9
REMARK VINA RESULT:      -9.5      3.032      9.292
REMARK  Name = 
REMARK  9 active torsions:
REMARK  status: ('A' for Active; 'I' for Inactive)
REMARK    1  A    between atoms: C_1  and  C_2
REMARK    2  A    between atoms: C_2  and  C_3
REMARK    3  A    between atoms: C_2  and  N_36
REMARK    4  A    between atoms: C_7  and  C_8
REMARK    5  A    between atoms: N_14  and  C_15
REMARK    6  A    between atoms: C_19  and  C_20
REMARK    7  A    between atoms: C_20  and  C_21
REMARK    8  A    between atoms: C_21  and  C_24
REMARK    9  A    between atoms: N_28  and  C_29
REMARK                            x       y       z     vdW  Elec       q    Type
REMARK                         _______ _______ _______ _____ _____    ______ ____
ROOT
ATOM      1  C   UNL     1       3.714   5.134  17.949  0.00  0.00    +0.000 A 
ATOM      2  C   UNL     1       3.344   6.474  18.088  0.00  0.00    +0.000 A 
ATOM      3  C   UNL     1       2.551   6.811  19.158  0.00  0.00    +0.000 A 
ATOM      4  C   UNL     1       2.108   5.892  20.102  0.00  0.00    +0.000 A 
ATOM      5  C   UNL     1       2.459   4.548  20.002  0.00  0.00    +0.000 A 
ATOM      6  C   UNL     1       3.264   4.181  18.901  0.00  0.00    +0.000 A 
ATOM      7  C   UNL     1       1.272   6.607  21.111  0.00  0.00    +0.000 C 
ATOM      8  N   UNL     1       1.268   7.990  20.635  0.00  0.00    +0.000 N 
ATOM      9  C   UNL     1       2.044   8.140  19.490  0.00  0.00    +0.000 C 
ATOM     10  O   UNL     1       2.300   9.115  18.808  0.00  0.00    +0.000 OA
ENDROOT
BRANCH   8  11
ATOM     11  C   UNL     1       0.534   9.012  21.279  0.00  0.00    +0.000 A 
ATOM     12  C   UNL     1       0.082   8.900  22.594  0.00  0.00    +0.000 A 
ATOM     13  C   UNL     1      -0.621   9.944  23.194  0.00  0.00    +0.000 A 
ATOM     14  C   UNL     1      -0.898  11.108  22.478  0.00  0.00    +0.000 A 
ATOM     15  C   UNL     1      -0.487  11.262  21.143  0.00  0.00    +0.000 A 
ATOM     16  C   UNL     1       0.241  10.191  20.586  0.00  0.00    +0.000 A 
BRANCH  15  17
ATOM     17  C   UNL     1      -0.832  12.546  20.245  0.00  0.00    +0.000 C 
ATOM     18  C   UNL     1      -0.380  13.933  20.763  0.00  0.00    +0.000 C 
ATOM     19  O   UNL     1       0.129  14.287  19.449  0.00  0.00    +0.000 OA
ATOM     20  C   UNL     1       0.161  12.881  19.098  0.00  0.00    +0.000 C 
BRANCH  17  21
ATOM     21  C   UNL     1      -2.314  12.558  19.850  0.00  0.00    +0.000 C 
ATOM     22  F   UNL     1      -3.016  12.047  20.912  0.00  0.00    +0.000 F 
ATOM     23  F   UNL     1      -2.761  13.846  19.737  0.00  0.00    +0.000 F 
BRANCH  21  24
ATOM     24  C   UNL     1      -2.669  11.814  18.599  0.00  0.00    +0.000 A 
ATOM     25  N   UNL     1      -1.850  11.232  17.743  0.00  0.00    +0.000 NA
ATOM     26  N   UNL     1      -2.589  10.738  16.698  0.00  0.00    +0.000 NA
ATOM     27  C   UNL     1      -3.846  11.042  16.923  0.00  0.00    +0.000 A 
ATOM     28  N   UNL     1      -3.949  11.687  18.117  0.00  0.00    +0.000 N 
ATOM     29  C   UNL     1      -5.177  12.134  18.721  0.00  0.00    +0.000 C 
ENDBRANCH  21  24
ENDBRANCH  17  21
ENDBRANCH  15  17
ENDBRANCH   8  11
BRANCH   5  30
ATOM     30  C   UNL     1       2.021   3.510  21.000  0.00  0.00    +0.000 C 
ATOM     31  F   UNL     1       2.544   2.277  20.764  0.00  0.00    +0.000 F 
ATOM     32  F   UNL     1       2.386   3.828  22.272  0.00  0.00    +0.000 F 
ATOM     33  F   UNL     1       0.671   3.345  21.024  0.00  0.00    +0.000 F 
ENDBRANCH   5  30
BRANCH   1  35
ATOM     34  C   UNL     1       4.116   3.428  16.206  0.00  0.00    +0.000 C 
ATOM     35  C   UNL     1       4.625   4.759  16.785  0.00  0.00    +0.000 C 
BRANCH  35  36
ATOM     36  N   UNL     1       6.048   4.712  17.178  0.00  0.00    +0.000 NA
ATOM     37  C   UNL     1       6.853   5.798  16.586  0.00  0.00    +0.000 C 
ATOM     38  C   UNL     1       7.101   6.805  17.695  0.00  0.00    +0.000 C 
ATOM     39  C   UNL     1       7.272   5.914  18.898  0.00  0.00    +0.000 C 
ATOM     40  F   UNL     1       8.529   5.397  18.896  0.00  0.00    +0.000 F 
ATOM     41  C   UNL     1       6.258   4.806  18.649  0.00  0.00    +0.000 C 
ENDBRANCH  35  36
ENDBRANCH   1  35
TORSDOF 7
ENDMDL
