MODEL 1
REMARK VINA RESULT:     -10.5      0.000      0.000
REMARK  Name = 
REMARK  8 active torsions:
REMARK  status: ('A' for Active; 'I' for Inactive)
REMARK    1  A    between atoms: C_1  and  C_2
REMARK    2  A    between atoms: C_3  and  C_4
REMARK    3  A    between atoms: C_8  and  C_9
REMARK    4  A    between atoms: N_15  and  C_16
REMARK    5  A    between atoms: C_20  and  C_21
REMARK    6  A    between atoms: C_21  and  C_22
REMARK    7  A    between atoms: C_22  and  C_23
REMARK    8  A    between atoms: N_27  and  C_28
REMARK                            x       y       z     vdW  Elec       q    Type
REMARK                         _______ _______ _______ _____ _____    ______ ____
ROOT
ATOM      1  C   UNL     1       4.418   5.624  17.417  0.00  0.00    +0.000 A 
ATOM      2  C   UNL     1       3.867   6.899  17.494  0.00  0.00    +0.000 A 
ATOM      3  C   UNL     1       2.965   7.138  18.510  0.00  0.00    +0.000 A 
ATOM      4  C   UNL     1       2.599   6.171  19.444  0.00  0.00    +0.000 A 
ATOM      5  C   UNL     1       3.113   4.882  19.367  0.00  0.00    +0.000 A 
ATOM      6  C   UNL     1       4.034   4.619  18.335  0.00  0.00    +0.000 A 
ATOM      7  C   UNL     1       1.668   6.780  20.439  0.00  0.00    +0.000 C 
ATOM      8  N   UNL     1       1.511   8.149  19.965  0.00  0.00    +0.000 N 
ATOM      9  C   UNL     1       2.268   8.388  18.820  0.00  0.00    +0.000 C 
ATOM     10  O   UNL     1       2.414   9.391  18.147  0.00  0.00    +0.000 OA
ENDROOT
BRANCH   1  13
ATOM     11  C   UNL     1       7.426   6.663  17.268  0.00  0.00    +0.000 C 
ATOM     12  C   UNL     1       6.682   5.770  16.337  0.00  0.00    +0.000 C 
ATOM     13  C   UNL     1       5.418   5.351  16.400  0.00  0.00    +0.000 C 
ATOM     14  C   UNL     1       5.133   4.468  15.246  0.00  0.00    +0.000 C 
ATOM     15  C   UNL     1       6.544   4.242  14.718  0.00  0.00    +0.000 C 
ATOM     16  O   UNL     1       7.392   5.289  15.237  0.00  0.00    +0.000 OA
ENDBRANCH   1  13
BRANCH   8  17
ATOM     17  C   UNL     1       0.670   9.081  20.619  0.00  0.00    +0.000 A 
ATOM     18  C   UNL     1       0.317   8.935  21.962  0.00  0.00    +0.000 A 
ATOM     19  C   UNL     1      -0.484   9.884  22.594  0.00  0.00    +0.000 A 
ATOM     20  C   UNL     1      -0.983  10.967  21.873  0.00  0.00    +0.000 A 
ATOM     21  C   UNL     1      -0.707  11.130  20.504  0.00  0.00    +0.000 A 
ATOM     22  C   UNL     1       0.162  10.186  19.919  0.00  0.00    +0.000 A 
BRANCH  21  23
ATOM     23  C   UNL     1      -1.381  12.293  19.636  0.00  0.00    +0.000 C 
ATOM     24  C   UNL     1      -1.222  13.772  20.102  0.00  0.00    +0.000 C 
ATOM     25  O   UNL     1      -0.858  14.180  18.752  0.00  0.00    +0.000 OA
ATOM     26  C   UNL     1      -0.516  12.805  18.447  0.00  0.00    +0.000 C 
BRANCH  23  27
ATOM     27  C   UNL     1      -2.820  11.938  19.223  0.00  0.00    +0.000 C 
BRANCH  27  28
ATOM     28  C   UNL     1      -2.911  11.361  17.846  0.00  0.00    +0.000 A 
ATOM     29  N   UNL     1      -1.972  10.660  17.238  0.00  0.00    +0.000 NA
ATOM     30  N   UNL     1      -2.438  10.297  15.997  0.00  0.00    +0.000 NA
ATOM     31  C   UNL     1      -3.651  10.778  15.873  0.00  0.00    +0.000 A 
ATOM     32  N   UNL     1      -3.986  11.462  17.002  0.00  0.00    +0.000 N 
ATOM     33  C   UNL     1      -5.234  12.139  17.226  0.00  0.00    +0.000 C 
ENDBRANCH  27  28
ENDBRANCH  23  27
ENDBRANCH  21  23
ENDBRANCH   8  17
BRANCH   5  34
ATOM     34  C   UNL     1       2.724   3.791  20.329  0.00  0.00    +0.000 C 
ATOM     35  F   UNL     1       2.480   4.239  21.590  0.00  0.00    +0.000 F 
ATOM     36  F   UNL     1       1.595   3.138  19.938  0.00  0.00    +0.000 F 
ATOM     37  F   UNL     1       3.689   2.841  20.450  0.00  0.00    +0.000 F 
ENDBRANCH   5  34
TORSDOF 6
ENDMDL
MODEL 2
REMARK VINA RESULT:     -10.5      1.893      2.867
REMARK  Name = 
REMARK  8 active torsions:
REMARK  status: ('A' for Active; 'I' for Inactive)
REMARK    1  A    between atoms: C_1  and  C_2
REMARK    2  A    between atoms: C_3  and  C_4
REMARK    3  A    between atoms: C_8  and  C_9
REMARK    4  A    between atoms: N_15  and  C_16
REMARK    5  A    between atoms: C_20  and  C_21
REMARK    6  A    between atoms: C_21  and  C_22
REMARK    7  A    between atoms: C_22  and  C_23
REMARK    8  A    between atoms: N_27  and  C_28
REMARK                            x       y       z     vdW  Elec       q    Type
REMARK                         _______ _______ _______ _____ _____    ______ ____
ROOT
ATOM      1  C   UNL     1       4.409   5.291  17.604  0.00  0.00    +0.000 A 
ATOM      2  C   UNL     1       3.911   6.590  17.590  0.00  0.00    +0.000 A 
ATOM      3  C   UNL     1       2.997   6.926  18.566  0.00  0.00    +0.000 A 
ATOM      4  C   UNL     1       2.567   6.034  19.545  0.00  0.00    +0.000 A 
ATOM      5  C   UNL     1       3.027   4.722  19.559  0.00  0.00    +0.000 A 
ATOM      6  C   UNL     1       3.961   4.360  18.569  0.00  0.00    +0.000 A 
ATOM      7  C   UNL     1       1.639   6.739  20.478  0.00  0.00    +0.000 C 
ATOM      8  N   UNL     1       1.553   8.082  19.919  0.00  0.00    +0.000 N 
ATOM      9  C   UNL     1       2.346   8.221  18.782  0.00  0.00    +0.000 C 
ATOM     10  O   UNL     1       2.551   9.175  18.055  0.00  0.00    +0.000 OA
ENDROOT
BRANCH   1  13
ATOM     11  C   UNL     1       7.566   5.117  17.996  0.00  0.00    +0.000 C 
ATOM     12  C   UNL     1       6.741   4.827  16.791  0.00  0.00    +0.000 C 
ATOM     13  C   UNL     1       5.421   4.916  16.631  0.00  0.00    +0.000 C 
ATOM     14  C   UNL     1       5.062   4.516  15.251  0.00  0.00    +0.000 C 
ATOM     15  C   UNL     1       6.381   3.908  14.791  0.00  0.00    +0.000 C 
ATOM     16  O   UNL     1       7.428   4.396  15.657  0.00  0.00    +0.000 OA
ENDBRANCH   1  13
BRANCH   8  17
ATOM     17  C   UNL     1       0.737   9.086  20.495  0.00  0.00    +0.000 A 
ATOM     18  C   UNL     1       0.616   9.231  21.878  0.00  0.00    +0.000 A 
ATOM     19  C   UNL     1      -0.166  10.248  22.421  0.00  0.00    +0.000 A 
ATOM     20  C   UNL     1      -0.877  11.104  21.583  0.00  0.00    +0.000 A 
ATOM     21  C   UNL     1      -0.838  10.966  20.184  0.00  0.00    +0.000 A 
ATOM     22  C   UNL     1       0.017   9.968  19.673  0.00  0.00    +0.000 A 
BRANCH  21  23
ATOM     23  C   UNL     1      -1.752  11.856  19.218  0.00  0.00    +0.000 C 
ATOM     24  C   UNL     1      -2.835  11.153  18.344  0.00  0.00    +0.000 C 
ATOM     25  O   UNL     1      -3.827  12.141  18.743  0.00  0.00    +0.000 OA
ATOM     26  C   UNL     1      -3.013  12.470  19.895  0.00  0.00    +0.000 C 
BRANCH  23  27
ATOM     27  C   UNL     1      -0.922  12.892  18.440  0.00  0.00    +0.000 C 
BRANCH  27  28
ATOM     28  C   UNL     1       0.052  13.629  19.301  0.00  0.00    +0.000 A 
ATOM     29  N   UNL     1      -0.253  14.505  20.240  0.00  0.00    +0.000 NA
ATOM     30  N   UNL     1       0.914  14.950  20.814  0.00  0.00    +0.000 NA
ATOM     31  C   UNL     1       1.907  14.335  20.220  0.00  0.00    +0.000 A 
ATOM     32  N   UNL     1       1.417  13.507  19.256  0.00  0.00    +0.000 N 
ATOM     33  C   UNL     1       2.210  12.679  18.388  0.00  0.00    +0.000 C 
ENDBRANCH  27  28
ENDBRANCH  23  27
ENDBRANCH  21  23
ENDBRANCH   8  17
BRANCH   5  34
ATOM     34  C   UNL     1       2.569   3.708  20.573  0.00  0.00    +0.000 C 
ATOM     35  F   UNL     1       2.599   4.167  21.853  0.00  0.00    +0.000 F 
ATOM     36  F   UNL     1       1.290   3.300  20.351  0.00  0.00    +0.000 F 
ATOM     37  F   UNL     1       3.334   2.584  20.561  0.00  0.00    +0.000 F 
ENDBRANCH   5  34
TORSDOF 6
ENDMDL
MODEL 3
REMARK VINA RESULT:     -10.4      1.831      2.908
REMARK  Name = 
REMARK  8 active torsions:
REMARK  status: ('A' for Active; 'I' for Inactive)
REMARK    1  A    between atoms: C_1  and  C_2
REMARK    2  A    between atoms: C_3  and  C_4
REMARK    3  A    between atoms: C_8  and  C_9
REMARK    4  A    between atoms: N_15  and  C_16
REMARK    5  A    between atoms: C_20  and  C_21
REMARK    6  A    between atoms: C_21  and  C_22
REMARK    7  A    between atoms: C_22  and  C_23
REMARK    8  A    between atoms: N_27  and  C_28
REMARK                            x       y       z     vdW  Elec       q    Type
REMARK                         _______ _______ _______ _____ _____    ______ ____
ROOT
ATOM      1  C   UNL     1       4.378   5.264  17.583  0.00  0.00    +0.000 A 
ATOM      2  C   UNL     1       3.910   6.574  17.606  0.00  0.00    +0.000 A 
ATOM      3  C   UNL     1       2.989   6.899  18.579  0.00  0.00    +0.000 A 
ATOM      4  C   UNL     1       2.524   5.984  19.522  0.00  0.00    +0.000 A 
ATOM      5  C   UNL     1       2.954   4.662  19.498  0.00  0.00    +0.000 A 
ATOM      6  C   UNL     1       3.894   4.312  18.509  0.00  0.00    +0.000 A 
ATOM      7  C   UNL     1       1.598   6.679  20.464  0.00  0.00    +0.000 C 
ATOM      8  N   UNL     1       1.550   8.042  19.951  0.00  0.00    +0.000 N 
ATOM      9  C   UNL     1       2.365   8.200  18.830  0.00  0.00    +0.000 C 
ATOM     10  O   UNL     1       2.602   9.173  18.139  0.00  0.00    +0.000 OA
ENDROOT
BRANCH   1  13
ATOM     11  C   UNL     1       7.530   5.057  18.002  0.00  0.00    +0.000 C 
ATOM     12  C   UNL     1       6.714   4.796  16.784  0.00  0.00    +0.000 C 
ATOM     13  C   UNL     1       5.396   4.899  16.613  0.00  0.00    +0.000 C 
ATOM     14  C   UNL     1       5.047   4.527  15.223  0.00  0.00    +0.000 C 
ATOM     15  C   UNL     1       6.365   3.918  14.764  0.00  0.00    +0.000 C 
ATOM     16  O   UNL     1       7.408   4.380  15.648  0.00  0.00    +0.000 OA
ENDBRANCH   1  13
BRANCH   8  17
ATOM     17  C   UNL     1       0.749   9.044  20.548  0.00  0.00    +0.000 A 
ATOM     18  C   UNL     1       0.540   9.093  21.927  0.00  0.00    +0.000 A 
ATOM     19  C   UNL     1      -0.225  10.109  22.495  0.00  0.00    +0.000 A 
ATOM     20  C   UNL     1      -0.832  11.063  21.682  0.00  0.00    +0.000 A 
ATOM     21  C   UNL     1      -0.703  11.027  20.282  0.00  0.00    +0.000 A 
ATOM     22  C   UNL     1       0.133  10.023  19.752  0.00  0.00    +0.000 A 
BRANCH  21  23
ATOM     23  C   UNL     1      -1.502  12.035  19.330  0.00  0.00    +0.000 C 
ATOM     24  C   UNL     1      -1.836  11.594  17.873  0.00  0.00    +0.000 C 
ATOM     25  O   UNL     1      -3.212  12.043  18.031  0.00  0.00    +0.000 OA
ATOM     26  C   UNL     1      -3.052  11.975  19.470  0.00  0.00    +0.000 C 
BRANCH  23  27
ATOM     27  C   UNL     1      -0.946  13.467  19.420  0.00  0.00    +0.000 C 
BRANCH  27  28
ATOM     28  C   UNL     1       0.546  13.524  19.330  0.00  0.00    +0.000 A 
ATOM     29  N   UNL     1       1.270  13.205  18.274  0.00  0.00    +0.000 NA
ATOM     30  N   UNL     1       2.595  13.405  18.581  0.00  0.00    +0.000 NA
ATOM     31  C   UNL     1       2.654  13.845  19.815  0.00  0.00    +0.000 A 
ATOM     32  N   UNL     1       1.396  13.924  20.329  0.00  0.00    +0.000 N 
ATOM     33  C   UNL     1       1.066  14.354  21.661  0.00  0.00    +0.000 C 
ENDBRANCH  27  28
ENDBRANCH  23  27
ENDBRANCH  21  23
ENDBRANCH   8  17
BRANCH   5  34
ATOM     34  C   UNL     1       2.457   3.625  20.470  0.00  0.00    +0.000 C 
ATOM     35  F   UNL     1       3.069   2.418  20.336  0.00  0.00    +0.000 F 
ATOM     36  F   UNL     1       2.646   4.000  21.764  0.00  0.00    +0.000 F 
ATOM     37  F   UNL     1       1.125   3.386  20.334  0.00  0.00    +0.000 F 
ENDBRANCH   5  34
TORSDOF 6
ENDMDL
MODEL 4
REMARK VINA RESULT:     -10.4      1.819      2.527
REMARK  Name = 
REMARK  8 active torsions:
REMARK  status: ('A' for Active; 'I' for Inactive)
REMARK    1  A    between atoms: C_1  and  C_2
REMARK    2  A    between atoms: C_3  and  C_4
REMARK    3  A    between atoms: C_8  and  C_9
REMARK    4  A    between atoms: N_15  and  C_16
REMARK    5  A    between atoms: C_20  and  C_21
REMARK    6  A    between atoms: C_21  and  C_22
REMARK    7  A    between atoms: C_22  and  C_23
REMARK    8  A    between atoms: N_27  and  C_28
REMARK                            x       y       z     vdW  Elec       q    Type
REMARK                         _______ _______ _______ _____ _____    ______ ____
ROOT
ATOM      1  C   UNL     1       4.474   5.997  17.521  0.00  0.00    +0.000 A 
ATOM      2  C   UNL     1       3.933   7.266  17.341  0.00  0.00    +0.000 A 
ATOM      3  C   UNL     1       2.908   7.641  18.184  0.00  0.00    +0.000 A 
ATOM      4  C   UNL     1       2.408   6.815  19.188  0.00  0.00    +0.000 A 
ATOM      5  C   UNL     1       2.911   5.532  19.365  0.00  0.00    +0.000 A 
ATOM      6  C   UNL     1       3.958   5.131  18.513  0.00  0.00    +0.000 A 
ATOM      7  C   UNL     1       1.360   7.554  19.953  0.00  0.00    +0.000 C 
ATOM      8  N   UNL     1       1.285   8.840  19.273  0.00  0.00    +0.000 N 
ATOM      9  C   UNL     1       2.191   8.918  18.217  0.00  0.00    +0.000 C 
ATOM     10  O   UNL     1       2.439   9.817  17.434  0.00  0.00    +0.000 OA
ENDROOT
BRANCH   1  13
ATOM     11  C   UNL     1       7.513   5.579  18.379  0.00  0.00    +0.000 C 
ATOM     12  C   UNL     1       6.867   5.397  17.050  0.00  0.00    +0.000 C 
ATOM     13  C   UNL     1       5.597   5.588  16.696  0.00  0.00    +0.000 C 
ATOM     14  C   UNL     1       5.431   5.269  15.260  0.00  0.00    +0.000 C 
ATOM     15  C   UNL     1       6.762   4.587  14.975  0.00  0.00    +0.000 C 
ATOM     16  O   UNL     1       7.692   4.963  16.013  0.00  0.00    +0.000 OA
ENDBRANCH   1  13
BRANCH   8  17
ATOM     17  C   UNL     1       0.377   9.851  19.670  0.00  0.00    +0.000 A 
ATOM     18  C   UNL     1       0.530  10.546  20.871  0.00  0.00    +0.000 A 
ATOM     19  C   UNL     1      -0.358  11.560  21.224  0.00  0.00    +0.000 A 
ATOM     20  C   UNL     1      -1.441  11.857  20.399  0.00  0.00    +0.000 A 
ATOM     21  C   UNL     1      -1.676  11.148  19.208  0.00  0.00    +0.000 A 
ATOM     22  C   UNL     1      -0.718  10.176  18.853  0.00  0.00    +0.000 A 
BRANCH  21  23
ATOM     23  C   UNL     1      -2.987  11.389  18.323  0.00  0.00    +0.000 C 
ATOM     24  C   UNL     1      -2.864  11.361  16.769  0.00  0.00    +0.000 C 
ATOM     25  O   UNL     1      -4.028  10.491  16.673  0.00  0.00    +0.000 OA
ATOM     26  C   UNL     1      -3.840  10.113  18.058  0.00  0.00    +0.000 C 
BRANCH  23  27
ATOM     27  C   UNL     1      -3.821  12.572  18.846  0.00  0.00    +0.000 C 
BRANCH  27  28
ATOM     28  C   UNL     1      -5.113  12.150  19.468  0.00  0.00    +0.000 A 
ATOM     29  N   UNL     1      -5.276  11.746  20.714  0.00  0.00    +0.000 NA
ATOM     30  N   UNL     1      -6.606  11.462  20.907  0.00  0.00    +0.000 NA
ATOM     31  C   UNL     1      -7.231  11.702  19.780  0.00  0.00    +0.000 A 
ATOM     32  N   UNL     1      -6.334  12.122  18.845  0.00  0.00    +0.000 N 
ATOM     33  C   UNL     1      -6.648  12.467  17.485  0.00  0.00    +0.000 C 
ENDBRANCH  27  28
ENDBRANCH  23  27
ENDBRANCH  21  23
ENDBRANCH   8  17
BRANCH   5  34
ATOM     34  C   UNL     1       2.383   4.586  20.411  0.00  0.00    +0.000 C 
ATOM     35  F   UNL     1       3.004   3.376  20.413  0.00  0.00    +0.000 F 
ATOM     36  F   UNL     1       2.523   5.082  21.671  0.00  0.00    +0.000 F 
ATOM     37  F   UNL     1       1.058   4.326  20.250  0.00  0.00    +0.000 F 
ENDBRANCH   5  34
TORSDOF 6
ENDMDL
MODEL 5
REMARK VINA RESULT:     -10.3      2.128      3.031
REMARK  Name = 
REMARK  8 active torsions:
REMARK  status: ('A' for Active; 'I' for Inactive)
REMARK    1  A    between atoms: C_1  and  C_2
REMARK    2  A    between atoms: C_3  and  C_4
REMARK    3  A    between atoms: C_8  and  C_9
REMARK    4  A    between atoms: N_15  and  C_16
REMARK    5  A    between atoms: C_20  and  C_21
REMARK    6  A    between atoms: C_21  and  C_22
REMARK    7  A    between atoms: C_22  and  C_23
REMARK    8  A    between atoms: N_27  and  C_28
REMARK                            x       y       z     vdW  Elec       q    Type
REMARK                         _______ _______ _______ _____ _____    ______ ____
ROOT
ATOM      1  C   UNL     1       4.484   5.106  17.151  0.00  0.00    +0.000 A 
ATOM      2  C   UNL     1       4.034   6.410  17.331  0.00  0.00    +0.000 A 
ATOM      3  C   UNL     1       3.147   6.634  18.364  0.00  0.00    +0.000 A 
ATOM      4  C   UNL     1       2.701   5.627  19.216  0.00  0.00    +0.000 A 
ATOM      5  C   UNL     1       3.113   4.311  19.034  0.00  0.00    +0.000 A 
ATOM      6  C   UNL     1       4.017   4.063  17.983  0.00  0.00    +0.000 A 
ATOM      7  C   UNL     1       1.814   6.223  20.258  0.00  0.00    +0.000 C 
ATOM      8  N   UNL     1       1.768   7.635  19.897  0.00  0.00    +0.000 N 
ATOM      9  C   UNL     1       2.548   7.906  18.775  0.00  0.00    +0.000 C 
ATOM     10  O   UNL     1       2.777   8.946  18.187  0.00  0.00    +0.000 OA
ENDROOT
BRANCH   1  13
ATOM     11  C   UNL     1       7.628   4.696  17.460  0.00  0.00    +0.000 C 
ATOM     12  C   UNL     1       6.780   4.652  16.237  0.00  0.00    +0.000 C 
ATOM     13  C   UNL     1       5.466   4.839  16.114  0.00  0.00    +0.000 C 
ATOM     14  C   UNL     1       5.076   4.690  14.694  0.00  0.00    +0.000 C 
ATOM     15  C   UNL     1       6.355   4.093  14.120  0.00  0.00    +0.000 C 
ATOM     16  O   UNL     1       7.434   4.375  15.036  0.00  0.00    +0.000 OA
ENDBRANCH   1  13
BRANCH   8  17
ATOM     17  C   UNL     1       0.998   8.573  20.626  0.00  0.00    +0.000 A 
ATOM     18  C   UNL     1       0.753   8.420  21.992  0.00  0.00    +0.000 A 
ATOM     19  C   UNL     1       0.021   9.375  22.694  0.00  0.00    +0.000 A 
ATOM     20  C   UNL     1      -0.516  10.472  22.026  0.00  0.00    +0.000 A 
ATOM     21  C   UNL     1      -0.350  10.645  20.640  0.00  0.00    +0.000 A 
ATOM     22  C   UNL     1       0.453   9.693  19.979  0.00  0.00    +0.000 A 
BRANCH  21  23
ATOM     23  C   UNL     1      -1.073  11.827  19.840  0.00  0.00    +0.000 C 
ATOM     24  C   UNL     1      -2.188  11.471  18.810  0.00  0.00    +0.000 C 
ATOM     25  O   UNL     1      -3.056  12.500  19.365  0.00  0.00    +0.000 OA
ATOM     26  C   UNL     1      -2.274  12.480  20.584  0.00  0.00    +0.000 C 
BRANCH  23  27
ATOM     27  C   UNL     1      -0.062  12.859  19.309  0.00  0.00    +0.000 C 
BRANCH  27  28
ATOM     28  C   UNL     1       0.497  13.739  20.381  0.00  0.00    +0.000 A 
ATOM     29  N   UNL     1       1.396  13.387  21.280  0.00  0.00    +0.000 NA
ATOM     30  N   UNL     1       1.661  14.476  22.077  0.00  0.00    +0.000 NA
ATOM     31  C   UNL     1       0.923  15.471  21.647  0.00  0.00    +0.000 A 
ATOM     32  N   UNL     1       0.168  15.053  20.594  0.00  0.00    +0.000 N 
ATOM     33  C   UNL     1      -0.773  15.865  19.870  0.00  0.00    +0.000 C 
ENDBRANCH  27  28
ENDBRANCH  23  27
ENDBRANCH  21  23
ENDBRANCH   8  17
BRANCH   5  34
ATOM     34  C   UNL     1       2.634   3.179  19.903  0.00  0.00    +0.000 C 
ATOM     35  F   UNL     1       3.007   3.299  21.205  0.00  0.00    +0.000 F 
ATOM     36  F   UNL     1       1.277   3.075  19.911  0.00  0.00    +0.000 F 
ATOM     37  F   UNL     1       3.106   1.974  19.488  0.00  0.00    +0.000 F 
ENDBRANCH   5  34
TORSDOF 6
ENDMDL
MODEL 6
REMARK VINA RESULT:     -10.2      2.140      3.113
REMARK  Name = 
REMARK  8 active torsions:
REMARK  status: ('A' for Active; 'I' for Inactive)
REMARK    1  A    between atoms: C_1  and  C_2
REMARK    2  A    between atoms: C_3  and  C_4
REMARK    3  A    between atoms: C_8  and  C_9
REMARK    4  A    between atoms: N_15  and  C_16
REMARK    5  A    between atoms: C_20  and  C_21
REMARK    6  A    between atoms: C_21  and  C_22
REMARK    7  A    between atoms: C_22  and  C_23
REMARK    8  A    between atoms: N_27  and  C_28
REMARK                            x       y       z     vdW  Elec       q    Type
REMARK                         _______ _______ _______ _____ _____    ______ ____
ROOT
ATOM      1  C   UNL     1       4.473   5.097  17.386  0.00  0.00    +0.000 A 
ATOM      2  C   UNL     1       3.982   6.393  17.511  0.00  0.00    +0.000 A 
ATOM      3  C   UNL     1       3.097   6.637  18.540  0.00  0.00    +0.000 A 
ATOM      4  C   UNL     1       2.689   5.656  19.442  0.00  0.00    +0.000 A 
ATOM      5  C   UNL     1       3.142   4.347  19.316  0.00  0.00    +0.000 A 
ATOM      6  C   UNL     1       4.045   4.079  18.270  0.00  0.00    +0.000 A 
ATOM      7  C   UNL     1       1.792   6.272  20.463  0.00  0.00    +0.000 C 
ATOM      8  N   UNL     1       1.698   7.663  20.038  0.00  0.00    +0.000 N 
ATOM      9  C   UNL     1       2.461   7.907  18.898  0.00  0.00    +0.000 C 
ATOM     10  O   UNL     1       2.652   8.925  18.260  0.00  0.00    +0.000 OA
ENDROOT
BRANCH   1  13
ATOM     11  C   UNL     1       7.618   4.700  17.701  0.00  0.00    +0.000 C 
ATOM     12  C   UNL     1       6.769   4.632  16.479  0.00  0.00    +0.000 C 
ATOM     13  C   UNL     1       5.455   4.813  16.355  0.00  0.00    +0.000 C 
ATOM     14  C   UNL     1       5.064   4.637  14.937  0.00  0.00    +0.000 C 
ATOM     15  C   UNL     1       6.344   4.033  14.373  0.00  0.00    +0.000 C 
ATOM     16  O   UNL     1       7.423   4.334  15.284  0.00  0.00    +0.000 OA
ENDBRANCH   1  13
BRANCH   8  17
ATOM     17  C   UNL     1       0.905   8.610  20.730  0.00  0.00    +0.000 A 
ATOM     18  C   UNL     1       0.497   8.403  22.049  0.00  0.00    +0.000 A 
ATOM     19  C   UNL     1      -0.255   9.364  22.720  0.00  0.00    +0.000 A 
ATOM     20  C   UNL     1      -0.650  10.526  22.060  0.00  0.00    +0.000 A 
ATOM     21  C   UNL     1      -0.317  10.758  20.714  0.00  0.00    +0.000 A 
ATOM     22  C   UNL     1       0.501   9.793  20.092  0.00  0.00    +0.000 A 
BRANCH  21  23
ATOM     23  C   UNL     1      -0.876  12.023  19.908  0.00  0.00    +0.000 C 
ATOM     24  C   UNL     1      -0.557  12.150  18.388  0.00  0.00    +0.000 C 
ATOM     25  O   UNL     1      -1.951  12.459  18.101  0.00  0.00    +0.000 OA
ATOM     26  C   UNL     1      -2.327  11.862  19.366  0.00  0.00    +0.000 C 
BRANCH  23  27
ATOM     27  C   UNL     1      -0.666  13.334  20.686  0.00  0.00    +0.000 C 
BRANCH  27  28
ATOM     28  C   UNL     1       0.764  13.769  20.729  0.00  0.00    +0.000 A 
ATOM     29  N   UNL     1       1.707  13.251  21.494  0.00  0.00    +0.000 NA
ATOM     30  N   UNL     1       2.885  13.909  21.234  0.00  0.00    +0.000 NA
ATOM     31  C   UNL     1       2.641  14.811  20.314  0.00  0.00    +0.000 A 
ATOM     32  N   UNL     1       1.323  14.769  19.976  0.00  0.00    +0.000 N 
ATOM     33  C   UNL     1       0.683  15.620  19.009  0.00  0.00    +0.000 C 
ENDBRANCH  27  28
ENDBRANCH  23  27
ENDBRANCH  21  23
ENDBRANCH   8  17
BRANCH   5  34
ATOM     34  C   UNL     1       2.705   3.242  20.241  0.00  0.00    +0.000 C 
ATOM     35  F   UNL     1       1.442   2.799  19.999  0.00  0.00    +0.000 F 
ATOM     36  F   UNL     1       3.510   2.149  20.152  0.00  0.00    +0.000 F 
ATOM     37  F   UNL     1       2.724   3.623  21.546  0.00  0.00    +0.000 F 
ENDBRANCH   5  34
TORSDOF 6
ENDMDL
MODEL 7
REMARK VINA RESULT:     -10.2      0.882      1.411
REMARK  Name = 
REMARK  8 active torsions:
REMARK  status: ('A' for Active; 'I' for Inactive)
REMARK    1  A    between atoms: C_1  and  C_2
REMARK    2  A    between atoms: C_3  and  C_4
REMARK    3  A    between atoms: C_8  and  C_9
REMARK    4  A    between atoms: N_15  and  C_16
REMARK    5  A    between atoms: C_20  and  C_21
REMARK    6  A    between atoms: C_21  and  C_22
REMARK    7  A    between atoms: C_22  and  C_23
REMARK    8  A    between atoms: N_27  and  C_28
REMARK                            x       y       z     vdW  Elec       q    Type
REMARK                         _______ _______ _______ _____ _____    ______ ____
ROOT
ATOM      1  C   UNL     1       4.395   5.309  17.555  0.00  0.00    +0.000 A 
ATOM      2  C   UNL     1       3.914   6.614  17.579  0.00  0.00    +0.000 A 
ATOM      3  C   UNL     1       3.002   6.934  18.562  0.00  0.00    +0.000 A 
ATOM      4  C   UNL     1       2.558   6.018  19.514  0.00  0.00    +0.000 A 
ATOM      5  C   UNL     1       3.000   4.701  19.490  0.00  0.00    +0.000 A 
ATOM      6  C   UNL     1       3.931   4.356  18.491  0.00  0.00    +0.000 A 
ATOM      7  C   UNL     1       1.637   6.708  20.465  0.00  0.00    +0.000 C 
ATOM      8  N   UNL     1       1.570   8.069  19.946  0.00  0.00    +0.000 N 
ATOM      9  C   UNL     1       2.368   8.230  18.816  0.00  0.00    +0.000 C 
ATOM     10  O   UNL     1       2.588   9.202  18.118  0.00  0.00    +0.000 OA
ENDROOT
BRANCH   1  13
ATOM     11  C   UNL     1       7.545   5.052  17.957  0.00  0.00    +0.000 C 
ATOM     12  C   UNL     1       6.721   4.826  16.737  0.00  0.00    +0.000 C 
ATOM     13  C   UNL     1       5.404   4.949  16.574  0.00  0.00    +0.000 C 
ATOM     14  C   UNL     1       5.045   4.609  15.178  0.00  0.00    +0.000 C 
ATOM     15  C   UNL     1       6.353   3.992  14.702  0.00  0.00    +0.000 C 
ATOM     16  O   UNL     1       7.406   4.424  15.591  0.00  0.00    +0.000 OA
ENDBRANCH   1  13
BRANCH   8  17
ATOM     17  C   UNL     1       0.766   9.066  20.550  0.00  0.00    +0.000 A 
ATOM     18  C   UNL     1       0.173   8.875  21.799  0.00  0.00    +0.000 A 
ATOM     19  C   UNL     1      -0.586   9.883  22.387  0.00  0.00    +0.000 A 
ATOM     20  C   UNL     1      -0.801  11.081  21.708  0.00  0.00    +0.000 A 
ATOM     21  C   UNL     1      -0.276  11.304  20.423  0.00  0.00    +0.000 A 
ATOM     22  C   UNL     1       0.542  10.285  19.892  0.00  0.00    +0.000 A 
BRANCH  21  23
ATOM     23  C   UNL     1      -0.625  12.618  19.580  0.00  0.00    +0.000 C 
ATOM     24  C   UNL     1      -1.379  13.788  20.282  0.00  0.00    +0.000 C 
ATOM     25  O   UNL     1      -0.436  14.752  19.734  0.00  0.00    +0.000 OA
ATOM     26  C   UNL     1       0.514  13.679  19.523  0.00  0.00    +0.000 C 
BRANCH  23  27
ATOM     27  C   UNL     1      -1.195  12.273  18.193  0.00  0.00    +0.000 C 
BRANCH  27  28
ATOM     28  C   UNL     1      -2.589  11.736  18.248  0.00  0.00    +0.000 A 
ATOM     29  N   UNL     1      -3.546  12.151  19.057  0.00  0.00    +0.000 NA
ATOM     30  N   UNL     1      -4.682  11.423  18.793  0.00  0.00    +0.000 NA
ATOM     31  C   UNL     1      -4.399  10.583  17.827  0.00  0.00    +0.000 A 
ATOM     32  N   UNL     1      -3.096  10.734  17.462  0.00  0.00    +0.000 N 
ATOM     33  C   UNL     1      -2.423   9.975  16.442  0.00  0.00    +0.000 C 
ENDBRANCH  27  28
ENDBRANCH  23  27
ENDBRANCH  21  23
ENDBRANCH   8  17
BRANCH   5  34
ATOM     34  C   UNL     1       2.526   3.663  20.472  0.00  0.00    +0.000 C 
ATOM     35  F   UNL     1       3.247   2.511  20.436  0.00  0.00    +0.000 F 
ATOM     36  F   UNL     1       2.588   4.105  21.758  0.00  0.00    +0.000 F 
ATOM     37  F   UNL     1       1.233   3.301  20.256  0.00  0.00    +0.000 F 
ENDBRANCH   5  34
TORSDOF 6
ENDMDL
MODEL 8
REMARK VINA RESULT:     -10.1      1.970      2.917
REMARK  Name = 
REMARK  8 active torsions:
REMARK  status: ('A' for Active; 'I' for Inactive)
REMARK    1  A    between atoms: C_1  and  C_2
REMARK    2  A    between atoms: C_3  and  C_4
REMARK    3  A    between atoms: C_8  and  C_9
REMARK    4  A    between atoms: N_15  and  C_16
REMARK    5  A    between atoms: C_20  and  C_21
REMARK    6  A    between atoms: C_21  and  C_22
REMARK    7  A    between atoms: C_22  and  C_23
REMARK    8  A    between atoms: N_27  and  C_28
REMARK                            x       y       z     vdW  Elec       q    Type
REMARK                         _______ _______ _______ _____ _____    ______ ____
ROOT
ATOM      1  C   UNL     1       4.463   5.173  17.275  0.00  0.00    +0.000 A 
ATOM      2  C   UNL     1       4.012   6.481  17.419  0.00  0.00    +0.000 A 
ATOM      3  C   UNL     1       3.114   6.732  18.436  0.00  0.00    +0.000 A 
ATOM      4  C   UNL     1       2.656   5.746  19.307  0.00  0.00    +0.000 A 
ATOM      5  C   UNL     1       3.068   4.426  19.161  0.00  0.00    +0.000 A 
ATOM      6  C   UNL     1       3.984   4.151  18.127  0.00  0.00    +0.000 A 
ATOM      7  C   UNL     1       1.758   6.369  20.323  0.00  0.00    +0.000 C 
ATOM      8  N   UNL     1       1.719   7.771  19.928  0.00  0.00    +0.000 N 
ATOM      9  C   UNL     1       2.513   8.014  18.809  0.00  0.00    +0.000 C 
ATOM     10  O   UNL     1       2.749   9.039  18.198  0.00  0.00    +0.000 OA
ENDROOT
BRANCH   1  13
ATOM     11  C   UNL     1       7.594   4.715  17.637  0.00  0.00    +0.000 C 
ATOM     12  C   UNL     1       6.765   4.673  16.402  0.00  0.00    +0.000 C 
ATOM     13  C   UNL     1       5.456   4.880  16.257  0.00  0.00    +0.000 C 
ATOM     14  C   UNL     1       5.085   4.722  14.832  0.00  0.00    +0.000 C 
ATOM     15  C   UNL     1       6.363   4.100  14.284  0.00  0.00    +0.000 C 
ATOM     16  O   UNL     1       7.432   4.373  15.215  0.00  0.00    +0.000 OA
ENDBRANCH   1  13
BRANCH   8  17
ATOM     17  C   UNL     1       0.943   8.728  20.625  0.00  0.00    +0.000 A 
ATOM     18  C   UNL     1       0.688   8.612  21.993  0.00  0.00    +0.000 A 
ATOM     19  C   UNL     1      -0.051   9.584  22.664  0.00  0.00    +0.000 A 
ATOM     20  C   UNL     1      -0.585  10.662  21.961  0.00  0.00    +0.000 A 
ATOM     21  C   UNL     1      -0.409  10.797  20.573  0.00  0.00    +0.000 A 
ATOM     22  C   UNL     1       0.400   9.828  19.944  0.00  0.00    +0.000 A 
BRANCH  21  23
ATOM     23  C   UNL     1      -1.128  11.955  19.735  0.00  0.00    +0.000 C 
ATOM     24  C   UNL     1      -0.856  12.060  18.203  0.00  0.00    +0.000 C 
ATOM     25  O   UNL     1      -2.282  12.193  17.939  0.00  0.00    +0.000 OA
ATOM     26  C   UNL     1      -2.560  11.606  19.234  0.00  0.00    +0.000 C 
BRANCH  23  27
ATOM     27  C   UNL     1      -1.058  13.311  20.459  0.00  0.00    +0.000 C 
BRANCH  27  28
ATOM     28  C   UNL     1      -0.111  14.272  19.815  0.00  0.00    +0.000 A 
ATOM     29  N   UNL     1      -0.444  15.276  19.025  0.00  0.00    +0.000 NA
ATOM     30  N   UNL     1       0.704  15.932  18.650  0.00  0.00    +0.000 NA
ATOM     31  C   UNL     1       1.714  15.320  19.219  0.00  0.00    +0.000 A 
ATOM     32  N   UNL     1       1.254  14.267  19.949  0.00  0.00    +0.000 N 
ATOM     33  C   UNL     1       2.071  13.356  20.704  0.00  0.00    +0.000 C 
ENDBRANCH  27  28
ENDBRANCH  23  27
ENDBRANCH  21  23
ENDBRANCH   8  17
BRANCH   5  34
ATOM     34  C   UNL     1       2.577   3.316  20.052  0.00  0.00    +0.000 C 
ATOM     35  F   UNL     1       1.231   3.130  19.996  0.00  0.00    +0.000 F 
ATOM     36  F   UNL     1       3.135   2.116  19.735  0.00  0.00    +0.000 F 
ATOM     37  F   UNL     1       2.870   3.537  21.361  0.00  0.00    +0.000 F 
ENDBRANCH   5  34
TORSDOF 6
ENDMDL
MODEL 9
REMARK VINA RESULT:     -10.1      1.645      2.399
REMARK  Name = 
REMARK  8 active torsions:
REMARK  status: ('A' for Active; 'I' for Inactive)
REMARK    1  A    between atoms: C_1  and  C_2
REMARK    2  A    between atoms: C_3  and  C_4
REMARK    3  A    between atoms: C_8  and  C_9
REMARK    4  A    between atoms: N_15  and  C_16
REMARK    5  A    between atoms: C_20  and  C_21
REMARK    6  A    between atoms: C_21  and  C_22
REMARK    7  A    between atoms: C_22  and  C_23
REMARK    8  A    between atoms: N_27  and  C_28
REMARK                            x       y       z     vdW  Elec       q    Type
REMARK                         _______ _______ _______ _____ _____    ______ ____
ROOT
ATOM      1  C   UNL     1       4.361   5.382  17.534  0.00  0.00    +0.000 A 
ATOM      2  C   UNL     1       3.888   6.688  17.595  0.00  0.00    +0.000 A 
ATOM      3  C   UNL     1       2.963   6.980  18.576  0.00  0.00    +0.000 A 
ATOM      4  C   UNL     1       2.501   6.036  19.490  0.00  0.00    +0.000 A 
ATOM      5  C   UNL     1       2.936   4.718  19.428  0.00  0.00    +0.000 A 
ATOM      6  C   UNL     1       3.879   4.401  18.431  0.00  0.00    +0.000 A 
ATOM      7  C   UNL     1       1.570   6.700  20.451  0.00  0.00    +0.000 C 
ATOM      8  N   UNL     1       1.518   8.077  19.977  0.00  0.00    +0.000 N 
ATOM      9  C   UNL     1       2.334   8.271  18.864  0.00  0.00    +0.000 C 
ATOM     10  O   UNL     1       2.569   9.265  18.202  0.00  0.00    +0.000 OA
ENDROOT
BRANCH   1  13
ATOM     11  C   UNL     1       7.493   5.949  17.668  0.00  0.00    +0.000 C 
ATOM     12  C   UNL     1       6.695   5.270  16.610  0.00  0.00    +0.000 C 
ATOM     13  C   UNL     1       5.382   5.049  16.556  0.00  0.00    +0.000 C 
ATOM     14  C   UNL     1       5.054   4.328  15.305  0.00  0.00    +0.000 C 
ATOM     15  C   UNL     1       6.451   3.934  14.841  0.00  0.00    +0.000 C 
ATOM     16  O   UNL     1       7.405   4.785  15.512  0.00  0.00    +0.000 OA
ENDBRANCH   1  13
BRANCH   8  17
ATOM     17  C   UNL     1       0.712   9.058  20.602  0.00  0.00    +0.000 A 
ATOM     18  C   UNL     1       0.616   9.154  21.992  0.00  0.00    +0.000 A 
ATOM     19  C   UNL     1      -0.157  10.150  22.584  0.00  0.00    +0.000 A 
ATOM     20  C   UNL     1      -0.885  11.033  21.789  0.00  0.00    +0.000 A 
ATOM     21  C   UNL     1      -0.872  10.944  20.386  0.00  0.00    +0.000 A 
ATOM     22  C   UNL     1      -0.024   9.967  19.825  0.00  0.00    +0.000 A 
BRANCH  21  23
ATOM     23  C   UNL     1      -1.805  11.865  19.469  0.00  0.00    +0.000 C 
ATOM     24  C   UNL     1      -1.317  12.247  18.038  0.00  0.00    +0.000 C 
ATOM     25  O   UNL     1      -2.615  11.896  17.481  0.00  0.00    +0.000 OA
ATOM     26  C   UNL     1      -2.886  11.094  18.656  0.00  0.00    +0.000 C 
BRANCH  23  27
ATOM     27  C   UNL     1      -2.379  13.058  20.254  0.00  0.00    +0.000 C 
BRANCH  27  28
ATOM     28  C   UNL     1      -3.828  12.899  20.586  0.00  0.00    +0.000 A 
ATOM     29  N   UNL     1      -4.828  12.936  19.725  0.00  0.00    +0.000 NA
ATOM     30  N   UNL     1      -6.000  12.735  20.414  0.00  0.00    +0.000 NA
ATOM     31  C   UNL     1      -5.695  12.576  21.679  0.00  0.00    +0.000 A 
ATOM     32  N   UNL     1      -4.346  12.683  21.837  0.00  0.00    +0.000 N 
ATOM     33  C   UNL     1      -3.643  12.578  23.087  0.00  0.00    +0.000 C 
ENDBRANCH  27  28
ENDBRANCH  23  27
ENDBRANCH  21  23
ENDBRANCH   8  17
BRANCH   5  34
ATOM     34  C   UNL     1       2.442   3.651  20.368  0.00  0.00    +0.000 C 
ATOM     35  F   UNL     1       1.106   3.415  20.268  0.00  0.00    +0.000 F 
ATOM     36  F   UNL     1       3.052   2.453  20.154  0.00  0.00    +0.000 F 
ATOM     37  F   UNL     1       2.669   3.966  21.671  0.00  0.00    +0.000 F 
ENDBRANCH   5  34
TORSDOF 6
ENDMDL
