MODEL 1
REMARK VINA RESULT:      -8.0      0.000      0.000
REMARK  Name = 
REMARK  11 active torsions:
REMARK  status: ('A' for Active; 'I' for Inactive)
REMARK    1  A    between atoms: C_1  and  C_2
REMARK    2  A    between atoms: C_2  and  S_3
REMARK    3  A    between atoms: C_2  and  C_10
REMARK    4  A    between atoms: S_3  and  C_4
REMARK    5  A    between atoms: N_8  and  C_9
REMARK    6  A    between atoms: C_14  and  N_15
REMARK    7  A    between atoms: N_18  and  C_19
REMARK    8  A    between atoms: C_22  and  C_23
REMARK    9  A    between atoms: C_23  and  C_24
REMARK   10  A    between atoms: N_26  and  C_27
REMARK   11  A    between atoms: N_26  and  C_28
REMARK                            x       y       z     vdW  Elec       q    Type
REMARK                         _______ _______ _______ _____ _____    ______ ____
ROOT
ATOM      1  N   UNL     1       9.367   9.180  19.080  0.00  0.00    +0.000 N 
ATOM      2  C   UNL     1       8.317   8.520  18.452  0.00  0.00    +0.000 C 
ATOM      3  O   UNL     1       7.490   9.059  17.722  0.00  0.00    +0.000 OA
ATOM      4  N   UNL     1       8.282   7.173  18.778  0.00  0.00    +0.000 N 
ATOM      5  H   UNL     1      10.177   8.616  19.295  0.00  0.00    +0.000 HD
ATOM      6  H   UNL     1       8.614   6.954  19.706  0.00  0.00    +0.000 HD
ENDROOT
BRANCH   1  11
ATOM      7  C   UNL     1       9.207  12.721  20.299  0.00  0.00    +0.000 A 
ATOM      8  C   UNL     1       9.885  13.374  19.257  0.00  0.00    +0.000 A 
ATOM      9  C   UNL     1      10.335  12.666  18.144  0.00  0.00    +0.000 A 
ATOM     10  C   UNL     1      10.151  11.288  18.069  0.00  0.00    +0.000 A 
ATOM     11  C   UNL     1       9.529  10.591  19.106  0.00  0.00    +0.000 A 
ATOM     12  C   UNL     1       9.030  11.318  20.200  0.00  0.00    +0.000 A 
BRANCH   7  14
ATOM     13  C   UNL     1       9.695  14.466  22.129  0.00  0.00    +0.000 C 
ATOM     14  C   UNL     1       8.683  13.474  21.530  0.00  0.00    +0.000 C 
BRANCH  14  15
ATOM     15  S   UNL     1       8.169  12.243  22.797  0.00  0.00    +0.000 S 
BRANCH  15  16
ATOM     16  C   UNL     1       6.881  13.035  23.629  0.00  0.00    +0.000 A 
ATOM     17  N   UNL     1       5.640  13.183  23.240  0.00  0.00    +0.000 NA
ATOM     18  N   UNL     1       4.988  13.937  24.203  0.00  0.00    +0.000 NA
ATOM     19  C   UNL     1       5.859  14.204  25.153  0.00  0.00    +0.000 A 
ATOM     20  N   UNL     1       7.055  13.630  24.846  0.00  0.00    +0.000 N 
ATOM     21  C   UNL     1       8.241  13.656  25.656  0.00  0.00    +0.000 C 
ENDBRANCH  15  16
ENDBRANCH  14  15
ENDBRANCH   7  14
ENDBRANCH   1  11
BRANCH   4  22
ATOM     22  C   UNL     1       7.288   6.309  18.250  0.00  0.00    +0.000 A 
ATOM     23  C   UNL     1       7.135   6.110  16.875  0.00  0.00    +0.000 A 
ATOM     24  C   UNL     1       6.158   5.231  16.384  0.00  0.00    +0.000 A 
ATOM     25  C   UNL     1       5.304   4.547  17.260  0.00  0.00    +0.000 A 
ATOM     26  C   UNL     1       5.436   4.789  18.636  0.00  0.00    +0.000 A 
ATOM     27  C   UNL     1       6.439   5.634  19.129  0.00  0.00    +0.000 A 
BRANCH  25  28
ATOM     28  C   UNL     1       4.254   3.585  16.728  0.00  0.00    +0.000 C 
BRANCH  28  29
ATOM     29  C   UNL     1       2.946   3.538  17.533  0.00  0.00    +0.000 C 
ATOM     30  O   UNL     1       2.110   4.439  17.456  0.00  0.00    +0.000 OA
ATOM     31  N   UNL     1       2.735   2.431  18.355  0.00  0.00    +0.000 N 
ATOM     32  C   UNL     1       3.645   1.309  18.520  0.00  0.00    +0.000 C 
ATOM     33  C   UNL     1       1.521   2.378  19.157  0.00  0.00    +0.000 C 
ENDBRANCH  28  29
ENDBRANCH  25  28
ENDBRANCH   4  22
TORSDOF 7
ENDMDL
MODEL 2
REMARK VINA RESULT:      -8.0      3.783     10.018
REMARK  Name = 
REMARK  11 active torsions:
REMARK  status: ('A' for Active; 'I' for Inactive)
REMARK    1  A    between atoms: C_1  and  C_2
REMARK    2  A    between atoms: C_2  and  S_3
REMARK    3  A    between atoms: C_2  and  C_10
REMARK    4  A    between atoms: S_3  and  C_4
REMARK    5  A    between atoms: N_8  and  C_9
REMARK    6  A    between atoms: C_14  and  N_15
REMARK    7  A    between atoms: N_18  and  C_19
REMARK    8  A    between atoms: C_22  and  C_23
REMARK    9  A    between atoms: C_23  and  C_24
REMARK   10  A    between atoms: N_26  and  C_27
REMARK   11  A    between atoms: N_26  and  C_28
REMARK                            x       y       z     vdW  Elec       q    Type
REMARK                         _______ _______ _______ _____ _____    ______ ____
ROOT
ATOM      1  N   UNL     1       7.784   6.580  18.261  0.00  0.00    +0.000 N 
ATOM      2  C   UNL     1       7.882   7.960  18.139  0.00  0.00    +0.000 C 
ATOM      3  O   UNL     1       7.229   8.639  17.352  0.00  0.00    +0.000 OA
ATOM      4  N   UNL     1       8.842   8.490  18.988  0.00  0.00    +0.000 N 
ATOM      5  H   UNL     1       8.033   6.198  19.163  0.00  0.00    +0.000 HD
ATOM      6  H   UNL     1       9.626   7.880  19.170  0.00  0.00    +0.000 HD
ENDROOT
BRANCH   1  11
ATOM      7  C   UNL     1       5.268   4.071  17.065  0.00  0.00    +0.000 A 
ATOM      8  C   UNL     1       5.502   4.125  15.682  0.00  0.00    +0.000 A 
ATOM      9  C   UNL     1       6.510   4.932  15.158  0.00  0.00    +0.000 A 
ATOM     10  C   UNL     1       7.279   5.727  16.003  0.00  0.00    +0.000 A 
ATOM     11  C   UNL     1       7.047   5.745  17.379  0.00  0.00    +0.000 A 
ATOM     12  C   UNL     1       6.064   4.889  17.905  0.00  0.00    +0.000 A 
BRANCH   7  14
ATOM     13  C   UNL     1       2.756   3.518  17.191  0.00  0.00    +0.000 C 
ATOM     14  C   UNL     1       4.176   3.180  17.675  0.00  0.00    +0.000 C 
BRANCH  14  15
ATOM     15  S   UNL     1       4.273   3.305  19.508  0.00  0.00    +0.000 S 
BRANCH  15  16
ATOM     16  C   UNL     1       3.153   4.563  19.886  0.00  0.00    +0.000 A 
ATOM     17  N   UNL     1       3.246   5.837  19.602  0.00  0.00    +0.000 NA
ATOM     18  N   UNL     1       2.145   6.469  20.156  0.00  0.00    +0.000 NA
ATOM     19  C   UNL     1       1.412   5.547  20.744  0.00  0.00    +0.000 A 
ATOM     20  N   UNL     1       1.996   4.328  20.572  0.00  0.00    +0.000 N 
ATOM     21  C   UNL     1       1.477   3.068  21.026  0.00  0.00    +0.000 C 
ENDBRANCH  15  16
ENDBRANCH  14  15
ENDBRANCH   7  14
ENDBRANCH   1  11
BRANCH   4  22
ATOM     22  C   UNL     1       9.110   9.882  19.025  0.00  0.00    +0.000 A 
ATOM     23  C   UNL     1       9.356  10.557  20.225  0.00  0.00    +0.000 A 
ATOM     24  C   UNL     1       9.642  11.930  20.227  0.00  0.00    +0.000 A 
ATOM     25  C   UNL     1       9.669  12.659  19.030  0.00  0.00    +0.000 A 
ATOM     26  C   UNL     1       9.375  11.982  17.837  0.00  0.00    +0.000 A 
ATOM     27  C   UNL     1       9.132  10.601  17.829  0.00  0.00    +0.000 A 
BRANCH  25  28
ATOM     28  C   UNL     1       9.991  14.145  19.033  0.00  0.00    +0.000 C 
BRANCH  28  29
ATOM     29  C   UNL     1       8.769  15.075  19.086  0.00  0.00    +0.000 C 
ATOM     30  O   UNL     1       7.722  14.731  19.635  0.00  0.00    +0.000 OA
ATOM     31  N   UNL     1       8.890  16.332  18.495  0.00  0.00    +0.000 N 
ATOM     32  C   UNL     1      10.074  16.847  17.826  0.00  0.00    +0.000 C 
ATOM     33  C   UNL     1       7.736  17.220  18.499  0.00  0.00    +0.000 C 
ENDBRANCH  28  29
ENDBRANCH  25  28
ENDBRANCH   4  22
TORSDOF 7
ENDMDL
MODEL 3
REMARK VINA RESULT:      -8.0      3.873     10.083
REMARK  Name = 
REMARK  11 active torsions:
REMARK  status: ('A' for Active; 'I' for Inactive)
REMARK    1  A    between atoms: C_1  and  C_2
REMARK    2  A    between atoms: C_2  and  S_3
REMARK    3  A    between atoms: C_2  and  C_10
REMARK    4  A    between atoms: S_3  and  C_4
REMARK    5  A    between atoms: N_8  and  C_9
REMARK    6  A    between atoms: C_14  and  N_15
REMARK    7  A    between atoms: N_18  and  C_19
REMARK    8  A    between atoms: C_22  and  C_23
REMARK    9  A    between atoms: C_23  and  C_24
REMARK   10  A    between atoms: N_26  and  C_27
REMARK   11  A    between atoms: N_26  and  C_28
REMARK                            x       y       z     vdW  Elec       q    Type
REMARK                         _______ _______ _______ _____ _____    ______ ____
ROOT
ATOM      1  N   UNL     1       7.859   6.613  18.161  0.00  0.00    +0.000 N 
ATOM      2  C   UNL     1       7.877   8.001  18.217  0.00  0.00    +0.000 C 
ATOM      3  O   UNL     1       7.076   8.733  17.644  0.00  0.00    +0.000 OA
ATOM      4  N   UNL     1       8.940   8.477  18.970  0.00  0.00    +0.000 N 
ATOM      5  H   UNL     1       8.268   6.134  18.952  0.00  0.00    +0.000 HD
ATOM      6  H   UNL     1       9.768   7.900  18.942  0.00  0.00    +0.000 HD
ENDROOT
BRANCH   1  11
ATOM      7  C   UNL     1       5.210   4.208  17.043  0.00  0.00    +0.000 A 
ATOM      8  C   UNL     1       5.290   4.380  15.652  0.00  0.00    +0.000 A 
ATOM      9  C   UNL     1       6.241   5.230  15.090  0.00  0.00    +0.000 A 
ATOM     10  C   UNL     1       7.104   5.953  15.909  0.00  0.00    +0.000 A 
ATOM     11  C   UNL     1       7.024   5.854  17.299  0.00  0.00    +0.000 A 
ATOM     12  C   UNL     1       6.099   4.954  17.856  0.00  0.00    +0.000 A 
BRANCH   7  14
ATOM     13  C   UNL     1       2.740   3.500  17.220  0.00  0.00    +0.000 C 
ATOM     14  C   UNL     1       4.185   3.267  17.692  0.00  0.00    +0.000 C 
BRANCH  14  15
ATOM     15  S   UNL     1       4.298   3.448  19.520  0.00  0.00    +0.000 S 
BRANCH  15  16
ATOM     16  C   UNL     1       3.164   4.701  19.871  0.00  0.00    +0.000 A 
ATOM     17  N   UNL     1       3.238   5.968  19.551  0.00  0.00    +0.000 NA
ATOM     18  N   UNL     1       2.133   6.601  20.096  0.00  0.00    +0.000 NA
ATOM     19  C   UNL     1       1.417   5.686  20.715  0.00  0.00    +0.000 A 
ATOM     20  N   UNL     1       2.015   4.470  20.572  0.00  0.00    +0.000 N 
ATOM     21  C   UNL     1       1.516   3.217  21.066  0.00  0.00    +0.000 C 
ENDBRANCH  15  16
ENDBRANCH  14  15
ENDBRANCH   7  14
ENDBRANCH   1  11
BRANCH   4  22
ATOM     22  C   UNL     1       9.151   9.867  19.157  0.00  0.00    +0.000 A 
ATOM     23  C   UNL     1       9.187  10.446  20.429  0.00  0.00    +0.000 A 
ATOM     24  C   UNL     1       9.422  11.820  20.583  0.00  0.00    +0.000 A 
ATOM     25  C   UNL     1       9.607  12.645  19.465  0.00  0.00    +0.000 A 
ATOM     26  C   UNL     1       9.523  12.063  18.191  0.00  0.00    +0.000 A 
ATOM     27  C   UNL     1       9.332  10.682  18.039  0.00  0.00    +0.000 A 
BRANCH  25  28
ATOM     28  C   UNL     1       9.874  14.133  19.633  0.00  0.00    +0.000 C 
BRANCH  28  29
ATOM     29  C   UNL     1      10.721  14.772  18.522  0.00  0.00    +0.000 C 
ATOM     30  O   UNL     1      11.913  14.495  18.382  0.00  0.00    +0.000 OA
ATOM     31  N   UNL     1      10.089  15.675  17.668  0.00  0.00    +0.000 N 
ATOM     32  C   UNL     1       8.692  16.071  17.734  0.00  0.00    +0.000 C 
ATOM     33  C   UNL     1      10.877  16.323  16.628  0.00  0.00    +0.000 C 
ENDBRANCH  28  29
ENDBRANCH  25  28
ENDBRANCH   4  22
TORSDOF 7
ENDMDL
MODEL 4
REMARK VINA RESULT:      -7.9      6.986      8.916
REMARK  Name = 
REMARK  11 active torsions:
REMARK  status: ('A' for Active; 'I' for Inactive)
REMARK    1  A    between atoms: C_1  and  C_2
REMARK    2  A    between atoms: C_2  and  S_3
REMARK    3  A    between atoms: C_2  and  C_10
REMARK    4  A    between atoms: S_3  and  C_4
REMARK    5  A    between atoms: N_8  and  C_9
REMARK    6  A    between atoms: C_14  and  N_15
REMARK    7  A    between atoms: N_18  and  C_19
REMARK    8  A    between atoms: C_22  and  C_23
REMARK    9  A    between atoms: C_23  and  C_24
REMARK   10  A    between atoms: N_26  and  C_27
REMARK   11  A    between atoms: N_26  and  C_28
REMARK                            x       y       z     vdW  Elec       q    Type
REMARK                         _______ _______ _______ _____ _____    ______ ____
ROOT
ATOM      1  N   UNL     1       1.705   7.540  21.068  0.00  0.00    +0.000 N 
ATOM      2  C   UNL     1       2.391   7.162  19.920  0.00  0.00    +0.000 C 
ATOM      3  O   UNL     1       2.526   7.867  18.924  0.00  0.00    +0.000 OA
ATOM      4  N   UNL     1       2.879   5.867  20.010  0.00  0.00    +0.000 N 
ATOM      5  H   UNL     1       1.996   7.090  21.925  0.00  0.00    +0.000 HD
ATOM      6  H   UNL     1       2.314   5.241  20.564  0.00  0.00    +0.000 HD
ENDROOT
BRANCH   1  11
ATOM      7  C   UNL     1      -0.228  10.596  20.081  0.00  0.00    +0.000 A 
ATOM      8  C   UNL     1      -0.695  11.012  21.339  0.00  0.00    +0.000 A 
ATOM      9  C   UNL     1      -0.330  10.330  22.498  0.00  0.00    +0.000 A 
ATOM     10  C   UNL     1       0.477   9.198  22.419  0.00  0.00    +0.000 A 
ATOM     11  C   UNL     1       0.920   8.718  21.185  0.00  0.00    +0.000 A 
ATOM     12  C   UNL     1       0.592   9.442  20.026  0.00  0.00    +0.000 A 
BRANCH   7  14
ATOM     13  C   UNL     1      -1.312  12.677  19.021  0.00  0.00    +0.000 C 
ATOM     14  C   UNL     1      -0.598  11.335  18.787  0.00  0.00    +0.000 C 
BRANCH  14  15
ATOM     15  S   UNL     1      -1.643  10.227  17.756  0.00  0.00    +0.000 S 
BRANCH  15  16
ATOM     16  C   UNL     1      -3.171  11.029  17.722  0.00  0.00    +0.000 A 
ATOM     17  N   UNL     1      -3.854  11.505  18.732  0.00  0.00    +0.000 NA
ATOM     18  N   UNL     1      -5.045  12.005  18.231  0.00  0.00    +0.000 NA
ATOM     19  C   UNL     1      -5.032  11.829  16.927  0.00  0.00    +0.000 A 
ATOM     20  N   UNL     1      -3.857  11.244  16.561  0.00  0.00    +0.000 N 
ATOM     21  C   UNL     1      -3.447  10.932  15.220  0.00  0.00    +0.000 C 
ENDBRANCH  15  16
ENDBRANCH  14  15
ENDBRANCH   7  14
ENDBRANCH   1  11
BRANCH   4  22
ATOM     22  C   UNL     1       3.610   5.277  18.947  0.00  0.00    +0.000 A 
ATOM     23  C   UNL     1       2.981   4.556  17.927  0.00  0.00    +0.000 A 
ATOM     24  C   UNL     1       3.728   4.004  16.877  0.00  0.00    +0.000 A 
ATOM     25  C   UNL     1       5.122   4.146  16.836  0.00  0.00    +0.000 A 
ATOM     26  C   UNL     1       5.748   4.832  17.888  0.00  0.00    +0.000 A 
ATOM     27  C   UNL     1       4.998   5.421  18.915  0.00  0.00    +0.000 A 
BRANCH  25  28
ATOM     28  C   UNL     1       5.930   3.558  15.690  0.00  0.00    +0.000 C 
BRANCH  28  29
ATOM     29  C   UNL     1       6.820   4.560  14.939  0.00  0.00    +0.000 C 
ATOM     30  O   UNL     1       7.450   5.434  15.536  0.00  0.00    +0.000 OA
ATOM     31  N   UNL     1       6.896   4.442  13.552  0.00  0.00    +0.000 N 
ATOM     32  C   UNL     1       6.204   3.450  12.744  0.00  0.00    +0.000 C 
ATOM     33  C   UNL     1       7.703   5.401  12.812  0.00  0.00    +0.000 C 
ENDBRANCH  28  29
ENDBRANCH  25  28
ENDBRANCH   4  22
TORSDOF 7
ENDMDL
MODEL 5
REMARK VINA RESULT:      -7.8      3.563     10.353
REMARK  Name = 
REMARK  11 active torsions:
REMARK  status: ('A' for Active; 'I' for Inactive)
REMARK    1  A    between atoms: C_1  and  C_2
REMARK    2  A    between atoms: C_2  and  S_3
REMARK    3  A    between atoms: C_2  and  C_10
REMARK    4  A    between atoms: S_3  and  C_4
REMARK    5  A    between atoms: N_8  and  C_9
REMARK    6  A    between atoms: C_14  and  N_15
REMARK    7  A    between atoms: N_18  and  C_19
REMARK    8  A    between atoms: C_22  and  C_23
REMARK    9  A    between atoms: C_23  and  C_24
REMARK   10  A    between atoms: N_26  and  C_27
REMARK   11  A    between atoms: N_26  and  C_28
REMARK                            x       y       z     vdW  Elec       q    Type
REMARK                         _______ _______ _______ _____ _____    ______ ____
ROOT
ATOM      1  N   UNL     1       8.003   7.472  18.375  0.00  0.00    +0.000 N 
ATOM      2  C   UNL     1       8.185   8.848  18.302  0.00  0.00    +0.000 C 
ATOM      3  O   UNL     1       7.449   9.618  17.692  0.00  0.00    +0.000 OA
ATOM      4  N   UNL     1       9.329   9.257  18.970  0.00  0.00    +0.000 N 
ATOM      5  H   UNL     1       8.390   7.019  19.191  0.00  0.00    +0.000 HD
ATOM      6  H   UNL     1      10.083   8.585  18.966  0.00  0.00    +0.000 HD
ENDROOT
BRANCH   1  11
ATOM      7  C   UNL     1       4.706   6.051  17.298  0.00  0.00    +0.000 A 
ATOM      8  C   UNL     1       5.092   5.394  16.119  0.00  0.00    +0.000 A 
ATOM      9  C   UNL     1       6.426   5.370  15.717  0.00  0.00    +0.000 A 
ATOM     10  C   UNL     1       7.394   6.036  16.466  0.00  0.00    +0.000 A 
ATOM     11  C   UNL     1       7.047   6.746  17.616  0.00  0.00    +0.000 A 
ATOM     12  C   UNL     1       5.709   6.720  18.044  0.00  0.00    +0.000 A 
BRANCH   7  14
ATOM     13  C   UNL     1       2.652   7.496  17.868  0.00  0.00    +0.000 C 
ATOM     14  C   UNL     1       3.248   6.080  17.776  0.00  0.00    +0.000 C 
BRANCH  14  15
ATOM     15  S   UNL     1       3.148   5.239  19.410  0.00  0.00    +0.000 S 
BRANCH  15  16
ATOM     16  C   UNL     1       2.052   3.936  19.125  0.00  0.00    +0.000 A 
ATOM     17  N   UNL     1       1.556   3.534  17.983  0.00  0.00    +0.000 NA
ATOM     18  N   UNL     1       0.676   2.498  18.251  0.00  0.00    +0.000 NA
ATOM     19  C   UNL     1       0.684   2.298  19.552  0.00  0.00    +0.000 A 
ATOM     20  N   UNL     1       1.560   3.163  20.138  0.00  0.00    +0.000 N 
ATOM     21  C   UNL     1       1.883   3.224  21.536  0.00  0.00    +0.000 C 
ENDBRANCH  15  16
ENDBRANCH  14  15
ENDBRANCH   7  14
ENDBRANCH   1  11
BRANCH   4  22
ATOM     22  C   UNL     1       9.709  10.623  19.020  0.00  0.00    +0.000 A 
ATOM     23  C   UNL     1      10.313  11.264  17.935  0.00  0.00    +0.000 A 
ATOM     24  C   UNL     1      10.656  12.622  18.007  0.00  0.00    +0.000 A 
ATOM     25  C   UNL     1      10.417  13.361  19.174  0.00  0.00    +0.000 A 
ATOM     26  C   UNL     1       9.853  12.696  20.274  0.00  0.00    +0.000 A 
ATOM     27  C   UNL     1       9.471  11.350  20.187  0.00  0.00    +0.000 A 
BRANCH  25  28
ATOM     28  C   UNL     1      10.777  14.836  19.247  0.00  0.00    +0.000 C 
BRANCH  28  29
ATOM     29  C   UNL     1       9.832  15.776  18.483  0.00  0.00    +0.000 C 
ATOM     30  O   UNL     1       9.962  15.976  17.274  0.00  0.00    +0.000 OA
ATOM     31  N   UNL     1       8.812  16.392  19.206  0.00  0.00    +0.000 N 
ATOM     32  C   UNL     1       8.559  16.226  20.629  0.00  0.00    +0.000 C 
ATOM     33  C   UNL     1       7.923  17.315  18.515  0.00  0.00    +0.000 C 
ENDBRANCH  28  29
ENDBRANCH  25  28
ENDBRANCH   4  22
TORSDOF 7
ENDMDL
MODEL 6
REMARK VINA RESULT:      -7.8      7.094     11.418
REMARK  Name = 
REMARK  11 active torsions:
REMARK  status: ('A' for Active; 'I' for Inactive)
REMARK    1  A    between atoms: C_1  and  C_2
REMARK    2  A    between atoms: C_2  and  S_3
REMARK    3  A    between atoms: C_2  and  C_10
REMARK    4  A    between atoms: S_3  and  C_4
REMARK    5  A    between atoms: N_8  and  C_9
REMARK    6  A    between atoms: C_14  and  N_15
REMARK    7  A    between atoms: N_18  and  C_19
REMARK    8  A    between atoms: C_22  and  C_23
REMARK    9  A    between atoms: C_23  and  C_24
REMARK   10  A    between atoms: N_26  and  C_27
REMARK   11  A    between atoms: N_26  and  C_28
REMARK                            x       y       z     vdW  Elec       q    Type
REMARK                         _______ _______ _______ _____ _____    ______ ____
ROOT
ATOM      1  N   UNL     1       1.803   8.053  20.826  0.00  0.00    +0.000 N 
ATOM      2  C   UNL     1       0.607   8.681  21.151  0.00  0.00    +0.000 C 
ATOM      3  O   UNL     1      -0.479   8.115  21.233  0.00  0.00    +0.000 OA
ATOM      4  N   UNL     1       0.771  10.045  21.337  0.00  0.00    +0.000 N 
ATOM      5  H   UNL     1       2.642   8.492  21.178  0.00  0.00    +0.000 HD
ATOM      6  H   UNL     1       1.495  10.464  20.772  0.00  0.00    +0.000 HD
ENDROOT
BRANCH   1  11
ATOM      7  C   UNL     1       2.639   5.131  18.631  0.00  0.00    +0.000 A 
ATOM      8  C   UNL     1       2.218   4.074  19.454  0.00  0.00    +0.000 A 
ATOM      9  C   UNL     1       1.616   4.323  20.686  0.00  0.00    +0.000 A 
ATOM     10  C   UNL     1       1.458   5.631  21.136  0.00  0.00    +0.000 A 
ATOM     11  C   UNL     1       1.909   6.710  20.374  0.00  0.00    +0.000 A 
ATOM     12  C   UNL     1       2.466   6.454  19.110  0.00  0.00    +0.000 A 
BRANCH   7  14
ATOM     13  C   UNL     1       3.901   3.488  17.102  0.00  0.00    +0.000 C 
ATOM     14  C   UNL     1       3.289   4.891  17.262  0.00  0.00    +0.000 C 
BRANCH  14  15
ATOM     15  S   UNL     1       4.571   6.182  16.986  0.00  0.00    +0.000 S 
BRANCH  15  16
ATOM     16  C   UNL     1       5.973   5.529  17.752  0.00  0.00    +0.000 A 
ATOM     17  N   UNL     1       6.259   5.510  19.029  0.00  0.00    +0.000 NA
ATOM     18  N   UNL     1       7.514   4.940  19.167  0.00  0.00    +0.000 NA
ATOM     19  C   UNL     1       7.937   4.617  17.963  0.00  0.00    +0.000 A 
ATOM     20  N   UNL     1       6.984   4.943  17.046  0.00  0.00    +0.000 N 
ATOM     21  C   UNL     1       7.054   4.706  15.631  0.00  0.00    +0.000 C 
ENDBRANCH  15  16
ENDBRANCH  14  15
ENDBRANCH   7  14
ENDBRANCH   1  11
BRANCH   4  22
ATOM     22  C   UNL     1      -0.323  10.884  21.674  0.00  0.00    +0.000 A 
ATOM     23  C   UNL     1      -0.906  10.866  22.945  0.00  0.00    +0.000 A 
ATOM     24  C   UNL     1      -1.970  11.724  23.255  0.00  0.00    +0.000 A 
ATOM     25  C   UNL     1      -2.486  12.604  22.294  0.00  0.00    +0.000 A 
ATOM     26  C   UNL     1      -1.925  12.581  21.008  0.00  0.00    +0.000 A 
ATOM     27  C   UNL     1      -0.832  11.755  20.710  0.00  0.00    +0.000 A 
BRANCH  25  28
ATOM     28  C   UNL     1      -3.633  13.543  22.635  0.00  0.00    +0.000 C 
BRANCH  28  29
ATOM     29  C   UNL     1      -5.031  13.018  22.277  0.00  0.00    +0.000 C 
ATOM     30  O   UNL     1      -5.184  12.042  21.541  0.00  0.00    +0.000 OA
ATOM     31  N   UNL     1      -6.129  13.683  22.823  0.00  0.00    +0.000 N 
ATOM     32  C   UNL     1      -6.070  14.837  23.705  0.00  0.00    +0.000 C 
ATOM     33  C   UNL     1      -7.467  13.229  22.471  0.00  0.00    +0.000 C 
ENDBRANCH  28  29
ENDBRANCH  25  28
ENDBRANCH   4  22
TORSDOF 7
ENDMDL
MODEL 7
REMARK VINA RESULT:      -7.8      6.528     11.434
REMARK  Name = 
REMARK  11 active torsions:
REMARK  status: ('A' for Active; 'I' for Inactive)
REMARK    1  A    between atoms: C_1  and  C_2
REMARK    2  A    between atoms: C_2  and  S_3
REMARK    3  A    between atoms: C_2  and  C_10
REMARK    4  A    between atoms: S_3  and  C_4
REMARK    5  A    between atoms: N_8  and  C_9
REMARK    6  A    between atoms: C_14  and  N_15
REMARK    7  A    between atoms: N_18  and  C_19
REMARK    8  A    between atoms: C_22  and  C_23
REMARK    9  A    between atoms: C_23  and  C_24
REMARK   10  A    between atoms: N_26  and  C_27
REMARK   11  A    between atoms: N_26  and  C_28
REMARK                            x       y       z     vdW  Elec       q    Type
REMARK                         _______ _______ _______ _____ _____    ______ ____
ROOT
ATOM      1  N   UNL     1       2.194   6.860  20.913  0.00  0.00    +0.000 N 
ATOM      2  C   UNL     1       1.308   7.929  20.850  0.00  0.00    +0.000 C 
ATOM      3  O   UNL     1       0.527   8.135  19.926  0.00  0.00    +0.000 OA
ATOM      4  N   UNL     1       1.433   8.771  21.944  0.00  0.00    +0.000 N 
ATOM      5  H   UNL     1       2.467   6.567  21.840  0.00  0.00    +0.000 HD
ATOM      6  H   UNL     1       2.365   8.830  22.327  0.00  0.00    +0.000 HD
ENDROOT
BRANCH   1  11
ATOM      7  C   UNL     1       3.828   5.325  17.909  0.00  0.00    +0.000 A 
ATOM      8  C   UNL     1       3.037   4.175  17.756  0.00  0.00    +0.000 A 
ATOM      9  C   UNL     1       1.948   3.940  18.593  0.00  0.00    +0.000 A 
ATOM     10  C   UNL     1       1.652   4.830  19.622  0.00  0.00    +0.000 A 
ATOM     11  C   UNL     1       2.443   5.959  19.843  0.00  0.00    +0.000 A 
ATOM     12  C   UNL     1       3.507   6.217  18.962  0.00  0.00    +0.000 A 
BRANCH   7  14
ATOM     13  C   UNL     1       4.788   6.789  16.020  0.00  0.00    +0.000 C 
ATOM     14  C   UNL     1       5.024   5.621  16.993  0.00  0.00    +0.000 C 
BRANCH  14  15
ATOM     15  S   UNL     1       5.445   4.090  16.063  0.00  0.00    +0.000 S 
BRANCH  15  16
ATOM     16  C   UNL     1       6.600   4.630  14.899  0.00  0.00    +0.000 A 
ATOM     17  N   UNL     1       7.650   5.386  15.096  0.00  0.00    +0.000 NA
ATOM     18  N   UNL     1       8.242   5.606  13.863  0.00  0.00    +0.000 NA
ATOM     19  C   UNL     1       7.535   4.958  12.962  0.00  0.00    +0.000 A 
ATOM     20  N   UNL     1       6.509   4.305  13.576  0.00  0.00    +0.000 N 
ATOM     21  C   UNL     1       5.545   3.453  12.938  0.00  0.00    +0.000 C 
ENDBRANCH  15  16
ENDBRANCH  14  15
ENDBRANCH   7  14
ENDBRANCH   1  11
BRANCH   4  22
ATOM     22  C   UNL     1       0.626   9.930  22.083  0.00  0.00    +0.000 A 
ATOM     23  C   UNL     1      -0.445   9.983  22.981  0.00  0.00    +0.000 A 
ATOM     24  C   UNL     1      -1.210  11.151  23.112  0.00  0.00    +0.000 A 
ATOM     25  C   UNL     1      -0.929  12.283  22.335  0.00  0.00    +0.000 A 
ATOM     26  C   UNL     1       0.118  12.204  21.404  0.00  0.00    +0.000 A 
ATOM     27  C   UNL     1       0.910  11.052  21.303  0.00  0.00    +0.000 A 
BRANCH  25  28
ATOM     28  C   UNL     1      -1.751  13.554  22.487  0.00  0.00    +0.000 C 
BRANCH  28  29
ATOM     29  C   UNL     1      -3.159  13.495  21.875  0.00  0.00    +0.000 C 
ATOM     30  O   UNL     1      -3.338  13.155  20.704  0.00  0.00    +0.000 OA
ATOM     31  N   UNL     1      -4.234  13.834  22.695  0.00  0.00    +0.000 N 
ATOM     32  C   UNL     1      -4.144  14.242  24.088  0.00  0.00    +0.000 C 
ATOM     33  C   UNL     1      -5.576  13.822  22.130  0.00  0.00    +0.000 C 
ENDBRANCH  28  29
ENDBRANCH  25  28
ENDBRANCH   4  22
TORSDOF 7
ENDMDL
MODEL 8
REMARK VINA RESULT:      -7.7      3.532     10.392
REMARK  Name = 
REMARK  11 active torsions:
REMARK  status: ('A' for Active; 'I' for Inactive)
REMARK    1  A    between atoms: C_1  and  C_2
REMARK    2  A    between atoms: C_2  and  S_3
REMARK    3  A    between atoms: C_2  and  C_10
REMARK    4  A    between atoms: S_3  and  C_4
REMARK    5  A    between atoms: N_8  and  C_9
REMARK    6  A    between atoms: C_14  and  N_15
REMARK    7  A    between atoms: N_18  and  C_19
REMARK    8  A    between atoms: C_22  and  C_23
REMARK    9  A    between atoms: C_23  and  C_24
REMARK   10  A    between atoms: N_26  and  C_27
REMARK   11  A    between atoms: N_26  and  C_28
REMARK                            x       y       z     vdW  Elec       q    Type
REMARK                         _______ _______ _______ _____ _____    ______ ____
ROOT
ATOM      1  N   UNL     1       7.999   7.435  18.401  0.00  0.00    +0.000 N 
ATOM      2  C   UNL     1       8.177   8.812  18.338  0.00  0.00    +0.000 C 
ATOM      3  O   UNL     1       7.425   9.587  17.756  0.00  0.00    +0.000 OA
ATOM      4  N   UNL     1       9.337   9.216  18.983  0.00  0.00    +0.000 N 
ATOM      5  H   UNL     1       8.407   6.974  19.203  0.00  0.00    +0.000 HD
ATOM      6  H   UNL     1      10.091   8.546  18.953  0.00  0.00    +0.000 HD
ENDROOT
BRANCH   1  11
ATOM      7  C   UNL     1       4.675   6.039  17.377  0.00  0.00    +0.000 A 
ATOM      8  C   UNL     1       5.038   5.376  16.194  0.00  0.00    +0.000 A 
ATOM      9  C   UNL     1       6.366   5.340  15.773  0.00  0.00    +0.000 A 
ATOM     10  C   UNL     1       7.350   5.999  16.505  0.00  0.00    +0.000 A 
ATOM     11  C   UNL     1       7.026   6.715  17.659  0.00  0.00    +0.000 A 
ATOM     12  C   UNL     1       5.694   6.702  18.106  0.00  0.00    +0.000 A 
BRANCH   7  14
ATOM     13  C   UNL     1       2.584   7.479  17.807  0.00  0.00    +0.000 C 
ATOM     14  C   UNL     1       3.224   6.082  17.876  0.00  0.00    +0.000 C 
BRANCH  14  15
ATOM     15  S   UNL     1       3.178   5.443  19.601  0.00  0.00    +0.000 S 
BRANCH  15  16
ATOM     16  C   UNL     1       3.666   3.795  19.433  0.00  0.00    +0.000 A 
ATOM     17  N   UNL     1       4.824   3.263  19.730  0.00  0.00    +0.000 NA
ATOM     18  N   UNL     1       4.773   1.926  19.369  0.00  0.00    +0.000 NA
ATOM     19  C   UNL     1       3.574   1.693  18.880  0.00  0.00    +0.000 A 
ATOM     20  N   UNL     1       2.834   2.836  18.930  0.00  0.00    +0.000 N 
ATOM     21  C   UNL     1       1.461   2.975  18.531  0.00  0.00    +0.000 C 
ENDBRANCH  15  16
ENDBRANCH  14  15
ENDBRANCH   7  14
ENDBRANCH   1  11
BRANCH   4  22
ATOM     22  C   UNL     1       9.715  10.582  19.039  0.00  0.00    +0.000 A 
ATOM     23  C   UNL     1       9.686  11.311  20.232  0.00  0.00    +0.000 A 
ATOM     24  C   UNL     1      10.089  12.653  20.259  0.00  0.00    +0.000 A 
ATOM     25  C   UNL     1      10.512  13.299  19.090  0.00  0.00    +0.000 A 
ATOM     26  C   UNL     1      10.494  12.573  17.889  0.00  0.00    +0.000 A 
ATOM     27  C   UNL     1      10.132  11.219  17.869  0.00  0.00    +0.000 A 
BRANCH  25  28
ATOM     28  C   UNL     1      10.961  14.752  19.123  0.00  0.00    +0.000 C 
BRANCH  28  29
ATOM     29  C   UNL     1      10.039  15.735  18.385  0.00  0.00    +0.000 C 
ATOM     30  O   UNL     1      10.173  15.963  17.182  0.00  0.00    +0.000 OA
ATOM     31  N   UNL     1       9.036  16.358  19.126  0.00  0.00    +0.000 N 
ATOM     32  C   UNL     1       8.780  16.161  20.544  0.00  0.00    +0.000 C 
ATOM     33  C   UNL     1       8.171  17.321  18.460  0.00  0.00    +0.000 C 
ENDBRANCH  28  29
ENDBRANCH  25  28
ENDBRANCH   4  22
TORSDOF 7
ENDMDL
MODEL 9
REMARK VINA RESULT:      -7.6      3.410      9.976
REMARK  Name = 
REMARK  11 active torsions:
REMARK  status: ('A' for Active; 'I' for Inactive)
REMARK    1  A    between atoms: C_1  and  C_2
REMARK    2  A    between atoms: C_2  and  S_3
REMARK    3  A    between atoms: C_2  and  C_10
REMARK    4  A    between atoms: S_3  and  C_4
REMARK    5  A    between atoms: N_8  and  C_9
REMARK    6  A    between atoms: C_14  and  N_15
REMARK    7  A    between atoms: N_18  and  C_19
REMARK    8  A    between atoms: C_22  and  C_23
REMARK    9  A    between atoms: C_23  and  C_24
REMARK   10  A    between atoms: N_26  and  C_27
REMARK   11  A    between atoms: N_26  and  C_28
REMARK                            x       y       z     vdW  Elec       q    Type
REMARK                         _______ _______ _______ _____ _____    ______ ____
ROOT
ATOM      1  N   UNL     1       7.857   6.476  17.966  0.00  0.00    +0.000 N 
ATOM      2  C   UNL     1       7.828   7.865  17.999  0.00  0.00    +0.000 C 
ATOM      3  O   UNL     1       7.006   8.560  17.410  0.00  0.00    +0.000 OA
ATOM      4  N   UNL     1       8.869   8.388  18.751  0.00  0.00    +0.000 N 
ATOM      5  H   UNL     1       8.277   6.024  18.766  0.00  0.00    +0.000 HD
ATOM      6  H   UNL     1       9.717   7.840  18.737  0.00  0.00    +0.000 HD
ENDROOT
BRANCH   1  11
ATOM      7  C   UNL     1       5.260   4.005  16.869  0.00  0.00    +0.000 A 
ATOM      8  C   UNL     1       5.381   4.121  15.475  0.00  0.00    +0.000 A 
ATOM      9  C   UNL     1       6.341   4.955  14.907  0.00  0.00    +0.000 A 
ATOM     10  C   UNL     1       7.174   5.719  15.721  0.00  0.00    +0.000 A 
ATOM     11  C   UNL     1       7.054   5.675  17.111  0.00  0.00    +0.000 A 
ATOM     12  C   UNL     1       6.120   4.791  17.677  0.00  0.00    +0.000 A 
BRANCH   7  14
ATOM     13  C   UNL     1       2.769   3.420  17.158  0.00  0.00    +0.000 C 
ATOM     14  C   UNL     1       4.224   3.082  17.526  0.00  0.00    +0.000 C 
BRANCH  14  15
ATOM     15  S   UNL     1       4.453   3.146  19.350  0.00  0.00    +0.000 S 
BRANCH  15  16
ATOM     16  C   UNL     1       2.855   3.406  19.948  0.00  0.00    +0.000 A 
ATOM     17  N   UNL     1       1.985   2.511  20.341  0.00  0.00    +0.000 NA
ATOM     18  N   UNL     1       0.820   3.181  20.678  0.00  0.00    +0.000 NA
ATOM     19  C   UNL     1       1.034   4.466  20.492  0.00  0.00    +0.000 A 
ATOM     20  N   UNL     1       2.313   4.655  20.061  0.00  0.00    +0.000 N 
ATOM     21  C   UNL     1       2.939   5.919  19.791  0.00  0.00    +0.000 C 
ENDBRANCH  15  16
ENDBRANCH  14  15
ENDBRANCH   7  14
ENDBRANCH   1  11
BRANCH   4  22
ATOM     22  C   UNL     1       9.032   9.787  18.917  0.00  0.00    +0.000 A 
ATOM     23  C   UNL     1       9.193  10.370  20.178  0.00  0.00    +0.000 A 
ATOM     24  C   UNL     1       9.376  11.754  20.307  0.00  0.00    +0.000 A 
ATOM     25  C   UNL     1       9.383  12.586  19.178  0.00  0.00    +0.000 A 
ATOM     26  C   UNL     1       9.174  11.997  17.922  0.00  0.00    +0.000 A 
ATOM     27  C   UNL     1       9.035  10.608  17.788  0.00  0.00    +0.000 A 
BRANCH  25  28
ATOM     28  C   UNL     1       9.594  14.085  19.319  0.00  0.00    +0.000 C 
BRANCH  28  29
ATOM     29  C   UNL     1       8.481  14.831  20.071  0.00  0.00    +0.000 C 
ATOM     30  O   UNL     1       8.520  14.983  21.293  0.00  0.00    +0.000 OA
ATOM     31  N   UNL     1       7.422  15.338  19.318  0.00  0.00    +0.000 N 
ATOM     32  C   UNL     1       7.274  15.224  17.877  0.00  0.00    +0.000 C 
ATOM     33  C   UNL     1       6.336  16.017  20.010  0.00  0.00    +0.000 C 
ENDBRANCH  28  29
ENDBRANCH  25  28
ENDBRANCH   4  22
TORSDOF 7
ENDMDL
