MODEL 1
REMARK VINA RESULT:      -9.0      0.000      0.000
REMARK  Name = 
REMARK  9 active torsions:
REMARK  status: ('A' for Active; 'I' for Inactive)
REMARK    1  A    between atoms: C_1  and  C_2
REMARK    2  A    between atoms: C_2  and  S_3
REMARK    3  A    between atoms: C_2  and  C_10
REMARK    4  A    between atoms: S_3  and  C_4
REMARK    5  A    between atoms: N_8  and  C_9
REMARK    6  A    between atoms: C_14  and  N_15
REMARK    7  A    between atoms: C_16  and  C_18
REMARK    8  A    between atoms: C_20  and  C_21
REMARK    9  A    between atoms: C_26  and  C_27
REMARK                            x       y       z     vdW  Elec       q    Type
REMARK                         _______ _______ _______ _____ _____    ______ ____
ROOT
ATOM      1  N   UNL     1       2.161   7.566  19.369  0.00  0.00    +0.000 N 
ATOM      2  C   UNL     1       2.763   7.644  18.129  0.00  0.00    +0.000 C 
ATOM      3  O   UNL     1       2.756   8.596  17.356  0.00  0.00    +0.000 OA
ATOM      4  H   UNL     1       2.337   6.700  19.876  0.00  0.00    +0.000 HD
ENDROOT
BRANCH   1   9
ATOM      5  C   UNL     1       0.026  10.583  19.745  0.00  0.00    +0.000 A 
ATOM      6  C   UNL     1      -0.181  10.580  21.137  0.00  0.00    +0.000 A 
ATOM      7  C   UNL     1       0.430   9.630  21.949  0.00  0.00    +0.000 A 
ATOM      8  C   UNL     1       1.223   8.636  21.381  0.00  0.00    +0.000 A 
ATOM      9  C   UNL     1       1.405   8.575  20.001  0.00  0.00    +0.000 A 
ATOM     10  C   UNL     1       0.820   9.559  19.192  0.00  0.00    +0.000 A 
BRANCH   5  12
ATOM     11  C   UNL     1      -0.183  13.128  19.416  0.00  0.00    +0.000 C 
ATOM     12  C   UNL     1      -0.569  11.728  18.918  0.00  0.00    +0.000 C 
BRANCH  12  13
ATOM     13  S   UNL     1      -2.401  11.531  18.940  0.00  0.00    +0.000 S 
BRANCH  13  14
ATOM     14  C   UNL     1      -2.759  10.939  17.365  0.00  0.00    +0.000 A 
ATOM     15  N   UNL     1      -2.005  10.201  16.585  0.00  0.00    +0.000 NA
ATOM     16  N   UNL     1      -2.689  10.022  15.400  0.00  0.00    +0.000 NA
ATOM     17  C   UNL     1      -3.842  10.643  15.507  0.00  0.00    +0.000 A 
ATOM     18  N   UNL     1      -3.934  11.222  16.734  0.00  0.00    +0.000 N 
ATOM     19  C   UNL     1      -5.039  11.993  17.239  0.00  0.00    +0.000 C 
ENDBRANCH  13  14
ENDBRANCH  12  13
ENDBRANCH   5  12
ENDBRANCH   1   9
BRANCH   2  20
ATOM     20  C   UNL     1       3.525   6.418  17.736  0.00  0.00    +0.000 A 
ATOM     21  C   UNL     1       4.849   6.532  17.348  0.00  0.00    +0.000 A 
ATOM     22  C   UNL     1       5.545   5.374  17.016  0.00  0.00    +0.000 A 
ATOM     23  C   UNL     1       4.863   4.148  17.085  0.00  0.00    +0.000 A 
ATOM     24  C   UNL     1       3.522   4.107  17.484  0.00  0.00    +0.000 A 
ATOM     25  N   UNL     1       2.853   5.242  17.805  0.00  0.00    +0.000 NA
BRANCH  22  26
ATOM     26  C   UNL     1       6.991   5.440  16.607  0.00  0.00    +0.000 C 
ATOM     27  F   UNL     1       7.576   6.641  16.869  0.00  0.00    +0.000 F 
ATOM     28  F   UNL     1       7.751   4.508  17.241  0.00  0.00    +0.000 F 
ATOM     29  F   UNL     1       7.164   5.223  15.274  0.00  0.00    +0.000 F 
ENDBRANCH  22  26
BRANCH  24  30
ATOM     30  C   UNL     1       2.755   2.810  17.562  0.00  0.00    +0.000 C 
ATOM     31  C   UNL     1       3.310   1.597  18.270  0.00  0.00    +0.000 C 
ATOM     32  C   UNL     1       2.210   2.388  18.911  0.00  0.00    +0.000 C 
ENDBRANCH  24  30
ENDBRANCH   2  20
TORSDOF 7
ENDMDL
MODEL 2
REMARK VINA RESULT:      -8.9      2.225      3.079
REMARK  Name = 
REMARK  9 active torsions:
REMARK  status: ('A' for Active; 'I' for Inactive)
REMARK    1  A    between atoms: C_1  and  C_2
REMARK    2  A    between atoms: C_2  and  S_3
REMARK    3  A    between atoms: C_2  and  C_10
REMARK    4  A    between atoms: S_3  and  C_4
REMARK    5  A    between atoms: N_8  and  C_9
REMARK    6  A    between atoms: C_14  and  N_15
REMARK    7  A    between atoms: C_16  and  C_18
REMARK    8  A    between atoms: C_20  and  C_21
REMARK    9  A    between atoms: C_26  and  C_27
REMARK                            x       y       z     vdW  Elec       q    Type
REMARK                         _______ _______ _______ _____ _____    ______ ____
ROOT
ATOM      1  N   UNL     1       1.727   7.589  19.688  0.00  0.00    +0.000 N 
ATOM      2  C   UNL     1       2.487   7.575  18.536  0.00  0.00    +0.000 C 
ATOM      3  O   UNL     1       2.783   8.532  17.826  0.00  0.00    +0.000 OA
ATOM      4  H   UNL     1       1.647   6.690  20.158  0.00  0.00    +0.000 HD
ENDROOT
BRANCH   1   9
ATOM      5  C   UNL     1      -0.084  10.822  19.961  0.00  0.00    +0.000 A 
ATOM      6  C   UNL     1      -0.159  10.957  21.360  0.00  0.00    +0.000 A 
ATOM      7  C   UNL     1       0.437  10.023  22.202  0.00  0.00    +0.000 A 
ATOM      8  C   UNL     1       1.081   8.912  21.663  0.00  0.00    +0.000 A 
ATOM      9  C   UNL     1       1.127   8.718  20.285  0.00  0.00    +0.000 A 
ATOM     10  C   UNL     1       0.560   9.682  19.441  0.00  0.00    +0.000 A 
BRANCH   5  12
ATOM     11  C   UNL     1      -0.283  13.358  19.565  0.00  0.00    +0.000 C 
ATOM     12  C   UNL     1      -0.647  11.946  19.085  0.00  0.00    +0.000 C 
BRANCH  12  13
ATOM     13  S   UNL     1      -2.478  11.745  19.039  0.00  0.00    +0.000 S 
BRANCH  13  14
ATOM     14  C   UNL     1      -2.768  11.069  17.484  0.00  0.00    +0.000 A 
ATOM     15  N   UNL     1      -1.960  10.335  16.755  0.00  0.00    +0.000 NA
ATOM     16  N   UNL     1      -2.605  10.073  15.563  0.00  0.00    +0.000 NA
ATOM     17  C   UNL     1      -3.788  10.642  15.615  0.00  0.00    +0.000 A 
ATOM     18  N   UNL     1      -3.938  11.269  16.813  0.00  0.00    +0.000 N 
ATOM     19  C   UNL     1      -5.090  12.008  17.257  0.00  0.00    +0.000 C 
ENDBRANCH  13  14
ENDBRANCH  12  13
ENDBRANCH   5  12
ENDBRANCH   1   9
BRANCH   2  20
ATOM     20  C   UNL     1       3.016   6.226  18.162  0.00  0.00    +0.000 A 
ATOM     21  C   UNL     1       2.365   5.090  18.613  0.00  0.00    +0.000 A 
ATOM     22  C   UNL     1       2.858   3.847  18.227  0.00  0.00    +0.000 A 
ATOM     23  C   UNL     1       3.996   3.811  17.403  0.00  0.00    +0.000 A 
ATOM     24  C   UNL     1       4.604   5.001  16.988  0.00  0.00    +0.000 A 
ATOM     25  N   UNL     1       4.116   6.207  17.370  0.00  0.00    +0.000 NA
BRANCH  22  26
ATOM     26  C   UNL     1       2.178   2.581  18.672  0.00  0.00    +0.000 C 
ATOM     27  F   UNL     1       0.885   2.484  18.256  0.00  0.00    +0.000 F 
ATOM     28  F   UNL     1       2.805   1.467  18.208  0.00  0.00    +0.000 F 
ATOM     29  F   UNL     1       2.145   2.459  20.027  0.00  0.00    +0.000 F 
ENDBRANCH  22  26
BRANCH  24  30
ATOM     30  C   UNL     1       5.832   5.002  16.111  0.00  0.00    +0.000 C 
ATOM     31  C   UNL     1       6.281   3.768  15.366  0.00  0.00    +0.000 C 
ATOM     32  C   UNL     1       5.635   4.891  14.612  0.00  0.00    +0.000 C 
ENDBRANCH  24  30
ENDBRANCH   2  20
TORSDOF 7
ENDMDL
MODEL 3
REMARK VINA RESULT:      -8.7      2.432      3.340
REMARK  Name = 
REMARK  9 active torsions:
REMARK  status: ('A' for Active; 'I' for Inactive)
REMARK    1  A    between atoms: C_1  and  C_2
REMARK    2  A    between atoms: C_2  and  S_3
REMARK    3  A    between atoms: C_2  and  C_10
REMARK    4  A    between atoms: S_3  and  C_4
REMARK    5  A    between atoms: N_8  and  C_9
REMARK    6  A    between atoms: C_14  and  N_15
REMARK    7  A    between atoms: C_16  and  C_18
REMARK    8  A    between atoms: C_20  and  C_21
REMARK    9  A    between atoms: C_26  and  C_27
REMARK                            x       y       z     vdW  Elec       q    Type
REMARK                         _______ _______ _______ _____ _____    ______ ____
ROOT
ATOM      1  N   UNL     1       2.215   7.518  20.136  0.00  0.00    +0.000 N 
ATOM      2  C   UNL     1       1.933   6.185  20.355  0.00  0.00    +0.000 C 
ATOM      3  O   UNL     1       0.969   5.715  20.951  0.00  0.00    +0.000 OA
ATOM      4  H   UNL     1       3.041   7.693  19.567  0.00  0.00    +0.000 HD
ENDROOT
BRANCH   1   9
ATOM      5  C   UNL     1       0.200  10.634  19.931  0.00  0.00    +0.000 A 
ATOM      6  C   UNL     1      -0.155  10.799  21.284  0.00  0.00    +0.000 A 
ATOM      7  C   UNL     1       0.318   9.928  22.259  0.00  0.00    +0.000 A 
ATOM      8  C   UNL     1       1.119   8.847  21.898  0.00  0.00    +0.000 A 
ATOM      9  C   UNL     1       1.445   8.621  20.563  0.00  0.00    +0.000 A 
ATOM     10  C   UNL     1       0.999   9.525  19.589  0.00  0.00    +0.000 A 
BRANCH   5  12
ATOM     11  C   UNL     1       0.590  12.983  18.954  0.00  0.00    +0.000 C 
ATOM     12  C   UNL     1      -0.245  11.696  18.921  0.00  0.00    +0.000 C 
BRANCH  12  13
ATOM     13  S   UNL     1      -2.014  12.080  19.268  0.00  0.00    +0.000 S 
BRANCH  13  14
ATOM     14  C   UNL     1      -2.821  11.583  17.833  0.00  0.00    +0.000 A 
ATOM     15  N   UNL     1      -2.292  11.144  16.715  0.00  0.00    +0.000 NA
ATOM     16  N   UNL     1      -3.326  10.922  15.829  0.00  0.00    +0.000 NA
ATOM     17  C   UNL     1      -4.449  11.218  16.444  0.00  0.00    +0.000 A 
ATOM     18  N   UNL     1      -4.179  11.625  17.713  0.00  0.00    +0.000 N 
ATOM     19  C   UNL     1      -5.136  12.036  18.705  0.00  0.00    +0.000 C 
ENDBRANCH  13  14
ENDBRANCH  12  13
ENDBRANCH   5  12
ENDBRANCH   1   9
BRANCH   2  20
ATOM     20  C   UNL     1       2.924   5.239  19.755  0.00  0.00    +0.000 A 
ATOM     21  C   UNL     1       2.508   3.981  19.350  0.00  0.00    +0.000 A 
ATOM     22  C   UNL     1       3.443   3.130  18.767  0.00  0.00    +0.000 A 
ATOM     23  C   UNL     1       4.762   3.591  18.625  0.00  0.00    +0.000 A 
ATOM     24  C   UNL     1       5.112   4.875  19.060  0.00  0.00    +0.000 A 
ATOM     25  N   UNL     1       4.194   5.695  19.627  0.00  0.00    +0.000 NA
BRANCH  22  26
ATOM     26  C   UNL     1       3.040   1.761  18.291  0.00  0.00    +0.000 C 
ATOM     27  F   UNL     1       2.565   1.747  17.015  0.00  0.00    +0.000 F 
ATOM     28  F   UNL     1       4.075   0.880  18.315  0.00  0.00    +0.000 F 
ATOM     29  F   UNL     1       2.060   1.212  19.061  0.00  0.00    +0.000 F 
ENDBRANCH  22  26
BRANCH  24  30
ATOM     30  C   UNL     1       6.521   5.400  18.932  0.00  0.00    +0.000 C 
ATOM     31  C   UNL     1       7.468   4.893  17.872  0.00  0.00    +0.000 C 
ATOM     32  C   UNL     1       6.854   6.253  17.724  0.00  0.00    +0.000 C 
ENDBRANCH  24  30
ENDBRANCH   2  20
TORSDOF 7
ENDMDL
MODEL 4
REMARK VINA RESULT:      -8.7      1.602      2.224
REMARK  Name = 
REMARK  9 active torsions:
REMARK  status: ('A' for Active; 'I' for Inactive)
REMARK    1  A    between atoms: C_1  and  C_2
REMARK    2  A    between atoms: C_2  and  S_3
REMARK    3  A    between atoms: C_2  and  C_10
REMARK    4  A    between atoms: S_3  and  C_4
REMARK    5  A    between atoms: N_8  and  C_9
REMARK    6  A    between atoms: C_14  and  N_15
REMARK    7  A    between atoms: C_16  and  C_18
REMARK    8  A    between atoms: C_20  and  C_21
REMARK    9  A    between atoms: C_26  and  C_27
REMARK                            x       y       z     vdW  Elec       q    Type
REMARK                         _______ _______ _______ _____ _____    ______ ____
ROOT
ATOM      1  N   UNL     1       2.047   8.932  18.093  0.00  0.00    +0.000 N 
ATOM      2  C   UNL     1       2.158   7.966  19.073  0.00  0.00    +0.000 C 
ATOM      3  O   UNL     1       1.836   8.062  20.253  0.00  0.00    +0.000 OA
ATOM      4  H   UNL     1       2.321   8.628  17.161  0.00  0.00    +0.000 HD
ENDROOT
BRANCH   1   9
ATOM      5  C   UNL     1      -0.416  11.655  18.668  0.00  0.00    +0.000 A 
ATOM      6  C   UNL     1       0.436  12.776  18.667  0.00  0.00    +0.000 A 
ATOM      7  C   UNL     1       1.797  12.639  18.415  0.00  0.00    +0.000 A 
ATOM      8  C   UNL     1       2.343  11.376  18.205  0.00  0.00    +0.000 A 
ATOM      9  C   UNL     1       1.540  10.239  18.254  0.00  0.00    +0.000 A 
ATOM     10  C   UNL     1       0.162  10.386  18.468  0.00  0.00    +0.000 A 
BRANCH   5  12
ATOM     11  C   UNL     1      -2.338  12.423  20.198  0.00  0.00    +0.000 C 
ATOM     12  C   UNL     1      -1.923  11.880  18.824  0.00  0.00    +0.000 C 
BRANCH  12  13
ATOM     13  S   UNL     1      -2.758  10.268  18.502  0.00  0.00    +0.000 S 
BRANCH  13  14
ATOM     14  C   UNL     1      -3.036  10.293  16.805  0.00  0.00    +0.000 A 
ATOM     15  N   UNL     1      -2.344   9.701  15.860  0.00  0.00    +0.000 NA
ATOM     16  N   UNL     1      -2.911  10.053  14.652  0.00  0.00    +0.000 NA
ATOM     17  C   UNL     1      -3.938  10.833  14.905  0.00  0.00    +0.000 A 
ATOM     18  N   UNL     1      -4.062  10.999  16.249  0.00  0.00    +0.000 N 
ATOM     19  C   UNL     1      -5.060  11.782  16.929  0.00  0.00    +0.000 C 
ENDBRANCH  13  14
ENDBRANCH  12  13
ENDBRANCH   5  12
ENDBRANCH   1   9
BRANCH   2  20
ATOM     20  C   UNL     1       2.709   6.661  18.593  0.00  0.00    +0.000 A 
ATOM     21  C   UNL     1       3.668   6.652  17.594  0.00  0.00    +0.000 A 
ATOM     22  C   UNL     1       4.187   5.427  17.185  0.00  0.00    +0.000 A 
ATOM     23  C   UNL     1       3.705   4.262  17.805  0.00  0.00    +0.000 A 
ATOM     24  C   UNL     1       2.732   4.347  18.808  0.00  0.00    +0.000 A 
ATOM     25  N   UNL     1       2.232   5.545  19.197  0.00  0.00    +0.000 NA
BRANCH  22  26
ATOM     26  C   UNL     1       5.245   5.361  16.118  0.00  0.00    +0.000 C 
ATOM     27  F   UNL     1       5.024   4.386  15.193  0.00  0.00    +0.000 F 
ATOM     28  F   UNL     1       5.348   6.523  15.418  0.00  0.00    +0.000 F 
ATOM     29  F   UNL     1       6.483   5.118  16.629  0.00  0.00    +0.000 F 
ENDBRANCH  22  26
BRANCH  24  30
ATOM     30  C   UNL     1       2.184   3.117  19.490  0.00  0.00    +0.000 C 
ATOM     31  C   UNL     1       0.885   3.144  20.258  0.00  0.00    +0.000 C 
ATOM     32  C   UNL     1       0.934   2.483  18.914  0.00  0.00    +0.000 C 
ENDBRANCH  24  30
ENDBRANCH   2  20
TORSDOF 7
ENDMDL
MODEL 5
REMARK VINA RESULT:      -8.7      2.592      3.642
REMARK  Name = 
REMARK  9 active torsions:
REMARK  status: ('A' for Active; 'I' for Inactive)
REMARK    1  A    between atoms: C_1  and  C_2
REMARK    2  A    between atoms: C_2  and  S_3
REMARK    3  A    between atoms: C_2  and  C_10
REMARK    4  A    between atoms: S_3  and  C_4
REMARK    5  A    between atoms: N_8  and  C_9
REMARK    6  A    between atoms: C_14  and  N_15
REMARK    7  A    between atoms: C_16  and  C_18
REMARK    8  A    between atoms: C_20  and  C_21
REMARK    9  A    between atoms: C_26  and  C_27
REMARK                            x       y       z     vdW  Elec       q    Type
REMARK                         _______ _______ _______ _____ _____    ______ ____
ROOT
ATOM      1  N   UNL     1       2.009   8.708  18.046  0.00  0.00    +0.000 N 
ATOM      2  C   UNL     1       2.243   7.749  19.011  0.00  0.00    +0.000 C 
ATOM      3  O   UNL     1       2.045   7.843  20.218  0.00  0.00    +0.000 OA
ATOM      4  H   UNL     1       2.190   8.407  17.091  0.00  0.00    +0.000 HD
ENDROOT
BRANCH   1   9
ATOM      5  C   UNL     1      -0.435  11.380  18.882  0.00  0.00    +0.000 A 
ATOM      6  C   UNL     1       0.386  12.519  18.779  0.00  0.00    +0.000 A 
ATOM      7  C   UNL     1       1.713  12.411  18.377  0.00  0.00    +0.000 A 
ATOM      8  C   UNL     1       2.261  11.159  18.113  0.00  0.00    +0.000 A 
ATOM      9  C   UNL     1       1.494  10.004  18.258  0.00  0.00    +0.000 A 
ATOM     10  C   UNL     1       0.146  10.122  18.624  0.00  0.00    +0.000 A 
BRANCH   5  12
ATOM     11  C   UNL     1      -2.841  11.512  17.979  0.00  0.00    +0.000 C 
ATOM     12  C   UNL     1      -1.920  11.573  19.205  0.00  0.00    +0.000 C 
BRANCH  12  13
ATOM     13  S   UNL     1      -2.094  13.202  20.049  0.00  0.00    +0.000 S 
BRANCH  13  14
ATOM     14  C   UNL     1      -3.048  12.836  21.432  0.00  0.00    +0.000 A 
ATOM     15  N   UNL     1      -4.330  12.560  21.484  0.00  0.00    +0.000 NA
ATOM     16  N   UNL     1      -4.661  12.389  22.813  0.00  0.00    +0.000 NA
ATOM     17  C   UNL     1      -3.566  12.552  23.521  0.00  0.00    +0.000 A 
ATOM     18  N   UNL     1      -2.523  12.821  22.691  0.00  0.00    +0.000 N 
ATOM     19  C   UNL     1      -1.158  13.062  23.077  0.00  0.00    +0.000 C 
ENDBRANCH  13  14
ENDBRANCH  12  13
ENDBRANCH   5  12
ENDBRANCH   1   9
BRANCH   2  20
ATOM     20  C   UNL     1       2.769   6.454  18.478  0.00  0.00    +0.000 A 
ATOM     21  C   UNL     1       3.721   6.466  17.472  0.00  0.00    +0.000 A 
ATOM     22  C   UNL     1       4.216   5.249  17.014  0.00  0.00    +0.000 A 
ATOM     23  C   UNL     1       3.719   4.070  17.594  0.00  0.00    +0.000 A 
ATOM     24  C   UNL     1       2.755   4.133  18.606  0.00  0.00    +0.000 A 
ATOM     25  N   UNL     1       2.278   5.324  19.044  0.00  0.00    +0.000 NA
BRANCH  22  26
ATOM     26  C   UNL     1       5.266   5.206  15.937  0.00  0.00    +0.000 C 
ATOM     27  F   UNL     1       5.383   6.373  15.246  0.00  0.00    +0.000 F 
ATOM     28  F   UNL     1       6.504   4.938  16.431  0.00  0.00    +0.000 F 
ATOM     29  F   UNL     1       5.015   4.244  15.007  0.00  0.00    +0.000 F 
ENDBRANCH  22  26
BRANCH  24  30
ATOM     30  C   UNL     1       2.191   2.888  19.246  0.00  0.00    +0.000 C 
ATOM     31  C   UNL     1       1.021   2.941  20.197  0.00  0.00    +0.000 C 
ATOM     32  C   UNL     1       0.818   2.423  18.806  0.00  0.00    +0.000 C 
ENDBRANCH  24  30
ENDBRANCH   2  20
TORSDOF 7
ENDMDL
MODEL 6
REMARK VINA RESULT:      -8.6      1.397      1.879
REMARK  Name = 
REMARK  9 active torsions:
REMARK  status: ('A' for Active; 'I' for Inactive)
REMARK    1  A    between atoms: C_1  and  C_2
REMARK    2  A    between atoms: C_2  and  S_3
REMARK    3  A    between atoms: C_2  and  C_10
REMARK    4  A    between atoms: S_3  and  C_4
REMARK    5  A    between atoms: N_8  and  C_9
REMARK    6  A    between atoms: C_14  and  N_15
REMARK    7  A    between atoms: C_16  and  C_18
REMARK    8  A    between atoms: C_20  and  C_21
REMARK    9  A    between atoms: C_26  and  C_27
REMARK                            x       y       z     vdW  Elec       q    Type
REMARK                         _______ _______ _______ _____ _____    ______ ____
ROOT
ATOM      1  N   UNL     1       1.239   8.157  20.494  0.00  0.00    +0.000 N 
ATOM      2  C   UNL     1       1.833   8.195  19.249  0.00  0.00    +0.000 C 
ATOM      3  O   UNL     1       1.856   9.136  18.462  0.00  0.00    +0.000 OA
ATOM      4  H   UNL     1       1.385   7.292  21.011  0.00  0.00    +0.000 HD
ENDROOT
BRANCH   1   9
ATOM      5  C   UNL     1      -0.716  11.297  20.848  0.00  0.00    +0.000 A 
ATOM      6  C   UNL     1      -0.969  11.287  22.233  0.00  0.00    +0.000 A 
ATOM      7  C   UNL     1      -0.446  10.289  23.048  0.00  0.00    +0.000 A 
ATOM      8  C   UNL     1       0.302   9.256  22.491  0.00  0.00    +0.000 A 
ATOM      9  C   UNL     1       0.526   9.203  21.117  0.00  0.00    +0.000 A 
ATOM     10  C   UNL     1       0.030  10.233  20.305  0.00  0.00    +0.000 A 
BRANCH   5  12
ATOM     11  C   UNL     1      -0.947  13.854  20.669  0.00  0.00    +0.000 C 
ATOM     12  C   UNL     1      -1.210  12.488  20.021  0.00  0.00    +0.000 C 
BRANCH  12  13
ATOM     13  S   UNL     1      -3.018  12.256  19.743  0.00  0.00    +0.000 S 
BRANCH  13  14
ATOM     14  C   UNL     1      -3.101  11.643  18.139  0.00  0.00    +0.000 A 
ATOM     15  N   UNL     1      -2.113  11.404  17.309  0.00  0.00    +0.000 NA
ATOM     16  N   UNL     1      -2.667  10.974  16.120  0.00  0.00    +0.000 NA
ATOM     17  C   UNL     1      -3.972  10.951  16.274  0.00  0.00    +0.000 A 
ATOM     18  N   UNL     1      -4.288  11.351  17.535  0.00  0.00    +0.000 N 
ATOM     19  C   UNL     1      -5.609  11.462  18.094  0.00  0.00    +0.000 C 
ENDBRANCH  13  14
ENDBRANCH  12  13
ENDBRANCH   5  12
ENDBRANCH   1   9
BRANCH   2  20
ATOM     20  C   UNL     1       2.545   6.935  18.867  0.00  0.00    +0.000 A 
ATOM     21  C   UNL     1       3.457   6.956  17.825  0.00  0.00    +0.000 A 
ATOM     22  C   UNL     1       4.128   5.779  17.508  0.00  0.00    +0.000 A 
ATOM     23  C   UNL     1       3.840   4.628  18.261  0.00  0.00    +0.000 A 
ATOM     24  C   UNL     1       2.904   4.680  19.300  0.00  0.00    +0.000 A 
ATOM     25  N   UNL     1       2.255   5.832  19.600  0.00  0.00    +0.000 NA
BRANCH  22  26
ATOM     26  C   UNL     1       5.143   5.750  16.398  0.00  0.00    +0.000 C 
ATOM     27  F   UNL     1       5.102   4.611  15.654  0.00  0.00    +0.000 F 
ATOM     28  F   UNL     1       4.979   6.777  15.521  0.00  0.00    +0.000 F 
ATOM     29  F   UNL     1       6.420   5.849  16.860  0.00  0.00    +0.000 F 
ENDBRANCH  22  26
BRANCH  24  30
ATOM     30  C   UNL     1       2.562   3.463  20.124  0.00  0.00    +0.000 C 
ATOM     31  C   UNL     1       1.232   3.322  20.824  0.00  0.00    +0.000 C 
ATOM     32  C   UNL     1       1.505   2.517  19.590  0.00  0.00    +0.000 C 
ENDBRANCH  24  30
ENDBRANCH   2  20
TORSDOF 7
ENDMDL
MODEL 7
REMARK VINA RESULT:      -8.6      2.667      3.648
REMARK  Name = 
REMARK  9 active torsions:
REMARK  status: ('A' for Active; 'I' for Inactive)
REMARK    1  A    between atoms: C_1  and  C_2
REMARK    2  A    between atoms: C_2  and  S_3
REMARK    3  A    between atoms: C_2  and  C_10
REMARK    4  A    between atoms: S_3  and  C_4
REMARK    5  A    between atoms: N_8  and  C_9
REMARK    6  A    between atoms: C_14  and  N_15
REMARK    7  A    between atoms: C_16  and  C_18
REMARK    8  A    between atoms: C_20  and  C_21
REMARK    9  A    between atoms: C_26  and  C_27
REMARK                            x       y       z     vdW  Elec       q    Type
REMARK                         _______ _______ _______ _____ _____    ______ ____
ROOT
ATOM      1  N   UNL     1       2.011   8.542  18.131  0.00  0.00    +0.000 N 
ATOM      2  C   UNL     1       2.173   7.641  19.164  0.00  0.00    +0.000 C 
ATOM      3  O   UNL     1       1.965   7.831  20.358  0.00  0.00    +0.000 OA
ATOM      4  H   UNL     1       2.187   8.164  17.202  0.00  0.00    +0.000 HD
ENDROOT
BRANCH   1   9
ATOM      5  C   UNL     1      -0.306  11.410  18.596  0.00  0.00    +0.000 A 
ATOM      6  C   UNL     1       0.604  12.484  18.559  0.00  0.00    +0.000 A 
ATOM      7  C   UNL     1       1.957  12.267  18.319  0.00  0.00    +0.000 A 
ATOM      8  C   UNL     1       2.436  10.969  18.157  0.00  0.00    +0.000 A 
ATOM      9  C   UNL     1       1.573   9.879  18.243  0.00  0.00    +0.000 A 
ATOM     10  C   UNL     1       0.205  10.106  18.445  0.00  0.00    +0.000 A 
BRANCH   5  12
ATOM     11  C   UNL     1      -2.197  12.287  20.106  0.00  0.00    +0.000 C 
ATOM     12  C   UNL     1      -1.800  11.719  18.737  0.00  0.00    +0.000 C 
BRANCH  12  13
ATOM     13  S   UNL     1      -2.720  10.157  18.407  0.00  0.00    +0.000 S 
BRANCH  13  14
ATOM     14  C   UNL     1      -3.027  10.222  16.716  0.00  0.00    +0.000 A 
ATOM     15  N   UNL     1      -2.363   9.637  15.747  0.00  0.00    +0.000 NA
ATOM     16  N   UNL     1      -2.943  10.023  14.557  0.00  0.00    +0.000 NA
ATOM     17  C   UNL     1      -3.950  10.818  14.843  0.00  0.00    +0.000 A 
ATOM     18  N   UNL     1      -4.048  10.959  16.193  0.00  0.00    +0.000 N 
ATOM     19  C   UNL     1      -5.019  11.746  16.905  0.00  0.00    +0.000 C 
ENDBRANCH  13  14
ENDBRANCH  12  13
ENDBRANCH   5  12
ENDBRANCH   1   9
BRANCH   2  20
ATOM     20  C   UNL     1       2.626   6.282  18.732  0.00  0.00    +0.000 A 
ATOM     21  C   UNL     1       1.917   5.165  19.140  0.00  0.00    +0.000 A 
ATOM     22  C   UNL     1       2.340   3.915  18.700  0.00  0.00    +0.000 A 
ATOM     23  C   UNL     1       3.470   3.852  17.867  0.00  0.00    +0.000 A 
ATOM     24  C   UNL     1       4.140   5.023  17.496  0.00  0.00    +0.000 A 
ATOM     25  N   UNL     1       3.719   6.237  17.931  0.00  0.00    +0.000 NA
BRANCH  22  26
ATOM     26  C   UNL     1       1.595   2.670  19.097  0.00  0.00    +0.000 C 
ATOM     27  F   UNL     1       0.444   2.478  18.395  0.00  0.00    +0.000 F 
ATOM     28  F   UNL     1       2.335   1.543  18.916  0.00  0.00    +0.000 F 
ATOM     29  F   UNL     1       1.235   2.677  20.410  0.00  0.00    +0.000 F 
ENDBRANCH  22  26
BRANCH  24  30
ATOM     30  C   UNL     1       5.362   4.995  16.611  0.00  0.00    +0.000 C 
ATOM     31  C   UNL     1       5.344   4.343  15.250  0.00  0.00    +0.000 C 
ATOM     32  C   UNL     1       5.347   5.838  15.352  0.00  0.00    +0.000 C 
ENDBRANCH  24  30
ENDBRANCH   2  20
TORSDOF 7
ENDMDL
MODEL 8
REMARK VINA RESULT:      -8.6      2.381      3.288
REMARK  Name = 
REMARK  9 active torsions:
REMARK  status: ('A' for Active; 'I' for Inactive)
REMARK    1  A    between atoms: C_1  and  C_2
REMARK    2  A    between atoms: C_2  and  S_3
REMARK    3  A    between atoms: C_2  and  C_10
REMARK    4  A    between atoms: S_3  and  C_4
REMARK    5  A    between atoms: N_8  and  C_9
REMARK    6  A    between atoms: C_14  and  N_15
REMARK    7  A    between atoms: C_16  and  C_18
REMARK    8  A    between atoms: C_20  and  C_21
REMARK    9  A    between atoms: C_26  and  C_27
REMARK                            x       y       z     vdW  Elec       q    Type
REMARK                         _______ _______ _______ _____ _____    ______ ____
ROOT
ATOM      1  N   UNL     1       1.620   7.529  20.130  0.00  0.00    +0.000 N 
ATOM      2  C   UNL     1       2.399   7.477  18.991  0.00  0.00    +0.000 C 
ATOM      3  O   UNL     1       2.740   8.416  18.278  0.00  0.00    +0.000 OA
ATOM      4  H   UNL     1       1.501   6.638  20.607  0.00  0.00    +0.000 HD
ENDROOT
BRANCH   1   9
ATOM      5  C   UNL     1      -0.010  10.862  20.340  0.00  0.00    +0.000 A 
ATOM      6  C   UNL     1      -0.168  10.983  21.734  0.00  0.00    +0.000 A 
ATOM      7  C   UNL     1       0.315  10.003  22.596  0.00  0.00    +0.000 A 
ATOM      8  C   UNL     1       0.926   8.863  22.082  0.00  0.00    +0.000 A 
ATOM      9  C   UNL     1       1.050   8.684  20.706  0.00  0.00    +0.000 A 
ATOM     10  C   UNL     1       0.598   9.692  19.844  0.00  0.00    +0.000 A 
BRANCH   5  12
ATOM     11  C   UNL     1       0.180  13.377  19.829  0.00  0.00    +0.000 C 
ATOM     12  C   UNL     1      -0.447  12.029  19.449  0.00  0.00    +0.000 C 
BRANCH  12  13
ATOM     13  S   UNL     1      -2.285  12.136  19.541  0.00  0.00    +0.000 S 
BRANCH  13  14
ATOM     14  C   UNL     1      -2.797  11.555  18.006  0.00  0.00    +0.000 A 
ATOM     15  N   UNL     1      -2.058  11.090  17.026  0.00  0.00    +0.000 NA
ATOM     16  N   UNL     1      -2.903  10.798  15.975  0.00  0.00    +0.000 NA
ATOM     17  C   UNL     1      -4.128  11.080  16.358  0.00  0.00    +0.000 A 
ATOM     18  N   UNL     1      -4.110  11.547  17.635  0.00  0.00    +0.000 N 
ATOM     19  C   UNL     1      -5.245  11.964  18.414  0.00  0.00    +0.000 C 
ENDBRANCH  13  14
ENDBRANCH  12  13
ENDBRANCH   5  12
ENDBRANCH   1   9
BRANCH   2  20
ATOM     20  C   UNL     1       2.886   6.107  18.639  0.00  0.00    +0.000 A 
ATOM     21  C   UNL     1       2.161   5.000  19.046  0.00  0.00    +0.000 A 
ATOM     22  C   UNL     1       2.618   3.738  18.681  0.00  0.00    +0.000 A 
ATOM     23  C   UNL     1       3.797   3.653  17.922  0.00  0.00    +0.000 A 
ATOM     24  C   UNL     1       4.480   4.816  17.547  0.00  0.00    +0.000 A 
ATOM     25  N   UNL     1       4.026   6.041  17.909  0.00  0.00    +0.000 NA
BRANCH  22  26
ATOM     26  C   UNL     1       1.857   2.502  19.080  0.00  0.00    +0.000 C 
ATOM     27  F   UNL     1       2.515   1.344  18.795  0.00  0.00    +0.000 F 
ATOM     28  F   UNL     1       1.595   2.464  20.414  0.00  0.00    +0.000 F 
ATOM     29  F   UNL     1       0.651   2.411  18.455  0.00  0.00    +0.000 F 
ENDBRANCH  22  26
BRANCH  24  30
ATOM     30  C   UNL     1       5.754   4.764  16.740  0.00  0.00    +0.000 C 
ATOM     31  C   UNL     1       6.721   5.923  16.701  0.00  0.00    +0.000 C 
ATOM     32  C   UNL     1       7.069   4.698  17.491  0.00  0.00    +0.000 C 
ENDBRANCH  24  30
ENDBRANCH   2  20
TORSDOF 7
ENDMDL
MODEL 9
REMARK VINA RESULT:      -8.6      2.629      3.969
REMARK  Name = 
REMARK  9 active torsions:
REMARK  status: ('A' for Active; 'I' for Inactive)
REMARK    1  A    between atoms: C_1  and  C_2
REMARK    2  A    between atoms: C_2  and  S_3
REMARK    3  A    between atoms: C_2  and  C_10
REMARK    4  A    between atoms: S_3  and  C_4
REMARK    5  A    between atoms: N_8  and  C_9
REMARK    6  A    between atoms: C_14  and  N_15
REMARK    7  A    between atoms: C_16  and  C_18
REMARK    8  A    between atoms: C_20  and  C_21
REMARK    9  A    between atoms: C_26  and  C_27
REMARK                            x       y       z     vdW  Elec       q    Type
REMARK                         _______ _______ _______ _____ _____    ______ ____
ROOT
ATOM      1  N   UNL     1       2.146   7.566  19.491  0.00  0.00    +0.000 N 
ATOM      2  C   UNL     1       2.640   7.651  18.205  0.00  0.00    +0.000 C 
ATOM      3  O   UNL     1       2.520   8.587  17.422  0.00  0.00    +0.000 OA
ATOM      4  H   UNL     1       2.408   6.720  19.994  0.00  0.00    +0.000 HD
ENDROOT
BRANCH   1   9
ATOM      5  C   UNL     1       0.363  10.769  20.098  0.00  0.00    +0.000 A 
ATOM      6  C   UNL     1      -0.159  10.532  21.384  0.00  0.00    +0.000 A 
ATOM      7  C   UNL     1       0.127   9.355  22.067  0.00  0.00    +0.000 A 
ATOM      8  C   UNL     1       0.904   8.370  21.462  0.00  0.00    +0.000 A 
ATOM      9  C   UNL     1       1.392   8.547  20.169  0.00  0.00    +0.000 A 
ATOM     10  C   UNL     1       1.134   9.752  19.501  0.00  0.00    +0.000 A 
BRANCH   5  12
ATOM     11  C   UNL     1      -0.944  12.122  18.343  0.00  0.00    +0.000 C 
ATOM     12  C   UNL     1       0.120  12.134  19.448  0.00  0.00    +0.000 C 
BRANCH  12  13
ATOM     13  S   UNL     1       1.732  12.718  18.769  0.00  0.00    +0.000 S 
BRANCH  13  14
ATOM     14  C   UNL     1       2.454  13.534  20.099  0.00  0.00    +0.000 A 
ATOM     15  N   UNL     1       2.124  13.469  21.368  0.00  0.00    +0.000 NA
ATOM     16  N   UNL     1       2.949  14.338  22.054  0.00  0.00    +0.000 NA
ATOM     17  C   UNL     1       3.762  14.889  21.180  0.00  0.00    +0.000 A 
ATOM     18  N   UNL     1       3.495  14.401  19.939  0.00  0.00    +0.000 N 
ATOM     19  C   UNL     1       4.164  14.753  18.716  0.00  0.00    +0.000 C 
ENDBRANCH  13  14
ENDBRANCH  12  13
ENDBRANCH   5  12
ENDBRANCH   1   9
BRANCH   2  20
ATOM     20  C   UNL     1       3.430   6.458  17.768  0.00  0.00    +0.000 A 
ATOM     21  C   UNL     1       4.757   6.615  17.404  0.00  0.00    +0.000 A 
ATOM     22  C   UNL     1       5.479   5.486  17.030  0.00  0.00    +0.000 A 
ATOM     23  C   UNL     1       4.821   4.245  17.036  0.00  0.00    +0.000 A 
ATOM     24  C   UNL     1       3.476   4.162  17.414  0.00  0.00    +0.000 A 
ATOM     25  N   UNL     1       2.781   5.268  17.775  0.00  0.00    +0.000 NA
BRANCH  22  26
ATOM     26  C   UNL     1       6.930   5.597  16.644  0.00  0.00    +0.000 C 
ATOM     27  F   UNL     1       7.484   6.801  16.955  0.00  0.00    +0.000 F 
ATOM     28  F   UNL     1       7.702   4.660  17.257  0.00  0.00    +0.000 F 
ATOM     29  F   UNL     1       7.125   5.431  15.307  0.00  0.00    +0.000 F 
ENDBRANCH  22  26
BRANCH  24  30
ATOM     30  C   UNL     1       2.733   2.848  17.424  0.00  0.00    +0.000 C 
ATOM     31  C   UNL     1       3.156   1.700  18.309  0.00  0.00    +0.000 C 
ATOM     32  C   UNL     1       1.934   2.494  18.661  0.00  0.00    +0.000 C 
ENDBRANCH  24  30
ENDBRANCH   2  20
TORSDOF 7
ENDMDL
