MODEL 1
REMARK VINA RESULT:     -10.0      0.000      0.000
REMARK  Name = 
REMARK  9 active torsions:
REMARK  status: ('A' for Active; 'I' for Inactive)
REMARK    1  A    between atoms: C_1  and  C_2
REMARK    2  A    between atoms: C_2  and  C_3
REMARK    3  A    between atoms: C_2  and  N_36
REMARK    4  A    between atoms: C_7  and  C_8
REMARK    5  A    between atoms: N_14  and  C_15
REMARK    6  A    between atoms: C_19  and  C_20
REMARK    7  A    between atoms: C_20  and  C_21
REMARK    8  A    between atoms: C_21  and  C_24
REMARK    9  A    between atoms: N_28  and  C_29
REMARK                            x       y       z     vdW  Elec       q    Type
REMARK                         _______ _______ _______ _____ _____    ______ ____
ROOT
ATOM      1  C   UNL     1       3.778   5.391  17.945  0.00  0.00    +0.000 A 
ATOM      2  C   UNL     1       3.398   6.727  18.077  0.00  0.00    +0.000 A 
ATOM      3  C   UNL     1       2.531   7.033  19.107  0.00  0.00    +0.000 A 
ATOM      4  C   UNL     1       2.064   6.097  20.023  0.00  0.00    +0.000 A 
ATOM      5  C   UNL     1       2.414   4.761  19.909  0.00  0.00    +0.000 A 
ATOM      6  C   UNL     1       3.249   4.418  18.838  0.00  0.00    +0.000 A 
ATOM      7  C   UNL     1       1.224   6.778  21.051  0.00  0.00    +0.000 C 
ATOM      8  N   UNL     1       1.237   8.160  20.603  0.00  0.00    +0.000 N 
ATOM      9  C   UNL     1       1.974   8.344  19.445  0.00  0.00    +0.000 C 
ATOM     10  O   UNL     1       2.193   9.349  18.785  0.00  0.00    +0.000 OA
ENDROOT
BRANCH   8  11
ATOM     11  C   UNL     1       0.450   9.138  21.230  0.00  0.00    +0.000 A 
ATOM     12  C   UNL     1       0.205   9.099  22.600  0.00  0.00    +0.000 A 
ATOM     13  C   UNL     1      -0.526  10.115  23.201  0.00  0.00    +0.000 A 
ATOM     14  C   UNL     1      -1.051  11.149  22.425  0.00  0.00    +0.000 A 
ATOM     15  C   UNL     1      -0.871  11.195  21.028  0.00  0.00    +0.000 A 
ATOM     16  C   UNL     1      -0.085  10.177  20.467  0.00  0.00    +0.000 A 
BRANCH  15  17
ATOM     17  C   UNL     1      -1.561  12.307  20.109  0.00  0.00    +0.000 C 
ATOM     18  C   UNL     1      -1.958  11.935  18.654  0.00  0.00    +0.000 C 
ATOM     19  O   UNL     1      -3.277  12.522  18.844  0.00  0.00    +0.000 OA
ATOM     20  C   UNL     1      -3.105  12.376  20.276  0.00  0.00    +0.000 C 
BRANCH  17  21
ATOM     21  C   UNL     1      -0.878  13.675  20.219  0.00  0.00    +0.000 C 
ATOM     22  F   UNL     1      -0.938  14.321  19.015  0.00  0.00    +0.000 F 
ATOM     23  F   UNL     1      -1.652  14.440  21.054  0.00  0.00    +0.000 F 
BRANCH  21  24
ATOM     24  C   UNL     1       0.540  13.702  20.702  0.00  0.00    +0.000 A 
ATOM     25  N   UNL     1       0.995  14.001  21.907  0.00  0.00    +0.000 NA
ATOM     26  N   UNL     1       2.369  13.981  21.876  0.00  0.00    +0.000 NA
ATOM     27  C   UNL     1       2.731  13.622  20.668  0.00  0.00    +0.000 A 
ATOM     28  N   UNL     1       1.624  13.393  19.912  0.00  0.00    +0.000 N 
ATOM     29  C   UNL     1       1.626  12.893  18.562  0.00  0.00    +0.000 C 
ENDBRANCH  21  24
ENDBRANCH  17  21
ENDBRANCH  15  17
ENDBRANCH   8  11
BRANCH   5  30
ATOM     30  C   UNL     1       1.965   3.698  20.878  0.00  0.00    +0.000 C 
ATOM     31  F   UNL     1       0.615   3.530  20.922  0.00  0.00    +0.000 F 
ATOM     32  F   UNL     1       2.486   2.474  20.589  0.00  0.00    +0.000 F 
ATOM     33  F   UNL     1       2.343   3.979  22.154  0.00  0.00    +0.000 F 
ENDBRANCH   5  30
BRANCH   1  35
ATOM     34  C   UNL     1       4.434   3.560  16.414  0.00  0.00    +0.000 C 
ATOM     35  C   UNL     1       4.784   4.985  16.875  0.00  0.00    +0.000 C 
BRANCH  35  36
ATOM     36  N   UNL     1       6.171   5.077  17.369  0.00  0.00    +0.000 NA
ATOM     37  C   UNL     1       6.929   6.215  16.831  0.00  0.00    +0.000 C 
ATOM     38  C   UNL     1       7.629   6.891  18.003  0.00  0.00    +0.000 C 
ATOM     39  C   UNL     1       7.621   5.845  19.089  0.00  0.00    +0.000 C 
ATOM     40  F   UNL     1       8.675   5.005  18.911  0.00  0.00    +0.000 F 
ATOM     41  C   UNL     1       6.314   5.110  18.837  0.00  0.00    +0.000 C 
ENDBRANCH  35  36
ENDBRANCH   1  35
TORSDOF 7
ENDMDL
MODEL 2
REMARK VINA RESULT:      -9.7      2.641      8.814
REMARK  Name = 
REMARK  9 active torsions:
REMARK  status: ('A' for Active; 'I' for Inactive)
REMARK    1  A    between atoms: C_1  and  C_2
REMARK    2  A    between atoms: C_2  and  C_3
REMARK    3  A    between atoms: C_2  and  N_36
REMARK    4  A    between atoms: C_7  and  C_8
REMARK    5  A    between atoms: N_14  and  C_15
REMARK    6  A    between atoms: C_19  and  C_20
REMARK    7  A    between atoms: C_20  and  C_21
REMARK    8  A    between atoms: C_21  and  C_24
REMARK    9  A    between atoms: N_28  and  C_29
REMARK                            x       y       z     vdW  Elec       q    Type
REMARK                         _______ _______ _______ _____ _____    ______ ____
ROOT
ATOM      1  C   UNL     1       0.859  11.805  19.669  0.00  0.00    +0.000 A 
ATOM      2  C   UNL     1       1.388  10.964  18.690  0.00  0.00    +0.000 A 
ATOM      3  C   UNL     1       1.554   9.635  19.029  0.00  0.00    +0.000 A 
ATOM      4  C   UNL     1       1.186   9.104  20.260  0.00  0.00    +0.000 A 
ATOM      5  C   UNL     1       0.670   9.918  21.256  0.00  0.00    +0.000 A 
ATOM      6  C   UNL     1       0.544  11.280  20.953  0.00  0.00    +0.000 A 
ATOM      7  C   UNL     1       1.418   7.630  20.259  0.00  0.00    +0.000 C 
ATOM      8  N   UNL     1       1.980   7.400  18.939  0.00  0.00    +0.000 N 
ATOM      9  C   UNL     1       2.101   8.563  18.196  0.00  0.00    +0.000 C 
ATOM     10  O   UNL     1       2.534   8.753  17.069  0.00  0.00    +0.000 OA
ENDROOT
BRANCH   8  11
ATOM     11  C   UNL     1       2.466   6.140  18.561  0.00  0.00    +0.000 A 
ATOM     12  C   UNL     1       1.861   4.968  19.009  0.00  0.00    +0.000 A 
ATOM     13  C   UNL     1       2.327   3.737  18.568  0.00  0.00    +0.000 A 
ATOM     14  C   UNL     1       3.429   3.675  17.713  0.00  0.00    +0.000 A 
ATOM     15  C   UNL     1       4.102   4.834  17.281  0.00  0.00    +0.000 A 
ATOM     16  C   UNL     1       3.569   6.060  17.709  0.00  0.00    +0.000 A 
BRANCH  15  17
ATOM     17  C   UNL     1       5.434   4.777  16.397  0.00  0.00    +0.000 C 
ATOM     18  C   UNL     1       5.536   3.716  15.266  0.00  0.00    +0.000 C 
ATOM     19  O   UNL     1       6.002   4.731  14.332  0.00  0.00    +0.000 OA
ATOM     20  C   UNL     1       5.411   5.746  15.182  0.00  0.00    +0.000 C 
BRANCH  17  21
ATOM     21  C   UNL     1       6.709   4.889  17.239  0.00  0.00    +0.000 C 
ATOM     22  F   UNL     1       6.542   4.230  18.425  0.00  0.00    +0.000 F 
ATOM     23  F   UNL     1       7.681   4.174  16.587  0.00  0.00    +0.000 F 
BRANCH  21  24
ATOM     24  C   UNL     1       7.225   6.266  17.530  0.00  0.00    +0.000 A 
ATOM     25  N   UNL     1       7.103   7.363  16.803  0.00  0.00    +0.000 NA
ATOM     26  N   UNL     1       7.806   8.375  17.411  0.00  0.00    +0.000 NA
ATOM     27  C   UNL     1       8.305   7.894  18.525  0.00  0.00    +0.000 A 
ATOM     28  N   UNL     1       7.933   6.594  18.665  0.00  0.00    +0.000 N 
ATOM     29  C   UNL     1       8.213   5.765  19.808  0.00  0.00    +0.000 C 
ENDBRANCH  21  24
ENDBRANCH  17  21
ENDBRANCH  15  17
ENDBRANCH   8  11
BRANCH   5  30
ATOM     30  C   UNL     1       0.229   9.407  22.603  0.00  0.00    +0.000 C 
ATOM     31  F   UNL     1      -0.388  10.346  23.371  0.00  0.00    +0.000 F 
ATOM     32  F   UNL     1      -0.646   8.369  22.505  0.00  0.00    +0.000 F 
ATOM     33  F   UNL     1       1.275   8.954  23.345  0.00  0.00    +0.000 F 
ENDBRANCH   5  30
BRANCH   1  35
ATOM     34  C   UNL     1      -0.464  13.316  18.222  0.00  0.00    +0.000 C 
ATOM     35  C   UNL     1       0.583  13.269  19.349  0.00  0.00    +0.000 C 
BRANCH  35  36
ATOM     36  N   UNL     1       1.817  13.988  18.981  0.00  0.00    +0.000 NA
ATOM     37  C   UNL     1       1.609  15.396  18.615  0.00  0.00    +0.000 C 
ATOM     38  C   UNL     1       2.654  16.220  19.355  0.00  0.00    +0.000 C 
ATOM     39  C   UNL     1       3.706  15.212  19.747  0.00  0.00    +0.000 C 
ATOM     40  F   UNL     1       4.557  15.023  18.703  0.00  0.00    +0.000 F 
ATOM     41  C   UNL     1       2.889  13.954  19.995  0.00  0.00    +0.000 C 
ENDBRANCH  35  36
ENDBRANCH   1  35
TORSDOF 7
ENDMDL
MODEL 3
REMARK VINA RESULT:      -9.6      2.977      9.152
REMARK  Name = 
REMARK  9 active torsions:
REMARK  status: ('A' for Active; 'I' for Inactive)
REMARK    1  A    between atoms: C_1  and  C_2
REMARK    2  A    between atoms: C_2  and  C_3
REMARK    3  A    between atoms: C_2  and  N_36
REMARK    4  A    between atoms: C_7  and  C_8
REMARK    5  A    between atoms: N_14  and  C_15
REMARK    6  A    between atoms: C_19  and  C_20
REMARK    7  A    between atoms: C_20  and  C_21
REMARK    8  A    between atoms: C_21  and  C_24
REMARK    9  A    between atoms: N_28  and  C_29
REMARK                            x       y       z     vdW  Elec       q    Type
REMARK                         _______ _______ _______ _____ _____    ______ ____
ROOT
ATOM      1  C   UNL     1      -0.061  11.295  19.009  0.00  0.00    +0.000 A 
ATOM      2  C   UNL     1       0.693  10.433  18.211  0.00  0.00    +0.000 A 
ATOM      3  C   UNL     1       1.229   9.319  18.826  0.00  0.00    +0.000 A 
ATOM      4  C   UNL     1       1.021   9.003  20.164  0.00  0.00    +0.000 A 
ATOM      5  C   UNL     1       0.289   9.848  20.983  0.00  0.00    +0.000 A 
ATOM      6  C   UNL     1      -0.219  11.012  20.394  0.00  0.00    +0.000 A 
ATOM      7  C   UNL     1       1.665   7.694  20.476  0.00  0.00    +0.000 C 
ATOM      8  N   UNL     1       2.277   7.333  19.208  0.00  0.00    +0.000 N 
ATOM      9  C   UNL     1       2.065   8.281  18.220  0.00  0.00    +0.000 C 
ATOM     10  O   UNL     1       2.432   8.319  17.055  0.00  0.00    +0.000 OA
ENDROOT
BRANCH   8  11
ATOM     11  C   UNL     1       3.105   6.207  19.091  0.00  0.00    +0.000 A 
ATOM     12  C   UNL     1       3.178   5.256  20.105  0.00  0.00    +0.000 A 
ATOM     13  C   UNL     1       3.960   4.120  19.934  0.00  0.00    +0.000 A 
ATOM     14  C   UNL     1       4.705   3.958  18.765  0.00  0.00    +0.000 A 
ATOM     15  C   UNL     1       4.700   4.924  17.739  0.00  0.00    +0.000 A 
ATOM     16  C   UNL     1       3.859   6.031  17.930  0.00  0.00    +0.000 A 
BRANCH  15  17
ATOM     17  C   UNL     1       5.635   4.810  16.447  0.00  0.00    +0.000 C 
ATOM     18  C   UNL     1       5.417   3.624  15.467  0.00  0.00    +0.000 C 
ATOM     19  O   UNL     1       5.443   4.534  14.331  0.00  0.00    +0.000 OA
ATOM     20  C   UNL     1       5.110   5.622  15.230  0.00  0.00    +0.000 C 
BRANCH  17  21
ATOM     21  C   UNL     1       7.112   5.074  16.759  0.00  0.00    +0.000 C 
ATOM     22  F   UNL     1       7.590   4.102  17.593  0.00  0.00    +0.000 F 
ATOM     23  F   UNL     1       7.805   4.888  15.590  0.00  0.00    +0.000 F 
BRANCH  21  24
ATOM     24  C   UNL     1       7.469   6.410  17.334  0.00  0.00    +0.000 A 
ATOM     25  N   UNL     1       7.451   7.594  16.745  0.00  0.00    +0.000 NA
ATOM     26  N   UNL     1       7.938   8.531  17.623  0.00  0.00    +0.000 NA
ATOM     27  C   UNL     1       8.200   7.916  18.751  0.00  0.00    +0.000 A 
ATOM     28  N   UNL     1       7.881   6.599  18.635  0.00  0.00    +0.000 N 
ATOM     29  C   UNL     1       7.944   5.629  19.696  0.00  0.00    +0.000 C 
ENDBRANCH  21  24
ENDBRANCH  17  21
ENDBRANCH  15  17
ENDBRANCH   8  11
BRANCH   5  30
ATOM     30  C   UNL     1       0.003   9.557  22.434  0.00  0.00    +0.000 C 
ATOM     31  F   UNL     1      -0.602  10.584  23.090  0.00  0.00    +0.000 F 
ATOM     32  F   UNL     1      -0.807   8.476  22.600  0.00  0.00    +0.000 F 
ATOM     33  F   UNL     1       1.139   9.291  23.134  0.00  0.00    +0.000 F 
ENDBRANCH   5  30
BRANCH   1  35
ATOM     34  C   UNL     1      -0.819  13.606  19.464  0.00  0.00    +0.000 C 
ATOM     35  C   UNL     1      -0.741  12.508  18.389  0.00  0.00    +0.000 C 
BRANCH  35  36
ATOM     36  N   UNL     1      -2.073  12.171  17.852  0.00  0.00    +0.000 NA
ATOM     37  C   UNL     1      -2.042  11.422  16.588  0.00  0.00    +0.000 C 
ATOM     38  C   UNL     1      -3.012  10.256  16.725  0.00  0.00    +0.000 C 
ATOM     39  C   UNL     1      -3.899  10.650  17.879  0.00  0.00    +0.000 C 
ATOM     40  F   UNL     1      -4.895  11.457  17.424  0.00  0.00    +0.000 F 
ATOM     41  C   UNL     1      -2.955  11.433  18.777  0.00  0.00    +0.000 C 
ENDBRANCH  35  36
ENDBRANCH   1  35
TORSDOF 7
ENDMDL
MODEL 4
REMARK VINA RESULT:      -9.6      2.058      2.911
REMARK  Name = 
REMARK  9 active torsions:
REMARK  status: ('A' for Active; 'I' for Inactive)
REMARK    1  A    between atoms: C_1  and  C_2
REMARK    2  A    between atoms: C_2  and  C_3
REMARK    3  A    between atoms: C_2  and  N_36
REMARK    4  A    between atoms: C_7  and  C_8
REMARK    5  A    between atoms: N_14  and  C_15
REMARK    6  A    between atoms: C_19  and  C_20
REMARK    7  A    between atoms: C_20  and  C_21
REMARK    8  A    between atoms: C_21  and  C_24
REMARK    9  A    between atoms: N_28  and  C_29
REMARK                            x       y       z     vdW  Elec       q    Type
REMARK                         _______ _______ _______ _____ _____    ______ ____
ROOT
ATOM      1  C   UNL     1       3.827   5.253  17.992  0.00  0.00    +0.000 A 
ATOM      2  C   UNL     1       3.442   6.592  18.066  0.00  0.00    +0.000 A 
ATOM      3  C   UNL     1       2.564   6.937  19.074  0.00  0.00    +0.000 A 
ATOM      4  C   UNL     1       2.090   6.037  20.022  0.00  0.00    +0.000 A 
ATOM      5  C   UNL     1       2.444   4.699  19.965  0.00  0.00    +0.000 A 
ATOM      6  C   UNL     1       3.291   4.316  18.918  0.00  0.00    +0.000 A 
ATOM      7  C   UNL     1       1.237   6.757  21.013  0.00  0.00    +0.000 C 
ATOM      8  N   UNL     1       1.251   8.120  20.510  0.00  0.00    +0.000 N 
ATOM      9  C   UNL     1       2.000   8.259  19.352  0.00  0.00    +0.000 C 
ATOM     10  O   UNL     1       2.223   9.237  18.655  0.00  0.00    +0.000 OA
ENDROOT
BRANCH   8  11
ATOM     11  C   UNL     1       0.456   9.120  21.088  0.00  0.00    +0.000 A 
ATOM     12  C   UNL     1      -0.001   9.012  22.399  0.00  0.00    +0.000 A 
ATOM     13  C   UNL     1      -0.734  10.047  22.965  0.00  0.00    +0.000 A 
ATOM     14  C   UNL     1      -1.050  11.172  22.203  0.00  0.00    +0.000 A 
ATOM     15  C   UNL     1      -0.654  11.296  20.857  0.00  0.00    +0.000 A 
ATOM     16  C   UNL     1       0.128  10.251  20.340  0.00  0.00    +0.000 A 
BRANCH  15  17
ATOM     17  C   UNL     1      -1.105  12.523  19.937  0.00  0.00    +0.000 C 
ATOM     18  C   UNL     1      -2.042  13.607  20.540  0.00  0.00    +0.000 C 
ATOM     19  O   UNL     1      -1.185  14.663  20.020  0.00  0.00    +0.000 OA
ATOM     20  C   UNL     1      -0.097  13.707  19.947  0.00  0.00    +0.000 C 
BRANCH  17  21
ATOM     21  C   UNL     1      -1.514  12.088  18.525  0.00  0.00    +0.000 C 
ATOM     22  F   UNL     1      -1.095  13.017  17.614  0.00  0.00    +0.000 F 
ATOM     23  F   UNL     1      -0.782  10.967  18.228  0.00  0.00    +0.000 F 
BRANCH  21  24
ATOM     24  C   UNL     1      -2.965  11.806  18.282  0.00  0.00    +0.000 A 
ATOM     25  N   UNL     1      -3.991  12.010  19.090  0.00  0.00    +0.000 NA
ATOM     26  N   UNL     1      -5.128  11.523  18.490  0.00  0.00    +0.000 NA
ATOM     27  C   UNL     1      -4.787  11.075  17.306  0.00  0.00    +0.000 A 
ATOM     28  N   UNL     1      -3.456  11.270  17.112  0.00  0.00    +0.000 N 
ATOM     29  C   UNL     1      -2.741  10.991  15.895  0.00  0.00    +0.000 C 
ENDBRANCH  21  24
ENDBRANCH  17  21
ENDBRANCH  15  17
ENDBRANCH   8  11
BRANCH   5  30
ATOM     30  C   UNL     1       1.988   3.675  20.972  0.00  0.00    +0.000 C 
ATOM     31  F   UNL     1       2.323   3.981  22.256  0.00  0.00    +0.000 F 
ATOM     32  F   UNL     1       0.638   3.503  20.967  0.00  0.00    +0.000 F 
ATOM     33  F   UNL     1       2.528   2.449  20.734  0.00  0.00    +0.000 F 
ENDBRANCH   5  30
BRANCH   1  35
ATOM     34  C   UNL     1       4.523   3.352  16.567  0.00  0.00    +0.000 C 
ATOM     35  C   UNL     1       4.844   4.808  16.950  0.00  0.00    +0.000 C 
BRANCH  35  36
ATOM     36  N   UNL     1       6.227   4.953  17.442  0.00  0.00    +0.000 NA
ATOM     37  C   UNL     1       6.976   6.056  16.824  0.00  0.00    +0.000 C 
ATOM     38  C   UNL     1       7.661   6.827  17.945  0.00  0.00    +0.000 C 
ATOM     39  C   UNL     1       7.658   5.865  19.107  0.00  0.00    +0.000 C 
ATOM     40  F   UNL     1       8.723   5.027  18.997  0.00  0.00    +0.000 F 
ATOM     41  C   UNL     1       6.361   5.097  18.904  0.00  0.00    +0.000 C 
ENDBRANCH  35  36
ENDBRANCH   1  35
TORSDOF 7
ENDMDL
MODEL 5
REMARK VINA RESULT:      -9.6      2.003      3.024
REMARK  Name = 
REMARK  9 active torsions:
REMARK  status: ('A' for Active; 'I' for Inactive)
REMARK    1  A    between atoms: C_1  and  C_2
REMARK    2  A    between atoms: C_2  and  C_3
REMARK    3  A    between atoms: C_2  and  N_36
REMARK    4  A    between atoms: C_7  and  C_8
REMARK    5  A    between atoms: N_14  and  C_15
REMARK    6  A    between atoms: C_19  and  C_20
REMARK    7  A    between atoms: C_20  and  C_21
REMARK    8  A    between atoms: C_21  and  C_24
REMARK    9  A    between atoms: N_28  and  C_29
REMARK                            x       y       z     vdW  Elec       q    Type
REMARK                         _______ _______ _______ _____ _____    ______ ____
ROOT
ATOM      1  C   UNL     1       3.737   5.462  17.926  0.00  0.00    +0.000 A 
ATOM      2  C   UNL     1       3.355   6.798  18.058  0.00  0.00    +0.000 A 
ATOM      3  C   UNL     1       2.494   7.104  19.093  0.00  0.00    +0.000 A 
ATOM      4  C   UNL     1       2.035   6.169  20.014  0.00  0.00    +0.000 A 
ATOM      5  C   UNL     1       2.387   4.834  19.900  0.00  0.00    +0.000 A 
ATOM      6  C   UNL     1       3.216   4.491  18.825  0.00  0.00    +0.000 A 
ATOM      7  C   UNL     1       1.199   6.851  21.046  0.00  0.00    +0.000 C 
ATOM      8  N   UNL     1       1.206   8.232  20.594  0.00  0.00    +0.000 N 
ATOM      9  C   UNL     1       1.935   8.414  19.431  0.00  0.00    +0.000 C 
ATOM     10  O   UNL     1       2.148   9.419  18.767  0.00  0.00    +0.000 OA
ENDROOT
BRANCH   8  11
ATOM     11  C   UNL     1       0.421   9.209  21.224  0.00  0.00    +0.000 A 
ATOM     12  C   UNL     1       0.044   9.084  22.558  0.00  0.00    +0.000 A 
ATOM     13  C   UNL     1      -0.681  10.098  23.171  0.00  0.00    +0.000 A 
ATOM     14  C   UNL     1      -1.068  11.218  22.436  0.00  0.00    +0.000 A 
ATOM     15  C   UNL     1      -0.753  11.358  21.070  0.00  0.00    +0.000 A 
ATOM     16  C   UNL     1       0.023  10.336  20.502  0.00  0.00    +0.000 A 
BRANCH  15  17
ATOM     17  C   UNL     1      -1.287  12.578  20.184  0.00  0.00    +0.000 C 
ATOM     18  C   UNL     1      -0.637  13.978  20.370  0.00  0.00    +0.000 C 
ATOM     19  O   UNL     1      -0.505  14.127  18.928  0.00  0.00    +0.000 OA
ATOM     20  C   UNL     1      -0.593  12.686  18.797  0.00  0.00    +0.000 C 
BRANCH  17  21
ATOM     21  C   UNL     1      -2.816  12.626  20.101  0.00  0.00    +0.000 C 
ATOM     22  F   UNL     1      -3.358  12.203  21.284  0.00  0.00    +0.000 F 
ATOM     23  F   UNL     1      -3.169  13.949  20.020  0.00  0.00    +0.000 F 
BRANCH  21  24
ATOM     24  C   UNL     1      -3.471  11.874  18.984  0.00  0.00    +0.000 A 
ATOM     25  N   UNL     1      -2.935  10.991  18.158  0.00  0.00    +0.000 NA
ATOM     26  N   UNL     1      -3.882  10.620  17.234  0.00  0.00    +0.000 NA
ATOM     27  C   UNL     1      -4.995  11.243  17.539  0.00  0.00    +0.000 A 
ATOM     28  N   UNL     1      -4.801  12.003  18.649  0.00  0.00    +0.000 N 
ATOM     29  C   UNL     1      -5.820  12.754  19.334  0.00  0.00    +0.000 C 
ENDBRANCH  21  24
ENDBRANCH  17  21
ENDBRANCH  15  17
ENDBRANCH   8  11
BRANCH   5  30
ATOM     30  C   UNL     1       1.947   3.772  20.875  0.00  0.00    +0.000 C 
ATOM     31  F   UNL     1       2.421   2.530  20.583  0.00  0.00    +0.000 F 
ATOM     32  F   UNL     1       2.345   4.036  22.149  0.00  0.00    +0.000 F 
ATOM     33  F   UNL     1       0.593   3.648  20.918  0.00  0.00    +0.000 F 
ENDBRANCH   5  30
BRANCH   1  35
ATOM     34  C   UNL     1       4.365   3.644  16.368  0.00  0.00    +0.000 C 
ATOM     35  C   UNL     1       4.737   5.057  16.851  0.00  0.00    +0.000 C 
BRANCH  35  36
ATOM     36  N   UNL     1       6.125   5.120  17.346  0.00  0.00    +0.000 NA
ATOM     37  C   UNL     1       6.902   6.252  16.824  0.00  0.00    +0.000 C 
ATOM     38  C   UNL     1       7.612   6.902  18.005  0.00  0.00    +0.000 C 
ATOM     39  C   UNL     1       7.586   5.841  19.077  0.00  0.00    +0.000 C 
ATOM     40  F   UNL     1       8.627   4.987  18.888  0.00  0.00    +0.000 F 
ATOM     41  C   UNL     1       6.267   5.131  18.815  0.00  0.00    +0.000 C 
ENDBRANCH  35  36
ENDBRANCH   1  35
TORSDOF 7
ENDMDL
MODEL 6
REMARK VINA RESULT:      -9.4      1.762      2.641
REMARK  Name = 
REMARK  9 active torsions:
REMARK  status: ('A' for Active; 'I' for Inactive)
REMARK    1  A    between atoms: C_1  and  C_2
REMARK    2  A    between atoms: C_2  and  C_3
REMARK    3  A    between atoms: C_2  and  N_36
REMARK    4  A    between atoms: C_7  and  C_8
REMARK    5  A    between atoms: N_14  and  C_15
REMARK    6  A    between atoms: C_19  and  C_20
REMARK    7  A    between atoms: C_20  and  C_21
REMARK    8  A    between atoms: C_21  and  C_24
REMARK    9  A    between atoms: N_28  and  C_29
REMARK                            x       y       z     vdW  Elec       q    Type
REMARK                         _______ _______ _______ _____ _____    ______ ____
ROOT
ATOM      1  C   UNL     1       3.582   4.940  17.826  0.00  0.00    +0.000 A 
ATOM      2  C   UNL     1       3.272   6.299  17.883  0.00  0.00    +0.000 A 
ATOM      3  C   UNL     1       2.521   6.726  18.960  0.00  0.00    +0.000 A 
ATOM      4  C   UNL     1       2.105   5.887  19.989  0.00  0.00    +0.000 A 
ATOM      5  C   UNL     1       2.387   4.531  19.952  0.00  0.00    +0.000 A 
ATOM      6  C   UNL     1       3.101   4.066  18.840  0.00  0.00    +0.000 A 
ATOM      7  C   UNL     1       1.396   6.686  21.031  0.00  0.00    +0.000 C 
ATOM      8  N   UNL     1       1.423   8.027  20.472  0.00  0.00    +0.000 N 
ATOM      9  C   UNL     1       2.053   8.084  19.239  0.00  0.00    +0.000 C 
ATOM     10  O   UNL     1       2.250   9.024  18.482  0.00  0.00    +0.000 OA
ENDROOT
BRANCH   8  11
ATOM     11  C   UNL     1       0.741   9.088  21.086  0.00  0.00    +0.000 A 
ATOM     12  C   UNL     1      -0.187   8.860  22.099  0.00  0.00    +0.000 A 
ATOM     13  C   UNL     1      -0.800   9.934  22.731  0.00  0.00    +0.000 A 
ATOM     14  C   UNL     1      -0.518  11.237  22.319  0.00  0.00    +0.000 A 
ATOM     15  C   UNL     1       0.373  11.507  21.262  0.00  0.00    +0.000 A 
ATOM     16  C   UNL     1       1.009  10.397  20.684  0.00  0.00    +0.000 A 
BRANCH  15  17
ATOM     17  C   UNL     1       0.619  12.984  20.701  0.00  0.00    +0.000 C 
ATOM     18  C   UNL     1       0.479  14.188  21.674  0.00  0.00    +0.000 C 
ATOM     19  O   UNL     1       1.742  14.738  21.204  0.00  0.00    +0.000 OA
ATOM     20  C   UNL     1       2.112  13.418  20.734  0.00  0.00    +0.000 C 
BRANCH  17  21
ATOM     21  C   UNL     1      -0.050  13.222  19.343  0.00  0.00    +0.000 C 
ATOM     22  F   UNL     1      -0.410  14.536  19.228  0.00  0.00    +0.000 F 
ATOM     23  F   UNL     1       0.918  13.050  18.387  0.00  0.00    +0.000 F 
BRANCH  21  24
ATOM     24  C   UNL     1      -1.236  12.373  19.000  0.00  0.00    +0.000 A 
ATOM     25  N   UNL     1      -1.303  11.346  18.170  0.00  0.00    +0.000 NA
ATOM     26  N   UNL     1      -2.608  10.923  18.096  0.00  0.00    +0.000 NA
ATOM     27  C   UNL     1      -3.309  11.666  18.919  0.00  0.00    +0.000 A 
ATOM     28  N   UNL     1      -2.490  12.555  19.539  0.00  0.00    +0.000 N 
ATOM     29  C   UNL     1      -2.886  13.470  20.577  0.00  0.00    +0.000 C 
ENDBRANCH  21  24
ENDBRANCH  17  21
ENDBRANCH  15  17
ENDBRANCH   8  11
BRANCH   5  30
ATOM     30  C   UNL     1       1.989   3.569  21.042  0.00  0.00    +0.000 C 
ATOM     31  F   UNL     1       0.646   3.373  21.136  0.00  0.00    +0.000 F 
ATOM     32  F   UNL     1       2.539   2.336  20.875  0.00  0.00    +0.000 F 
ATOM     33  F   UNL     1       2.385   3.999  22.270  0.00  0.00    +0.000 F 
ENDBRANCH   5  30
BRANCH   1  35
ATOM     34  C   UNL     1       4.076   2.936  16.460  0.00  0.00    +0.000 C 
ATOM     35  C   UNL     1       4.463   4.405  16.705  0.00  0.00    +0.000 C 
BRANCH  35  36
ATOM     36  N   UNL     1       5.897   4.548  17.023  0.00  0.00    +0.000 NA
ATOM     37  C   UNL     1       6.544   5.702  16.385  0.00  0.00    +0.000 C 
ATOM     38  C   UNL     1       7.360   6.417  17.455  0.00  0.00    +0.000 C 
ATOM     39  C   UNL     1       7.520   5.386  18.544  0.00  0.00    +0.000 C 
ATOM     40  F   UNL     1       8.572   4.578  18.245  0.00  0.00    +0.000 F 
ATOM     41  C   UNL     1       6.217   4.606  18.462  0.00  0.00    +0.000 C 
ENDBRANCH  35  36
ENDBRANCH   1  35
TORSDOF 7
ENDMDL
MODEL 7
REMARK VINA RESULT:      -9.4      0.835      1.115
REMARK  Name = 
REMARK  9 active torsions:
REMARK  status: ('A' for Active; 'I' for Inactive)
REMARK    1  A    between atoms: C_1  and  C_2
REMARK    2  A    between atoms: C_2  and  C_3
REMARK    3  A    between atoms: C_2  and  N_36
REMARK    4  A    between atoms: C_7  and  C_8
REMARK    5  A    between atoms: N_14  and  C_15
REMARK    6  A    between atoms: C_19  and  C_20
REMARK    7  A    between atoms: C_20  and  C_21
REMARK    8  A    between atoms: C_21  and  C_24
REMARK    9  A    between atoms: N_28  and  C_29
REMARK                            x       y       z     vdW  Elec       q    Type
REMARK                         _______ _______ _______ _____ _____    ______ ____
ROOT
ATOM      1  C   UNL     1       3.714   5.236  17.975  0.00  0.00    +0.000 A 
ATOM      2  C   UNL     1       3.343   6.576  18.095  0.00  0.00    +0.000 A 
ATOM      3  C   UNL     1       2.496   6.901  19.136  0.00  0.00    +0.000 A 
ATOM      4  C   UNL     1       2.040   5.980  20.073  0.00  0.00    +0.000 A 
ATOM      5  C   UNL     1       2.381   4.641  19.971  0.00  0.00    +0.000 A 
ATOM      6  C   UNL     1       3.196   4.279  18.891  0.00  0.00    +0.000 A 
ATOM      7  C   UNL     1       1.220   6.680  21.105  0.00  0.00    +0.000 C 
ATOM      8  N   UNL     1       1.232   8.056  20.637  0.00  0.00    +0.000 N 
ATOM      9  C   UNL     1       1.950   8.219  19.464  0.00  0.00    +0.000 C 
ATOM     10  O   UNL     1       2.163   9.214  18.786  0.00  0.00    +0.000 OA
ENDROOT
BRANCH   8  11
ATOM     11  C   UNL     1       0.461   9.046  21.264  0.00  0.00    +0.000 A 
ATOM     12  C   UNL     1       0.180   8.989  22.626  0.00  0.00    +0.000 A 
ATOM     13  C   UNL     1      -0.533  10.017  23.229  0.00  0.00    +0.000 A 
ATOM     14  C   UNL     1      -1.005  11.081  22.460  0.00  0.00    +0.000 A 
ATOM     15  C   UNL     1      -0.789  11.148  21.070  0.00  0.00    +0.000 A 
ATOM     16  C   UNL     1      -0.021  10.116  20.509  0.00  0.00    +0.000 A 
BRANCH  15  17
ATOM     17  C   UNL     1      -1.420  12.299  20.156  0.00  0.00    +0.000 C 
ATOM     18  C   UNL     1      -2.018  11.914  18.774  0.00  0.00    +0.000 C 
ATOM     19  O   UNL     1      -3.218  12.687  19.058  0.00  0.00    +0.000 OA
ATOM     20  C   UNL     1      -2.915  12.589  20.472  0.00  0.00    +0.000 C 
BRANCH  17  21
ATOM     21  C   UNL     1      -0.554  13.562  20.111  0.00  0.00    +0.000 C 
ATOM     22  F   UNL     1      -1.292  14.613  19.641  0.00  0.00    +0.000 F 
ATOM     23  F   UNL     1      -0.273  13.898  21.410  0.00  0.00    +0.000 F 
BRANCH  21  24
ATOM     24  C   UNL     1       0.725  13.495  19.333  0.00  0.00    +0.000 A 
ATOM     25  N   UNL     1       1.191  12.502  18.596  0.00  0.00    +0.000 NA
ATOM     26  N   UNL     1       2.440  12.842  18.137  0.00  0.00    +0.000 NA
ATOM     27  C   UNL     1       2.698  14.057  18.559  0.00  0.00    +0.000 A 
ATOM     28  N   UNL     1       1.639  14.524  19.272  0.00  0.00    +0.000 N 
ATOM     29  C   UNL     1       1.518  15.852  19.812  0.00  0.00    +0.000 C 
ENDBRANCH  21  24
ENDBRANCH  17  21
ENDBRANCH  15  17
ENDBRANCH   8  11
BRANCH   5  30
ATOM     30  C   UNL     1       1.944   3.594  20.963  0.00  0.00    +0.000 C 
ATOM     31  F   UNL     1       0.593   3.442  21.040  0.00  0.00    +0.000 F 
ATOM     32  F   UNL     1       2.445   2.362  20.676  0.00  0.00    +0.000 F 
ATOM     33  F   UNL     1       2.354   3.886  22.227  0.00  0.00    +0.000 F 
ENDBRANCH   5  30
BRANCH   1  35
ATOM     34  C   UNL     1       4.367   3.362  16.496  0.00  0.00    +0.000 C 
ATOM     35  C   UNL     1       4.699   4.811  16.894  0.00  0.00    +0.000 C 
BRANCH  35  36
ATOM     36  N   UNL     1       6.097   4.949  17.346  0.00  0.00    +0.000 NA
ATOM     37  C   UNL     1       6.804   6.104  16.778  0.00  0.00    +0.000 C 
ATOM     38  C   UNL     1       7.517   6.812  17.923  0.00  0.00    +0.000 C 
ATOM     39  C   UNL     1       7.572   5.775  19.017  0.00  0.00    +0.000 C 
ATOM     40  F   UNL     1       8.646   4.966  18.814  0.00  0.00    +0.000 F 
ATOM     41  C   UNL     1       6.281   4.999  18.809  0.00  0.00    +0.000 C 
ENDBRANCH  35  36
ENDBRANCH   1  35
TORSDOF 7
ENDMDL
MODEL 8
REMARK VINA RESULT:      -9.3      0.767      1.276
REMARK  Name = 
REMARK  9 active torsions:
REMARK  status: ('A' for Active; 'I' for Inactive)
REMARK    1  A    between atoms: C_1  and  C_2
REMARK    2  A    between atoms: C_2  and  C_3
REMARK    3  A    between atoms: C_2  and  N_36
REMARK    4  A    between atoms: C_7  and  C_8
REMARK    5  A    between atoms: N_14  and  C_15
REMARK    6  A    between atoms: C_19  and  C_20
REMARK    7  A    between atoms: C_20  and  C_21
REMARK    8  A    between atoms: C_21  and  C_24
REMARK    9  A    between atoms: N_28  and  C_29
REMARK                            x       y       z     vdW  Elec       q    Type
REMARK                         _______ _______ _______ _____ _____    ______ ____
ROOT
ATOM      1  C   UNL     1       3.726   5.219  17.933  0.00  0.00    +0.000 A 
ATOM      2  C   UNL     1       3.359   6.559  18.059  0.00  0.00    +0.000 A 
ATOM      3  C   UNL     1       2.512   6.881  19.101  0.00  0.00    +0.000 A 
ATOM      4  C   UNL     1       2.054   5.957  20.034  0.00  0.00    +0.000 A 
ATOM      5  C   UNL     1       2.392   4.617  19.926  0.00  0.00    +0.000 A 
ATOM      6  C   UNL     1       3.206   4.259  18.844  0.00  0.00    +0.000 A 
ATOM      7  C   UNL     1       1.236   6.654  21.070  0.00  0.00    +0.000 C 
ATOM      8  N   UNL     1       1.250   8.032  20.608  0.00  0.00    +0.000 N 
ATOM      9  C   UNL     1       1.969   8.199  19.436  0.00  0.00    +0.000 C 
ATOM     10  O   UNL     1       2.184   9.197  18.763  0.00  0.00    +0.000 OA
ENDROOT
BRANCH   8  11
ATOM     11  C   UNL     1       0.482   9.020  21.239  0.00  0.00    +0.000 A 
ATOM     12  C   UNL     1       0.218   8.969  22.605  0.00  0.00    +0.000 A 
ATOM     13  C   UNL     1      -0.494   9.996  23.212  0.00  0.00    +0.000 A 
ATOM     14  C   UNL     1      -0.982  11.053  22.444  0.00  0.00    +0.000 A 
ATOM     15  C   UNL     1      -0.784  11.114  21.050  0.00  0.00    +0.000 A 
ATOM     16  C   UNL     1      -0.017  10.084  20.485  0.00  0.00    +0.000 A 
BRANCH  15  17
ATOM     17  C   UNL     1      -1.433  12.256  20.139  0.00  0.00    +0.000 C 
ATOM     18  C   UNL     1      -2.470  11.849  19.055  0.00  0.00    +0.000 C 
ATOM     19  O   UNL     1      -3.372  12.904  19.496  0.00  0.00    +0.000 OA
ATOM     20  C   UNL     1      -2.689  12.915  20.775  0.00  0.00    +0.000 C 
BRANCH  17  21
ATOM     21  C   UNL     1      -0.403  13.274  19.639  0.00  0.00    +0.000 C 
ATOM     22  F   UNL     1       0.451  12.674  18.755  0.00  0.00    +0.000 F 
ATOM     23  F   UNL     1      -1.085  14.193  18.883  0.00  0.00    +0.000 F 
BRANCH  21  24
ATOM     24  C   UNL     1       0.412  13.995  20.670  0.00  0.00    +0.000 A 
ATOM     25  N   UNL     1       1.540  13.613  21.244  0.00  0.00    +0.000 NA
ATOM     26  N   UNL     1       1.888  14.544  22.193  0.00  0.00    +0.000 NA
ATOM     27  C   UNL     1       0.995  15.504  22.150  0.00  0.00    +0.000 A 
ATOM     28  N   UNL     1       0.079  15.228  21.185  0.00  0.00    +0.000 N 
ATOM     29  C   UNL     1      -0.996  16.097  20.784  0.00  0.00    +0.000 C 
ENDBRANCH  21  24
ENDBRANCH  17  21
ENDBRANCH  15  17
ENDBRANCH   8  11
BRANCH   5  30
ATOM     30  C   UNL     1       1.952   3.567  20.913  0.00  0.00    +0.000 C 
ATOM     31  F   UNL     1       2.435   2.324  20.642  0.00  0.00    +0.000 F 
ATOM     32  F   UNL     1       2.341   3.851  22.185  0.00  0.00    +0.000 F 
ATOM     33  F   UNL     1       0.599   3.436  20.949  0.00  0.00    +0.000 F 
ENDBRANCH   5  30
BRANCH   1  35
ATOM     34  C   UNL     1       4.394   3.342  16.465  0.00  0.00    +0.000 C 
ATOM     35  C   UNL     1       4.711   4.797  16.850  0.00  0.00    +0.000 C 
BRANCH  35  36
ATOM     36  N   UNL     1       6.109   4.955  17.294  0.00  0.00    +0.000 NA
ATOM     37  C   UNL     1       6.803   6.107  16.704  0.00  0.00    +0.000 C 
ATOM     38  C   UNL     1       7.515   6.840  17.834  0.00  0.00    +0.000 C 
ATOM     39  C   UNL     1       7.584   5.821  18.944  0.00  0.00    +0.000 C 
ATOM     40  F   UNL     1       8.665   5.019  18.750  0.00  0.00    +0.000 F 
ATOM     41  C   UNL     1       6.300   5.030  18.755  0.00  0.00    +0.000 C 
ENDBRANCH  35  36
ENDBRANCH   1  35
TORSDOF 7
ENDMDL
MODEL 9
REMARK VINA RESULT:      -9.3      2.078      2.968
REMARK  Name = 
REMARK  9 active torsions:
REMARK  status: ('A' for Active; 'I' for Inactive)
REMARK    1  A    between atoms: C_1  and  C_2
REMARK    2  A    between atoms: C_2  and  C_3
REMARK    3  A    between atoms: C_2  and  N_36
REMARK    4  A    between atoms: C_7  and  C_8
REMARK    5  A    between atoms: N_14  and  C_15
REMARK    6  A    between atoms: C_19  and  C_20
REMARK    7  A    between atoms: C_20  and  C_21
REMARK    8  A    between atoms: C_21  and  C_24
REMARK    9  A    between atoms: N_28  and  C_29
REMARK                            x       y       z     vdW  Elec       q    Type
REMARK                         _______ _______ _______ _____ _____    ______ ____
ROOT
ATOM      1  C   UNL     1       3.655   4.829  17.895  0.00  0.00    +0.000 A 
ATOM      2  C   UNL     1       3.325   6.184  17.923  0.00  0.00    +0.000 A 
ATOM      3  C   UNL     1       2.532   6.615  18.968  0.00  0.00    +0.000 A 
ATOM      4  C   UNL     1       2.093   5.784  19.994  0.00  0.00    +0.000 A 
ATOM      5  C   UNL     1       2.395   4.432  19.985  0.00  0.00    +0.000 A 
ATOM      6  C   UNL     1       3.153   3.962  18.905  0.00  0.00    +0.000 A 
ATOM      7  C   UNL     1       1.337   6.587  21.000  0.00  0.00    +0.000 C 
ATOM      8  N   UNL     1       1.364   7.920  20.423  0.00  0.00    +0.000 N 
ATOM      9  C   UNL     1       2.035   7.970  19.212  0.00  0.00    +0.000 C 
ATOM     10  O   UNL     1       2.244   8.902  18.449  0.00  0.00    +0.000 OA
ENDROOT
BRANCH   8  11
ATOM     11  C   UNL     1       0.647   8.979  20.999  0.00  0.00    +0.000 A 
ATOM     12  C   UNL     1       0.346   8.993  22.359  0.00  0.00    +0.000 A 
ATOM     13  C   UNL     1      -0.311  10.084  22.911  0.00  0.00    +0.000 A 
ATOM     14  C   UNL     1      -0.709  11.143  22.095  0.00  0.00    +0.000 A 
ATOM     15  C   UNL     1      -0.473  11.142  20.706  0.00  0.00    +0.000 A 
ATOM     16  C   UNL     1       0.238  10.045  20.196  0.00  0.00    +0.000 A 
BRANCH  15  17
ATOM     17  C   UNL     1      -1.023  12.291  19.739  0.00  0.00    +0.000 C 
ATOM     18  C   UNL     1      -1.140  13.740  20.289  0.00  0.00    +0.000 C 
ATOM     19  O   UNL     1      -0.481  14.263  19.100  0.00  0.00    +0.000 OA
ATOM     20  C   UNL     1       0.084  12.949  18.868  0.00  0.00    +0.000 C 
BRANCH  17  21
ATOM     21  C   UNL     1      -2.248  11.850  18.931  0.00  0.00    +0.000 C 
ATOM     22  F   UNL     1      -2.163  12.339  17.657  0.00  0.00    +0.000 F 
ATOM     23  F   UNL     1      -2.155  10.490  18.780  0.00  0.00    +0.000 F 
BRANCH  21  24
ATOM     24  C   UNL     1      -3.598  12.192  19.481  0.00  0.00    +0.000 A 
ATOM     25  N   UNL     1      -3.907  12.663  20.677  0.00  0.00    +0.000 NA
ATOM     26  N   UNL     1      -5.274  12.747  20.779  0.00  0.00    +0.000 NA
ATOM     27  C   UNL     1      -5.779  12.373  19.627  0.00  0.00    +0.000 A 
ATOM     28  N   UNL     1      -4.771  12.060  18.771  0.00  0.00    +0.000 N 
ATOM     29  C   UNL     1      -4.935  11.699  17.387  0.00  0.00    +0.000 C 
ENDBRANCH  21  24
ENDBRANCH  17  21
ENDBRANCH  15  17
ENDBRANCH   8  11
BRANCH   5  30
ATOM     30  C   UNL     1       1.975   3.479  21.075  0.00  0.00    +0.000 C 
ATOM     31  F   UNL     1       2.476   2.222  20.928  0.00  0.00    +0.000 F 
ATOM     32  F   UNL     1       2.362   3.896  22.311  0.00  0.00    +0.000 F 
ATOM     33  F   UNL     1       0.623   3.332  21.130  0.00  0.00    +0.000 F 
ENDBRANCH   5  30
BRANCH   1  35
ATOM     34  C   UNL     1       4.236   2.809  16.589  0.00  0.00    +0.000 C 
ATOM     35  C   UNL     1       4.582   4.292  16.812  0.00  0.00    +0.000 C 
BRANCH  35  36
ATOM     36  N   UNL     1       6.002   4.476  17.169  0.00  0.00    +0.000 NA
ATOM     37  C   UNL     1       6.653   5.605  16.490  0.00  0.00    +0.000 C 
ATOM     38  C   UNL     1       7.421   6.390  17.545  0.00  0.00    +0.000 C 
ATOM     39  C   UNL     1       7.560   5.423  18.694  0.00  0.00    +0.000 C 
ATOM     40  F   UNL     1       8.634   4.618  18.474  0.00  0.00    +0.000 F 
ATOM     41  C   UNL     1       6.273   4.617  18.613  0.00  0.00    +0.000 C 
ENDBRANCH  35  36
ENDBRANCH   1  35
TORSDOF 7
ENDMDL
