MODEL 1
REMARK VINA RESULT:      -8.5      0.000      0.000
REMARK  Name = 
REMARK  8 active torsions:
REMARK  status: ('A' for Active; 'I' for Inactive)
REMARK    1  A    between atoms: C_1  and  C_2
REMARK    2  A    between atoms: C_2  and  S_3
REMARK    3  A    between atoms: C_2  and  C_10
REMARK    4  A    between atoms: S_3  and  C_4
REMARK    5  A    between atoms: N_8  and  C_9
REMARK    6  A    between atoms: C_16  and  C_18
REMARK    7  A    between atoms: C_20  and  C_21
REMARK    8  A    between atoms: C_25  and  C_26
REMARK                            x       y       z     vdW  Elec       q    Type
REMARK                         _______ _______ _______ _____ _____    ______ ____
ROOT
ATOM      1  C   UNL     1       0.189  10.678  21.076  0.00  0.00    +0.000 A 
ATOM      2  C   UNL     1       0.072  11.632  20.060  0.00  0.00    +0.000 A 
ATOM      3  C   UNL     1       0.612  11.358  18.819  0.00  0.00    +0.000 A 
ATOM      4  N   UNL     1       1.264  10.222  18.526  0.00  0.00    +0.000 NA
ATOM      5  C   UNL     1       1.397   9.294  19.485  0.00  0.00    +0.000 A 
ATOM      6  N   UNL     1       2.108   8.119  19.210  0.00  0.00    +0.000 N 
ATOM      7  C   UNL     1       2.672   7.818  17.982  0.00  0.00    +0.000 C 
ATOM      8  O   UNL     1       2.624   8.480  16.952  0.00  0.00    +0.000 OA
ATOM      9  C   UNL     1       0.865   9.478  20.761  0.00  0.00    +0.000 A 
ATOM     10  H   UNL     1       2.246   7.441  19.949  0.00  0.00    +0.000 HD
ENDROOT
BRANCH   7  11
ATOM     11  C   UNL     1       3.424   6.524  17.953  0.00  0.00    +0.000 A 
ATOM     12  C   UNL     1       2.713   5.328  17.940  0.00  0.00    +0.000 A 
ATOM     13  C   UNL     1       3.400   4.114  17.894  0.00  0.00    +0.000 A 
ATOM     14  C   UNL     1       4.799   4.179  17.845  0.00  0.00    +0.000 A 
ATOM     15  C   UNL     1       5.459   5.417  17.856  0.00  0.00    +0.000 A 
ATOM     16  N   UNL     1       4.780   6.598  17.920  0.00  0.00    +0.000 NA
BRANCH  15  17
ATOM     17  C   UNL     1       6.982   5.453  17.779  0.00  0.00    +0.000 C 
ATOM     18  F   UNL     1       7.470   6.545  17.122  0.00  0.00    +0.000 F 
ATOM     19  F   UNL     1       7.569   5.474  19.009  0.00  0.00    +0.000 F 
ATOM     20  F   UNL     1       7.503   4.373  17.131  0.00  0.00    +0.000 F 
ENDBRANCH  15  17
BRANCH  13  21
ATOM     21  C   UNL     1       2.663   2.797  17.842  0.00  0.00    +0.000 C 
ATOM     22  C   UNL     1       3.328   1.530  18.328  0.00  0.00    +0.000 C 
ATOM     23  C   UNL     1       2.205   2.128  19.119  0.00  0.00    +0.000 C 
ENDBRANCH  13  21
ENDBRANCH   7  11
BRANCH   1  25
ATOM     24  C   UNL     1      -0.653   9.609  23.256  0.00  0.00    +0.000 C 
ATOM     25  C   UNL     1      -0.361  10.910  22.488  0.00  0.00    +0.000 C 
BRANCH  25  26
ATOM     26  S   UNL     1      -1.887  11.932  22.348  0.00  0.00    +0.000 S 
BRANCH  26  27
ATOM     27  C   UNL     1      -1.442  13.420  23.095  0.00  0.00    +0.000 A 
ATOM     28  N   UNL     1      -0.342  14.114  22.927  0.00  0.00    +0.000 NA
ATOM     29  N   UNL     1      -0.388  15.183  23.798  0.00  0.00    +0.000 NA
ATOM     30  C   UNL     1      -1.524  15.114  24.453  0.00  0.00    +0.000 A 
ATOM     31  N   UNL     1      -2.237  14.042  24.013  0.00  0.00    +0.000 N 
ATOM     32  C   UNL     1      -3.554  13.657  24.449  0.00  0.00    +0.000 C 
ENDBRANCH  26  27
ENDBRANCH  25  26
ENDBRANCH   1  25
TORSDOF 6
ENDMDL
MODEL 2
REMARK VINA RESULT:      -8.5      2.207      3.091
REMARK  Name = 
REMARK  8 active torsions:
REMARK  status: ('A' for Active; 'I' for Inactive)
REMARK    1  A    between atoms: C_1  and  C_2
REMARK    2  A    between atoms: C_2  and  S_3
REMARK    3  A    between atoms: C_2  and  C_10
REMARK    4  A    between atoms: S_3  and  C_4
REMARK    5  A    between atoms: N_8  and  C_9
REMARK    6  A    between atoms: C_16  and  C_18
REMARK    7  A    between atoms: C_20  and  C_21
REMARK    8  A    between atoms: C_25  and  C_26
REMARK                            x       y       z     vdW  Elec       q    Type
REMARK                         _______ _______ _______ _____ _____    ______ ____
ROOT
ATOM      1  C   UNL     1       0.070  11.129  21.146  0.00  0.00    +0.000 A 
ATOM      2  C   UNL     1       0.186  12.140  20.187  0.00  0.00    +0.000 A 
ATOM      3  C   UNL     1       0.784  11.849  18.977  0.00  0.00    +0.000 A 
ATOM      4  N   UNL     1       1.280  10.642  18.662  0.00  0.00    +0.000 NA
ATOM      5  C   UNL     1       1.189   9.657  19.568  0.00  0.00    +0.000 A 
ATOM      6  N   UNL     1       1.735   8.401  19.274  0.00  0.00    +0.000 N 
ATOM      7  C   UNL     1       2.351   8.079  18.078  0.00  0.00    +0.000 C 
ATOM      8  O   UNL     1       2.493   8.793  17.091  0.00  0.00    +0.000 OA
ATOM      9  C   UNL     1       0.582   9.856  20.808  0.00  0.00    +0.000 A 
ATOM     10  H   UNL     1       1.705   7.673  19.977  0.00  0.00    +0.000 HD
ENDROOT
BRANCH   7  11
ATOM     11  C   UNL     1       2.899   6.688  18.024  0.00  0.00    +0.000 A 
ATOM     12  C   UNL     1       4.163   6.477  17.484  0.00  0.00    +0.000 A 
ATOM     13  C   UNL     1       4.695   5.188  17.444  0.00  0.00    +0.000 A 
ATOM     14  C   UNL     1       3.907   4.161  17.981  0.00  0.00    +0.000 A 
ATOM     15  C   UNL     1       2.640   4.436  18.517  0.00  0.00    +0.000 A 
ATOM     16  N   UNL     1       2.121   5.698  18.535  0.00  0.00    +0.000 NA
BRANCH  15  17
ATOM     17  C   UNL     1       1.818   3.299  19.114  0.00  0.00    +0.000 C 
ATOM     18  F   UNL     1       2.564   2.390  19.806  0.00  0.00    +0.000 F 
ATOM     19  F   UNL     1       0.874   3.741  19.993  0.00  0.00    +0.000 F 
ATOM     20  F   UNL     1       1.147   2.581  18.171  0.00  0.00    +0.000 F 
ENDBRANCH  15  17
BRANCH  13  21
ATOM     21  C   UNL     1       6.078   4.924  16.898  0.00  0.00    +0.000 C 
ATOM     22  C   UNL     1       7.149   5.987  16.982  0.00  0.00    +0.000 C 
ATOM     23  C   UNL     1       7.252   4.762  17.838  0.00  0.00    +0.000 C 
ENDBRANCH  13  21
ENDBRANCH   7  11
BRANCH   1  25
ATOM     24  C   UNL     1      -0.920  10.076  23.271  0.00  0.00    +0.000 C 
ATOM     25  C   UNL     1      -0.558  11.371  22.523  0.00  0.00    +0.000 C 
BRANCH  25  26
ATOM     26  S   UNL     1      -2.053  12.423  22.294  0.00  0.00    +0.000 S 
BRANCH  26  27
ATOM     27  C   UNL     1      -1.852  13.666  23.469  0.00  0.00    +0.000 A 
ATOM     28  N   UNL     1      -0.738  14.233  23.865  0.00  0.00    +0.000 NA
ATOM     29  N   UNL     1      -1.056  15.109  24.883  0.00  0.00    +0.000 NA
ATOM     30  C   UNL     1      -2.358  15.058  25.058  0.00  0.00    +0.000 A 
ATOM     31  N   UNL     1      -2.903  14.194  24.161  0.00  0.00    +0.000 N 
ATOM     32  C   UNL     1      -4.303  13.902  24.001  0.00  0.00    +0.000 C 
ENDBRANCH  26  27
ENDBRANCH  25  26
ENDBRANCH   1  25
TORSDOF 6
ENDMDL
MODEL 3
REMARK VINA RESULT:      -8.5      2.373      3.251
REMARK  Name = 
REMARK  8 active torsions:
REMARK  status: ('A' for Active; 'I' for Inactive)
REMARK    1  A    between atoms: C_1  and  C_2
REMARK    2  A    between atoms: C_2  and  S_3
REMARK    3  A    between atoms: C_2  and  C_10
REMARK    4  A    between atoms: S_3  and  C_4
REMARK    5  A    between atoms: N_8  and  C_9
REMARK    6  A    between atoms: C_16  and  C_18
REMARK    7  A    between atoms: C_20  and  C_21
REMARK    8  A    between atoms: C_25  and  C_26
REMARK                            x       y       z     vdW  Elec       q    Type
REMARK                         _______ _______ _______ _____ _____    ______ ____
ROOT
ATOM      1  C   UNL     1       0.107  11.305  20.856  0.00  0.00    +0.000 A 
ATOM      2  C   UNL     1       0.420  12.235  19.860  0.00  0.00    +0.000 A 
ATOM      3  C   UNL     1       1.123  11.814  18.748  0.00  0.00    +0.000 A 
ATOM      4  N   UNL     1       1.543  10.553  18.567  0.00  0.00    +0.000 NA
ATOM      5  C   UNL     1       1.263   9.642  19.512  0.00  0.00    +0.000 A 
ATOM      6  N   UNL     1       1.725   8.330  19.360  0.00  0.00    +0.000 N 
ATOM      7  C   UNL     1       2.443   7.877  18.265  0.00  0.00    +0.000 C 
ATOM      8  O   UNL     1       2.757   8.507  17.262  0.00  0.00    +0.000 OA
ATOM      9  C   UNL     1       0.540   9.975  20.657  0.00  0.00    +0.000 A 
ATOM     10  H   UNL     1       1.552   7.656  20.096  0.00  0.00    +0.000 HD
ENDROOT
BRANCH   7  11
ATOM     11  C   UNL     1       2.868   6.446  18.359  0.00  0.00    +0.000 A 
ATOM     12  C   UNL     1       3.748   5.936  17.410  0.00  0.00    +0.000 A 
ATOM     13  C   UNL     1       4.168   4.609  17.495  0.00  0.00    +0.000 A 
ATOM     14  C   UNL     1       3.677   3.857  18.571  0.00  0.00    +0.000 A 
ATOM     15  C   UNL     1       2.794   4.427  19.500  0.00  0.00    +0.000 A 
ATOM     16  N   UNL     1       2.374   5.721  19.398  0.00  0.00    +0.000 NA
BRANCH  15  17
ATOM     17  C   UNL     1       2.296   3.588  20.671  0.00  0.00    +0.000 C 
ATOM     18  F   UNL     1       2.366   4.231  21.873  0.00  0.00    +0.000 F 
ATOM     19  F   UNL     1       0.991   3.216  20.533  0.00  0.00    +0.000 F 
ATOM     20  F   UNL     1       3.002   2.433  20.831  0.00  0.00    +0.000 F 
ENDBRANCH  15  17
BRANCH  13  21
ATOM     21  C   UNL     1       5.151   4.030  16.505  0.00  0.00    +0.000 C 
ATOM     22  C   UNL     1       5.802   4.914  15.468  0.00  0.00    +0.000 C 
ATOM     23  C   UNL     1       6.621   4.372  16.599  0.00  0.00    +0.000 C 
ENDBRANCH  13  21
ENDBRANCH   7  11
BRANCH   1  25
ATOM     24  C   UNL     1      -0.915  10.504  23.074  0.00  0.00    +0.000 C 
ATOM     25  C   UNL     1      -0.649  11.691  22.132  0.00  0.00    +0.000 C 
BRANCH  25  26
ATOM     26  S   UNL     1      -2.235  12.490  21.639  0.00  0.00    +0.000 S 
BRANCH  26  27
ATOM     27  C   UNL     1      -3.019  12.787  23.144  0.00  0.00    +0.000 A 
ATOM     28  N   UNL     1      -3.972  12.087  23.713  0.00  0.00    +0.000 NA
ATOM     29  N   UNL     1      -4.348  12.754  24.861  0.00  0.00    +0.000 NA
ATOM     30  C   UNL     1      -3.596  13.826  24.962  0.00  0.00    +0.000 A 
ATOM     31  N   UNL     1      -2.717  13.864  23.924  0.00  0.00    +0.000 N 
ATOM     32  C   UNL     1      -1.695  14.855  23.709  0.00  0.00    +0.000 C 
ENDBRANCH  26  27
ENDBRANCH  25  26
ENDBRANCH   1  25
TORSDOF 6
ENDMDL
MODEL 4
REMARK VINA RESULT:      -8.3      2.481      3.260
REMARK  Name = 
REMARK  8 active torsions:
REMARK  status: ('A' for Active; 'I' for Inactive)
REMARK    1  A    between atoms: C_1  and  C_2
REMARK    2  A    between atoms: C_2  and  S_3
REMARK    3  A    between atoms: C_2  and  C_10
REMARK    4  A    between atoms: S_3  and  C_4
REMARK    5  A    between atoms: N_8  and  C_9
REMARK    6  A    between atoms: C_16  and  C_18
REMARK    7  A    between atoms: C_20  and  C_21
REMARK    8  A    between atoms: C_25  and  C_26
REMARK                            x       y       z     vdW  Elec       q    Type
REMARK                         _______ _______ _______ _____ _____    ______ ____
ROOT
ATOM      1  C   UNL     1      -0.106  11.643  21.101  0.00  0.00    +0.000 A 
ATOM      2  C   UNL     1      -0.127  12.425  19.942  0.00  0.00    +0.000 A 
ATOM      3  C   UNL     1       0.403  11.910  18.776  0.00  0.00    +0.000 A 
ATOM      4  N   UNL     1       0.959  10.691  18.686  0.00  0.00    +0.000 NA
ATOM      5  C   UNL     1       1.000   9.924  19.786  0.00  0.00    +0.000 A 
ATOM      6  N   UNL     1       1.610   8.665  19.722  0.00  0.00    +0.000 N 
ATOM      7  C   UNL     1       2.163   8.122  18.574  0.00  0.00    +0.000 C 
ATOM      8  O   UNL     1       2.184   8.610  17.450  0.00  0.00    +0.000 OA
ATOM      9  C   UNL     1       0.469  10.356  21.001  0.00  0.00    +0.000 A 
ATOM     10  H   UNL     1       1.680   8.107  20.564  0.00  0.00    +0.000 HD
ENDROOT
BRANCH   7  11
ATOM     11  C   UNL     1       2.800   6.784  18.773  0.00  0.00    +0.000 A 
ATOM     12  C   UNL     1       4.031   6.524  18.178  0.00  0.00    +0.000 A 
ATOM     13  C   UNL     1       4.647   5.287  18.370  0.00  0.00    +0.000 A 
ATOM     14  C   UNL     1       3.977   4.366  19.187  0.00  0.00    +0.000 A 
ATOM     15  C   UNL     1       2.740   4.687  19.763  0.00  0.00    +0.000 A 
ATOM     16  N   UNL     1       2.136   5.893  19.555  0.00  0.00    +0.000 NA
BRANCH  15  17
ATOM     17  C   UNL     1       2.049   3.670  20.665  0.00  0.00    +0.000 C 
ATOM     18  F   UNL     1       2.328   2.374  20.342  0.00  0.00    +0.000 F 
ATOM     19  F   UNL     1       2.403   3.805  21.975  0.00  0.00    +0.000 F 
ATOM     20  F   UNL     1       0.690   3.772  20.631  0.00  0.00    +0.000 F 
ENDBRANCH  15  17
BRANCH  13  21
ATOM     21  C   UNL     1       5.999   4.981  17.770  0.00  0.00    +0.000 C 
ATOM     22  C   UNL     1       6.840   6.086  17.175  0.00  0.00    +0.000 C 
ATOM     23  C   UNL     1       7.263   5.442  18.461  0.00  0.00    +0.000 C 
ENDBRANCH  13  21
ENDBRANCH   7  11
BRANCH   1  25
ATOM     24  C   UNL     1      -1.552  11.127  23.161  0.00  0.00    +0.000 C 
ATOM     25  C   UNL     1      -0.651  12.146  22.442  0.00  0.00    +0.000 C 
BRANCH  25  26
ATOM     26  S   UNL     1      -1.567  13.714  22.136  0.00  0.00    +0.000 S 
BRANCH  26  27
ATOM     27  C   UNL     1      -1.385  14.580  23.614  0.00  0.00    +0.000 A 
ATOM     28  N   UNL     1      -0.342  15.256  24.034  0.00  0.00    +0.000 NA
ATOM     29  N   UNL     1      -0.622  15.701  25.309  0.00  0.00    +0.000 NA
ATOM     30  C   UNL     1      -1.834  15.298  25.615  0.00  0.00    +0.000 A 
ATOM     31  N   UNL     1      -2.367  14.623  24.561  0.00  0.00    +0.000 N 
ATOM     32  C   UNL     1      -3.693  14.069  24.486  0.00  0.00    +0.000 C 
ENDBRANCH  26  27
ENDBRANCH  25  26
ENDBRANCH   1  25
TORSDOF 6
ENDMDL
MODEL 5
REMARK VINA RESULT:      -8.3      1.164      1.801
REMARK  Name = 
REMARK  8 active torsions:
REMARK  status: ('A' for Active; 'I' for Inactive)
REMARK    1  A    between atoms: C_1  and  C_2
REMARK    2  A    between atoms: C_2  and  S_3
REMARK    3  A    between atoms: C_2  and  C_10
REMARK    4  A    between atoms: S_3  and  C_4
REMARK    5  A    between atoms: N_8  and  C_9
REMARK    6  A    between atoms: C_16  and  C_18
REMARK    7  A    between atoms: C_20  and  C_21
REMARK    8  A    between atoms: C_25  and  C_26
REMARK                            x       y       z     vdW  Elec       q    Type
REMARK                         _______ _______ _______ _____ _____    ______ ____
ROOT
ATOM      1  C   UNL     1       0.074  11.360  20.830  0.00  0.00    +0.000 A 
ATOM      2  C   UNL     1       0.392  12.367  19.913  0.00  0.00    +0.000 A 
ATOM      3  C   UNL     1       1.102  12.039  18.776  0.00  0.00    +0.000 A 
ATOM      4  N   UNL     1       1.526  10.796  18.496  0.00  0.00    +0.000 NA
ATOM      5  C   UNL     1       1.242   9.812  19.364  0.00  0.00    +0.000 A 
ATOM      6  N   UNL     1       1.708   8.517  19.109  0.00  0.00    +0.000 N 
ATOM      7  C   UNL     1       2.433   8.155  17.986  0.00  0.00    +0.000 C 
ATOM      8  O   UNL     1       2.752   8.864  17.039  0.00  0.00    +0.000 OA
ATOM      9  C   UNL     1       0.511  10.051  20.527  0.00  0.00    +0.000 A 
ATOM     10  H   UNL     1       1.531   7.786  19.787  0.00  0.00    +0.000 HD
ENDROOT
BRANCH   7  11
ATOM     11  C   UNL     1       2.860   6.721  17.967  0.00  0.00    +0.000 A 
ATOM     12  C   UNL     1       1.940   5.735  18.311  0.00  0.00    +0.000 A 
ATOM     13  C   UNL     1       2.318   4.393  18.280  0.00  0.00    +0.000 A 
ATOM     14  C   UNL     1       3.631   4.114  17.877  0.00  0.00    +0.000 A 
ATOM     15  C   UNL     1       4.512   5.151  17.538  0.00  0.00    +0.000 A 
ATOM     16  N   UNL     1       4.139   6.462  17.589  0.00  0.00    +0.000 NA
BRANCH  15  17
ATOM     17  C   UNL     1       5.927   4.811  17.082  0.00  0.00    +0.000 C 
ATOM     18  F   UNL     1       6.693   4.239  18.056  0.00  0.00    +0.000 F 
ATOM     19  F   UNL     1       5.945   3.932  16.040  0.00  0.00    +0.000 F 
ATOM     20  F   UNL     1       6.623   5.906  16.664  0.00  0.00    +0.000 F 
ENDBRANCH  15  17
BRANCH  13  21
ATOM     21  C   UNL     1       1.338   3.292  18.612  0.00  0.00    +0.000 C 
ATOM     22  C   UNL     1       1.824   1.983  19.187  0.00  0.00    +0.000 C 
ATOM     23  C   UNL     1       1.053   2.933  20.053  0.00  0.00    +0.000 C 
ENDBRANCH  13  21
ENDBRANCH   7  11
BRANCH   1  25
ATOM     24  C   UNL     1      -0.861  10.402  23.022  0.00  0.00    +0.000 C 
ATOM     25  C   UNL     1      -0.690  11.641  22.128  0.00  0.00    +0.000 C 
BRANCH  25  26
ATOM     26  S   UNL     1      -2.333  12.348  21.684  0.00  0.00    +0.000 S 
BRANCH  26  27
ATOM     27  C   UNL     1      -3.023  12.749  23.210  0.00  0.00    +0.000 A 
ATOM     28  N   UNL     1      -3.896  12.064  23.909  0.00  0.00    +0.000 NA
ATOM     29  N   UNL     1      -4.224  12.817  25.018  0.00  0.00    +0.000 NA
ATOM     30  C   UNL     1      -3.522  13.927  24.966  0.00  0.00    +0.000 A 
ATOM     31  N   UNL     1      -2.722  13.907  23.866  0.00  0.00    +0.000 N 
ATOM     32  C   UNL     1      -1.770  14.917  23.486  0.00  0.00    +0.000 C 
ENDBRANCH  26  27
ENDBRANCH  25  26
ENDBRANCH   1  25
TORSDOF 6
ENDMDL
MODEL 6
REMARK VINA RESULT:      -8.2      1.467      1.844
REMARK  Name = 
REMARK  8 active torsions:
REMARK  status: ('A' for Active; 'I' for Inactive)
REMARK    1  A    between atoms: C_1  and  C_2
REMARK    2  A    between atoms: C_2  and  S_3
REMARK    3  A    between atoms: C_2  and  C_10
REMARK    4  A    between atoms: S_3  and  C_4
REMARK    5  A    between atoms: N_8  and  C_9
REMARK    6  A    between atoms: C_16  and  C_18
REMARK    7  A    between atoms: C_20  and  C_21
REMARK    8  A    between atoms: C_25  and  C_26
REMARK                            x       y       z     vdW  Elec       q    Type
REMARK                         _______ _______ _______ _____ _____    ______ ____
ROOT
ATOM      1  C   UNL     1      -0.124  11.818  21.088  0.00  0.00    +0.000 A 
ATOM      2  C   UNL     1      -0.126  12.685  19.991  0.00  0.00    +0.000 A 
ATOM      3  C   UNL     1       0.412  12.253  18.794  0.00  0.00    +0.000 A 
ATOM      4  N   UNL     1       0.957  11.039  18.619  0.00  0.00    +0.000 NA
ATOM      5  C   UNL     1       0.979  10.190  19.658  0.00  0.00    +0.000 A 
ATOM      6  N   UNL     1       1.577   8.934  19.505  0.00  0.00    +0.000 N 
ATOM      7  C   UNL     1       2.136   8.473  18.325  0.00  0.00    +0.000 C 
ATOM      8  O   UNL     1       2.174   9.044  17.241  0.00  0.00    +0.000 OA
ATOM      9  C   UNL     1       0.439  10.536  20.896  0.00  0.00    +0.000 A 
ATOM     10  H   UNL     1       1.632   8.313  20.303  0.00  0.00    +0.000 HD
ENDROOT
BRANCH   7  11
ATOM     11  C   UNL     1       2.758   7.117  18.429  0.00  0.00    +0.000 A 
ATOM     12  C   UNL     1       2.379   6.275  19.470  0.00  0.00    +0.000 A 
ATOM     13  C   UNL     1       2.937   5.000  19.569  0.00  0.00    +0.000 A 
ATOM     14  C   UNL     1       3.855   4.632  18.577  0.00  0.00    +0.000 A 
ATOM     15  C   UNL     1       4.195   5.523  17.549  0.00  0.00    +0.000 A 
ATOM     16  N   UNL     1       3.658   6.775  17.470  0.00  0.00    +0.000 NA
BRANCH  15  17
ATOM     17  C   UNL     1       5.181   5.082  16.472  0.00  0.00    +0.000 C 
ATOM     18  F   UNL     1       6.467   4.979  16.917  0.00  0.00    +0.000 F 
ATOM     19  F   UNL     1       4.876   3.859  15.951  0.00  0.00    +0.000 F 
ATOM     20  F   UNL     1       5.226   5.940  15.415  0.00  0.00    +0.000 F 
ENDBRANCH  15  17
BRANCH  13  21
ATOM     21  C   UNL     1       2.525   4.045  20.664  0.00  0.00    +0.000 C 
ATOM     22  C   UNL     1       1.087   3.597  20.788  0.00  0.00    +0.000 C 
ATOM     23  C   UNL     1       2.130   2.624  20.329  0.00  0.00    +0.000 C 
ENDBRANCH  13  21
ENDBRANCH   7  11
BRANCH   1  25
ATOM     24  C   UNL     1      -1.519  11.126  23.131  0.00  0.00    +0.000 C 
ATOM     25  C   UNL     1      -0.678  12.224  22.457  0.00  0.00    +0.000 C 
BRANCH  25  26
ATOM     26  S   UNL     1      -1.674  13.758  22.240  0.00  0.00    +0.000 S 
BRANCH  26  27
ATOM     27  C   UNL     1      -1.400  14.625  23.704  0.00  0.00    +0.000 A 
ATOM     28  N   UNL     1      -0.317  15.265  24.075  0.00  0.00    +0.000 NA
ATOM     29  N   UNL     1      -0.528  15.728  25.358  0.00  0.00    +0.000 NA
ATOM     30  C   UNL     1      -1.740  15.370  25.716  0.00  0.00    +0.000 A 
ATOM     31  N   UNL     1      -2.340  14.709  24.690  0.00  0.00    +0.000 N 
ATOM     32  C   UNL     1      -3.687  14.202  24.674  0.00  0.00    +0.000 C 
ENDBRANCH  26  27
ENDBRANCH  25  26
ENDBRANCH   1  25
TORSDOF 6
ENDMDL
MODEL 7
REMARK VINA RESULT:      -8.2      3.505      4.879
REMARK  Name = 
REMARK  8 active torsions:
REMARK  status: ('A' for Active; 'I' for Inactive)
REMARK    1  A    between atoms: C_1  and  C_2
REMARK    2  A    between atoms: C_2  and  S_3
REMARK    3  A    between atoms: C_2  and  C_10
REMARK    4  A    between atoms: S_3  and  C_4
REMARK    5  A    between atoms: N_8  and  C_9
REMARK    6  A    between atoms: C_16  and  C_18
REMARK    7  A    between atoms: C_20  and  C_21
REMARK    8  A    between atoms: C_25  and  C_26
REMARK                            x       y       z     vdW  Elec       q    Type
REMARK                         _______ _______ _______ _____ _____    ______ ____
ROOT
ATOM      1  C   UNL     1       0.023  10.761  19.993  0.00  0.00    +0.000 A 
ATOM      2  C   UNL     1      -0.488  10.486  21.265  0.00  0.00    +0.000 A 
ATOM      3  C   UNL     1      -0.152   9.295  21.878  0.00  0.00    +0.000 A 
ATOM      4  N   UNL     1       0.636   8.365  21.316  0.00  0.00    +0.000 NA
ATOM      5  C   UNL     1       1.132   8.601  20.092  0.00  0.00    +0.000 A 
ATOM      6  N   UNL     1       1.924   7.627  19.473  0.00  0.00    +0.000 N 
ATOM      7  C   UNL     1       2.271   6.418  20.052  0.00  0.00    +0.000 C 
ATOM      8  O   UNL     1       1.988   6.016  21.175  0.00  0.00    +0.000 OA
ATOM      9  C   UNL     1       0.861   9.786  19.409  0.00  0.00    +0.000 A 
ATOM     10  H   UNL     1       2.260   7.788  18.531  0.00  0.00    +0.000 HD
ENDROOT
BRANCH   7  11
ATOM     11  C   UNL     1       3.083   5.524  19.170  0.00  0.00    +0.000 A 
ATOM     12  C   UNL     1       3.955   6.094  18.247  0.00  0.00    +0.000 A 
ATOM     13  C   UNL     1       4.733   5.274  17.429  0.00  0.00    +0.000 A 
ATOM     14  C   UNL     1       4.597   3.890  17.607  0.00  0.00    +0.000 A 
ATOM     15  C   UNL     1       3.704   3.375  18.558  0.00  0.00    +0.000 A 
ATOM     16  N   UNL     1       2.934   4.185  19.340  0.00  0.00    +0.000 NA
BRANCH  15  17
ATOM     17  C   UNL     1       3.597   1.865  18.742  0.00  0.00    +0.000 C 
ATOM     18  F   UNL     1       2.378   1.455  19.200  0.00  0.00    +0.000 F 
ATOM     19  F   UNL     1       3.800   1.179  17.581  0.00  0.00    +0.000 F 
ATOM     20  F   UNL     1       4.506   1.376  19.632  0.00  0.00    +0.000 F 
ENDBRANCH  15  17
BRANCH  13  21
ATOM     21  C   UNL     1       5.716   5.854  16.440  0.00  0.00    +0.000 C 
ATOM     22  C   UNL     1       5.881   5.235  15.072  0.00  0.00    +0.000 C 
ATOM     23  C   UNL     1       5.221   6.573  15.205  0.00  0.00    +0.000 C 
ENDBRANCH  13  21
ENDBRANCH   7  11
BRANCH   1  25
ATOM     24  C   UNL     1       0.384  13.297  19.789  0.00  0.00    +0.000 C 
ATOM     25  C   UNL     1      -0.318  12.047  19.232  0.00  0.00    +0.000 C 
BRANCH  25  26
ATOM     26  S   UNL     1      -2.147  12.266  19.265  0.00  0.00    +0.000 S 
BRANCH  26  27
ATOM     27  C   UNL     1      -2.664  11.546  17.788  0.00  0.00    +0.000 A 
ATOM     28  N   UNL     1      -1.929  10.968  16.868  0.00  0.00    +0.000 NA
ATOM     29  N   UNL     1      -2.764  10.623  15.825  0.00  0.00    +0.000 NA
ATOM     30  C   UNL     1      -3.983  10.986  16.156  0.00  0.00    +0.000 A 
ATOM     31  N   UNL     1      -3.972  11.534  17.400  0.00  0.00    +0.000 N 
ATOM     32  C   UNL     1      -5.117  12.007  18.134  0.00  0.00    +0.000 C 
ENDBRANCH  26  27
ENDBRANCH  25  26
ENDBRANCH   1  25
TORSDOF 6
ENDMDL
MODEL 8
REMARK VINA RESULT:      -8.2      2.846      3.596
REMARK  Name = 
REMARK  8 active torsions:
REMARK  status: ('A' for Active; 'I' for Inactive)
REMARK    1  A    between atoms: C_1  and  C_2
REMARK    2  A    between atoms: C_2  and  S_3
REMARK    3  A    between atoms: C_2  and  C_10
REMARK    4  A    between atoms: S_3  and  C_4
REMARK    5  A    between atoms: N_8  and  C_9
REMARK    6  A    between atoms: C_16  and  C_18
REMARK    7  A    between atoms: C_20  and  C_21
REMARK    8  A    between atoms: C_25  and  C_26
REMARK                            x       y       z     vdW  Elec       q    Type
REMARK                         _______ _______ _______ _____ _____    ______ ____
ROOT
ATOM      1  C   UNL     1      -0.265  12.092  21.143  0.00  0.00    +0.000 A 
ATOM      2  C   UNL     1      -0.179  13.002  20.085  0.00  0.00    +0.000 A 
ATOM      3  C   UNL     1       0.409  12.600  18.902  0.00  0.00    +0.000 A 
ATOM      4  N   UNL     1       0.923  11.376  18.705  0.00  0.00    +0.000 NA
ATOM      5  C   UNL     1       0.861  10.486  19.707  0.00  0.00    +0.000 A 
ATOM      6  N   UNL     1       1.426   9.217  19.535  0.00  0.00    +0.000 N 
ATOM      7  C   UNL     1       2.033   8.785  18.368  0.00  0.00    +0.000 C 
ATOM      8  O   UNL     1       2.150   9.397  17.312  0.00  0.00    +0.000 OA
ATOM      9  C   UNL     1       0.266  10.800  20.929  0.00  0.00    +0.000 A 
ATOM     10  H   UNL     1       1.418   8.563  20.308  0.00  0.00    +0.000 HD
ENDROOT
BRANCH   7  11
ATOM     11  C   UNL     1       2.605   7.405  18.448  0.00  0.00    +0.000 A 
ATOM     12  C   UNL     1       3.698   7.077  17.652  0.00  0.00    +0.000 A 
ATOM     13  C   UNL     1       4.254   5.800  17.729  0.00  0.00    +0.000 A 
ATOM     14  C   UNL     1       3.671   4.910  18.641  0.00  0.00    +0.000 A 
ATOM     15  C   UNL     1       2.573   5.300  19.421  0.00  0.00    +0.000 A 
ATOM     16  N   UNL     1       2.024   6.545  19.326  0.00  0.00    +0.000 NA
BRANCH  15  17
ATOM     17  C   UNL     1       1.977   4.314  20.421  0.00  0.00    +0.000 C 
ATOM     18  F   UNL     1       2.396   4.517  21.704  0.00  0.00    +0.000 F 
ATOM     19  F   UNL     1       0.616   4.374  20.468  0.00  0.00    +0.000 F 
ATOM     20  F   UNL     1       2.288   3.019  20.133  0.00  0.00    +0.000 F 
ENDBRANCH  15  17
BRANCH  13  21
ATOM     21  C   UNL     1       5.462   5.417  16.907  0.00  0.00    +0.000 C 
ATOM     22  C   UNL     1       5.562   4.043  16.288  0.00  0.00    +0.000 C 
ATOM     23  C   UNL     1       5.341   5.237  15.410  0.00  0.00    +0.000 C 
ENDBRANCH  13  21
ENDBRANCH   7  11
BRANCH   1  25
ATOM     24  C   UNL     1      -1.670  11.314  23.149  0.00  0.00    +0.000 C 
ATOM     25  C   UNL     1      -0.880  12.462  22.497  0.00  0.00    +0.000 C 
BRANCH  25  26
ATOM     26  S   UNL     1      -1.963  13.932  22.252  0.00  0.00    +0.000 S 
BRANCH  26  27
ATOM     27  C   UNL     1      -3.458  13.248  21.737  0.00  0.00    +0.000 A 
ATOM     28  N   UNL     1      -3.763  12.766  20.556  0.00  0.00    +0.000 NA
ATOM     29  N   UNL     1      -5.097  12.412  20.583  0.00  0.00    +0.000 NA
ATOM     30  C   UNL     1      -5.552  12.673  21.788  0.00  0.00    +0.000 A 
ATOM     31  N   UNL     1      -4.544  13.162  22.558  0.00  0.00    +0.000 N 
ATOM     32  C   UNL     1      -4.630  13.519  23.950  0.00  0.00    +0.000 C 
ENDBRANCH  26  27
ENDBRANCH  25  26
ENDBRANCH   1  25
TORSDOF 6
ENDMDL
MODEL 9
REMARK VINA RESULT:      -8.1      1.114      1.748
REMARK  Name = 
REMARK  8 active torsions:
REMARK  status: ('A' for Active; 'I' for Inactive)
REMARK    1  A    between atoms: C_1  and  C_2
REMARK    2  A    between atoms: C_2  and  S_3
REMARK    3  A    between atoms: C_2  and  C_10
REMARK    4  A    between atoms: S_3  and  C_4
REMARK    5  A    between atoms: N_8  and  C_9
REMARK    6  A    between atoms: C_16  and  C_18
REMARK    7  A    between atoms: C_20  and  C_21
REMARK    8  A    between atoms: C_25  and  C_26
REMARK                            x       y       z     vdW  Elec       q    Type
REMARK                         _______ _______ _______ _____ _____    ______ ____
ROOT
ATOM      1  C   UNL     1       0.168  11.084  20.962  0.00  0.00    +0.000 A 
ATOM      2  C   UNL     1       0.346  12.069  19.986  0.00  0.00    +0.000 A 
ATOM      3  C   UNL     1       0.992  11.739  18.811  0.00  0.00    +0.000 A 
ATOM      4  N   UNL     1       1.480  10.516  18.548  0.00  0.00    +0.000 NA
ATOM      5  C   UNL     1       1.329   9.554  19.472  0.00  0.00    +0.000 A 
ATOM      6  N   UNL     1       1.864   8.283  19.233  0.00  0.00    +0.000 N 
ATOM      7  C   UNL     1       2.528   7.921  18.073  0.00  0.00    +0.000 C 
ATOM      8  O   UNL     1       2.727   8.608  17.077  0.00  0.00    +0.000 OA
ATOM      9  C   UNL     1       0.671   9.794  20.678  0.00  0.00    +0.000 A 
ATOM     10  H   UNL     1       1.789   7.572  19.950  0.00  0.00    +0.000 HD
ENDROOT
BRANCH   7  11
ATOM     11  C   UNL     1       3.051   6.519  18.077  0.00  0.00    +0.000 A 
ATOM     12  C   UNL     1       2.409   5.559  18.852  0.00  0.00    +0.000 A 
ATOM     13  C   UNL     1       2.874   4.243  18.851  0.00  0.00    +0.000 A 
ATOM     14  C   UNL     1       3.977   3.962  18.035  0.00  0.00    +0.000 A 
ATOM     15  C   UNL     1       4.581   4.972  17.272  0.00  0.00    +0.000 A 
ATOM     16  N   UNL     1       4.130   6.260  17.292  0.00  0.00    +0.000 NA
BRANCH  15  17
ATOM     17  C   UNL     1       5.765   4.627  16.376  0.00  0.00    +0.000 C 
ATOM     18  F   UNL     1       6.960   4.600  17.036  0.00  0.00    +0.000 F 
ATOM     19  F   UNL     1       5.642   3.401  15.793  0.00  0.00    +0.000 F 
ATOM     20  F   UNL     1       5.931   5.515  15.355  0.00  0.00    +0.000 F 
ENDBRANCH  15  17
BRANCH  13  21
ATOM     21  C   UNL     1       2.182   3.165  19.651  0.00  0.00    +0.000 C 
ATOM     22  C   UNL     1       0.794   3.392  20.201  0.00  0.00    +0.000 C 
ATOM     23  C   UNL     1       0.996   2.427  19.072  0.00  0.00    +0.000 C 
ENDBRANCH  13  21
ENDBRANCH   7  11
BRANCH   1  25
ATOM     24  C   UNL     1      -0.826  10.103  23.119  0.00  0.00    +0.000 C 
ATOM     25  C   UNL     1      -0.517  11.370  22.303  0.00  0.00    +0.000 C 
BRANCH  25  26
ATOM     26  S   UNL     1      -2.064  12.312  21.967  0.00  0.00    +0.000 S 
BRANCH  26  27
ATOM     27  C   UNL     1      -2.133  13.445  23.262  0.00  0.00    +0.000 A 
ATOM     28  N   UNL     1      -3.001  13.501  24.244  0.00  0.00    +0.000 NA
ATOM     29  N   UNL     1      -2.714  14.627  24.989  0.00  0.00    +0.000 NA
ATOM     30  C   UNL     1      -1.668  15.207  24.446  0.00  0.00    +0.000 A 
ATOM     31  N   UNL     1      -1.245  14.474  23.381  0.00  0.00    +0.000 N 
ATOM     32  C   UNL     1      -0.099  14.753  22.556  0.00  0.00    +0.000 C 
ENDBRANCH  26  27
ENDBRANCH  25  26
ENDBRANCH   1  25
TORSDOF 6
ENDMDL
