MODEL 1
REMARK VINA RESULT:      -9.2      0.000      0.000
REMARK  Name = 
REMARK  9 active torsions:
REMARK  status: ('A' for Active; 'I' for Inactive)
REMARK    1  A    between atoms: C_1  and  N_2
REMARK    2  A    between atoms: C_6  and  C_7
REMARK    3  A    between atoms: C_7  and  C_8
REMARK    4  A    between atoms: C_8  and  C_9
REMARK    5  A    between atoms: C_13  and  N_14
REMARK    6  A    between atoms: C_19  and  C_20
REMARK    7  A    between atoms: C_20  and  N_21
REMARK    8  A    between atoms: C_23  and  C_24
REMARK    9  A    between atoms: C_28  and  C_29
REMARK                            x       y       z     vdW  Elec       q    Type
REMARK                         _______ _______ _______ _____ _____    ______ ____
ROOT
ATOM      1  N   UNL     1       2.340   7.328  19.367  0.00  0.00    +0.000 N 
ATOM      2  C   UNL     1       1.569   7.695  20.536  0.00  0.00    +0.000 C 
ATOM      3  C   UNL     1       1.032   9.032  20.214  0.00  0.00    +0.000 A 
ATOM      4  C   UNL     1       1.325   9.353  18.894  0.00  0.00    +0.000 A 
ATOM      5  C   UNL     1       0.838  10.518  18.323  0.00  0.00    +0.000 A 
ATOM      6  C   UNL     1       0.065  11.388  19.129  0.00  0.00    +0.000 A 
ATOM      7  C   UNL     1      -0.160  11.062  20.489  0.00  0.00    +0.000 A 
ATOM      8  C   UNL     1       0.313   9.872  21.052  0.00  0.00    +0.000 A 
ATOM      9  C   UNL     1       2.199   8.274  18.348  0.00  0.00    +0.000 C 
ATOM     10  O   UNL     1       2.673   8.304  17.226  0.00  0.00    +0.000 OA
ENDROOT
BRANCH   1  15
ATOM     11  C   UNL     1       5.434   5.270  18.866  0.00  0.00    +0.000 A 
ATOM     12  C   UNL     1       4.966   4.017  19.284  0.00  0.00    +0.000 A 
ATOM     13  C   UNL     1       3.664   3.852  19.789  0.00  0.00    +0.000 A 
ATOM     14  C   UNL     1       2.771   4.930  19.865  0.00  0.00    +0.000 A 
ATOM     15  C   UNL     1       3.180   6.185  19.441  0.00  0.00    +0.000 A 
ATOM     16  C   UNL     1       4.510   6.318  18.992  0.00  0.00    +0.000 A 
BRANCH  11  17
ATOM     17  C   UNL     1       6.909   5.570  18.275  0.00  0.00    +0.000 C 
ATOM     18  C   UNL     1       7.970   6.000  19.322  0.00  0.00    +0.000 C 
ATOM     19  O   UNL     1       8.181   7.277  18.692  0.00  0.00    +0.000 OA
ATOM     20  C   UNL     1       7.181   6.993  17.691  0.00  0.00    +0.000 C 
BRANCH  17  21
ATOM     21  C   UNL     1       7.394   4.431  17.337  0.00  0.00    +0.000 C 
BRANCH  21  27
ATOM     22  C   UNL     1       4.719   3.431  15.960  0.00  0.00    +0.000 C 
ATOM     23  N   UNL     1       5.807   4.136  15.340  0.00  0.00    +0.000 N 
ATOM     24  C   UNL     1       5.861   4.472  14.020  0.00  0.00    +0.000 A 
ATOM     25  N   UNL     1       7.000   5.069  13.765  0.00  0.00    +0.000 NA
ATOM     26  N   UNL     1       7.713   5.114  14.936  0.00  0.00    +0.000 NA
ATOM     27  C   UNL     1       6.983   4.583  15.900  0.00  0.00    +0.000 A 
ENDBRANCH  21  27
ENDBRANCH  17  21
ENDBRANCH  11  17
ENDBRANCH   1  15
BRANCH   8  28
ATOM     28  C   UNL     1       0.064   9.550  22.504  0.00  0.00    +0.000 C 
ATOM     29  F   UNL     1      -0.485  10.574  23.210  0.00  0.00    +0.000 F 
ATOM     30  F   UNL     1      -0.774   8.489  22.660  0.00  0.00    +0.000 F 
ATOM     31  F   UNL     1       1.210   9.230  23.163  0.00  0.00    +0.000 F 
ENDBRANCH   8  28
BRANCH   6  32
ATOM     32  C   UNL     1      -0.620  12.595  18.510  0.00  0.00    +0.000 C 
BRANCH  32  33
ATOM     33  N   UNL     1       0.207  13.816  18.454  0.00  0.00    +0.000 NA
ATOM     34  C   UNL     1       0.040  14.657  19.653  0.00  0.00    +0.000 C 
ATOM     35  C   UNL     1       1.566  14.659  19.857  0.00  0.00    +0.000 C 
ATOM     36  C   UNL     1       1.599  13.506  18.838  0.00  0.00    +0.000 C 
BRANCH  35  37
ATOM     37  C   UNL     1       2.262  15.864  19.460  0.00  0.00    +0.000 C 
ATOM     38  N   UNL     1       2.789  16.848  19.148  0.00  0.00    +0.000 NA
ENDBRANCH  35  37
ENDBRANCH  32  33
ENDBRANCH   6  32
TORSDOF 8
ENDMDL
MODEL 2
REMARK VINA RESULT:      -9.2      1.494      2.697
REMARK  Name = 
REMARK  9 active torsions:
REMARK  status: ('A' for Active; 'I' for Inactive)
REMARK    1  A    between atoms: C_1  and  N_2
REMARK    2  A    between atoms: C_6  and  C_7
REMARK    3  A    between atoms: C_7  and  C_8
REMARK    4  A    between atoms: C_8  and  C_9
REMARK    5  A    between atoms: C_13  and  N_14
REMARK    6  A    between atoms: C_19  and  C_20
REMARK    7  A    between atoms: C_20  and  N_21
REMARK    8  A    between atoms: C_23  and  C_24
REMARK    9  A    between atoms: C_28  and  C_29
REMARK                            x       y       z     vdW  Elec       q    Type
REMARK                         _______ _______ _______ _____ _____    ______ ____
ROOT
ATOM      1  N   UNL     1       2.356   7.326  19.379  0.00  0.00    +0.000 N 
ATOM      2  C   UNL     1       1.575   7.676  20.546  0.00  0.00    +0.000 C 
ATOM      3  C   UNL     1       1.083   9.039  20.259  0.00  0.00    +0.000 A 
ATOM      4  C   UNL     1       1.411   9.394  18.956  0.00  0.00    +0.000 A 
ATOM      5  C   UNL     1       0.969  10.592  18.416  0.00  0.00    +0.000 A 
ATOM      6  C   UNL     1       0.206  11.458  19.237  0.00  0.00    +0.000 A 
ATOM      7  C   UNL     1      -0.054  11.093  20.580  0.00  0.00    +0.000 A 
ATOM      8  C   UNL     1       0.373   9.872  21.112  0.00  0.00    +0.000 A 
ATOM      9  C   UNL     1       2.263   8.309  18.390  0.00  0.00    +0.000 C 
ATOM     10  O   UNL     1       2.759   8.361  17.279  0.00  0.00    +0.000 OA
ENDROOT
BRANCH   1  15
ATOM     11  C   UNL     1       5.398   5.193  18.864  0.00  0.00    +0.000 A 
ATOM     12  C   UNL     1       4.886   3.942  19.232  0.00  0.00    +0.000 A 
ATOM     13  C   UNL     1       3.570   3.800  19.710  0.00  0.00    +0.000 A 
ATOM     14  C   UNL     1       2.708   4.901  19.806  0.00  0.00    +0.000 A 
ATOM     15  C   UNL     1       3.161   6.157  19.430  0.00  0.00    +0.000 A 
ATOM     16  C   UNL     1       4.503   6.264  19.007  0.00  0.00    +0.000 A 
BRANCH  11  17
ATOM     17  C   UNL     1       6.891   5.468  18.307  0.00  0.00    +0.000 C 
ATOM     18  C   UNL     1       7.949   5.818  19.386  0.00  0.00    +0.000 C 
ATOM     19  O   UNL     1       8.211   7.112  18.813  0.00  0.00    +0.000 OA
ATOM     20  C   UNL     1       7.219   6.904  17.787  0.00  0.00    +0.000 C 
BRANCH  17  21
ATOM     21  C   UNL     1       7.353   4.354  17.328  0.00  0.00    +0.000 C 
BRANCH  21  27
ATOM     22  C   UNL     1       4.656   3.491  15.902  0.00  0.00    +0.000 C 
ATOM     23  N   UNL     1       5.770   4.184  15.313  0.00  0.00    +0.000 N 
ATOM     24  C   UNL     1       5.844   4.565  14.007  0.00  0.00    +0.000 A 
ATOM     25  N   UNL     1       7.003   5.133  13.781  0.00  0.00    +0.000 NA
ATOM     26  N   UNL     1       7.710   5.112  14.957  0.00  0.00    +0.000 NA
ATOM     27  C   UNL     1       6.957   4.571  15.896  0.00  0.00    +0.000 A 
ENDBRANCH  21  27
ENDBRANCH  17  21
ENDBRANCH  11  17
ENDBRANCH   1  15
BRANCH   8  28
ATOM     28  C   UNL     1       0.086   9.510  22.547  0.00  0.00    +0.000 C 
ATOM     29  F   UNL     1       1.191   9.162  23.260  0.00  0.00    +0.000 F 
ATOM     30  F   UNL     1      -0.500  10.530  23.229  0.00  0.00    +0.000 F 
ATOM     31  F   UNL     1      -0.759   8.449  22.649  0.00  0.00    +0.000 F 
ENDBRANCH   8  28
BRANCH   6  32
ATOM     32  C   UNL     1      -0.431  12.704  18.646  0.00  0.00    +0.000 C 
BRANCH  32  33
ATOM     33  N   UNL     1      -1.814  12.524  18.165  0.00  0.00    +0.000 NA
ATOM     34  C   UNL     1      -2.002  11.229  17.485  0.00  0.00    +0.000 C 
ATOM     35  C   UNL     1      -3.192  10.922  18.414  0.00  0.00    +0.000 C 
ATOM     36  C   UNL     1      -2.688  12.094  19.274  0.00  0.00    +0.000 C 
BRANCH  35  37
ATOM     37  C   UNL     1      -4.509  11.090  17.840  0.00  0.00    +0.000 C 
ATOM     38  N   UNL     1      -5.563  11.191  17.367  0.00  0.00    +0.000 NA
ENDBRANCH  35  37
ENDBRANCH  32  33
ENDBRANCH   6  32
TORSDOF 8
ENDMDL
MODEL 3
REMARK VINA RESULT:      -9.0      1.537      2.515
REMARK  Name = 
REMARK  9 active torsions:
REMARK  status: ('A' for Active; 'I' for Inactive)
REMARK    1  A    between atoms: C_1  and  N_2
REMARK    2  A    between atoms: C_6  and  C_7
REMARK    3  A    between atoms: C_7  and  C_8
REMARK    4  A    between atoms: C_8  and  C_9
REMARK    5  A    between atoms: C_13  and  N_14
REMARK    6  A    between atoms: C_19  and  C_20
REMARK    7  A    between atoms: C_20  and  N_21
REMARK    8  A    between atoms: C_23  and  C_24
REMARK    9  A    between atoms: C_28  and  C_29
REMARK                            x       y       z     vdW  Elec       q    Type
REMARK                         _______ _______ _______ _____ _____    ______ ____
ROOT
ATOM      1  N   UNL     1       2.178   7.391  19.246  0.00  0.00    +0.000 N 
ATOM      2  C   UNL     1       1.420   7.701  20.439  0.00  0.00    +0.000 C 
ATOM      3  C   UNL     1       1.017   9.111  20.260  0.00  0.00    +0.000 A 
ATOM      4  C   UNL     1       1.367   9.543  18.986  0.00  0.00    +0.000 A 
ATOM      5  C   UNL     1       1.003  10.804  18.541  0.00  0.00    +0.000 A 
ATOM      6  C   UNL     1       0.299  11.652  19.429  0.00  0.00    +0.000 A 
ATOM      7  C   UNL     1       0.015  11.203  20.742  0.00  0.00    +0.000 A 
ATOM      8  C   UNL     1       0.363   9.920  21.177  0.00  0.00    +0.000 A 
ATOM      9  C   UNL     1       2.148   8.451  18.335  0.00  0.00    +0.000 C 
ATOM     10  O   UNL     1       2.646   8.556  17.228  0.00  0.00    +0.000 OA
ENDROOT
BRANCH   1  15
ATOM     11  C   UNL     1       4.561   4.829  17.897  0.00  0.00    +0.000 A 
ATOM     12  C   UNL     1       4.310   3.771  18.781  0.00  0.00    +0.000 A 
ATOM     13  C   UNL     1       3.412   3.910  19.855  0.00  0.00    +0.000 A 
ATOM     14  C   UNL     1       2.708   5.104  20.065  0.00  0.00    +0.000 A 
ATOM     15  C   UNL     1       2.905   6.172  19.203  0.00  0.00    +0.000 A 
ATOM     16  C   UNL     1       3.854   6.009  18.172  0.00  0.00    +0.000 A 
BRANCH  11  17
ATOM     17  C   UNL     1       5.573   4.777  16.637  0.00  0.00    +0.000 C 
ATOM     18  C   UNL     1       5.230   5.740  15.470  0.00  0.00    +0.000 C 
ATOM     19  O   UNL     1       5.060   4.660  14.533  0.00  0.00    +0.000 OA
ATOM     20  C   UNL     1       5.327   3.678  15.555  0.00  0.00    +0.000 C 
BRANCH  17  21
ATOM     21  C   UNL     1       7.057   4.857  17.087  0.00  0.00    +0.000 C 
BRANCH  21  27
ATOM     22  C   UNL     1       8.143   5.763  19.925  0.00  0.00    +0.000 C 
ATOM     23  N   UNL     1       7.985   6.579  18.751  0.00  0.00    +0.000 N 
ATOM     24  C   UNL     1       8.268   7.911  18.688  0.00  0.00    +0.000 A 
ATOM     25  N   UNL     1       7.976   8.365  17.494  0.00  0.00    +0.000 NA
ATOM     26  N   UNL     1       7.479   7.315  16.763  0.00  0.00    +0.000 NA
ATOM     27  C   UNL     1       7.514   6.225  17.506  0.00  0.00    +0.000 A 
ENDBRANCH  21  27
ENDBRANCH  17  21
ENDBRANCH  11  17
ENDBRANCH   1  15
BRANCH   8  28
ATOM     28  C   UNL     1       0.053   9.469  22.582  0.00  0.00    +0.000 C 
ATOM     29  F   UNL     1      -0.773   8.391  22.646  0.00  0.00    +0.000 F 
ATOM     30  F   UNL     1       1.175   9.129  23.273  0.00  0.00    +0.000 F 
ATOM     31  F   UNL     1      -0.562  10.440  23.309  0.00  0.00    +0.000 F 
ENDBRANCH   8  28
BRANCH   6  32
ATOM     32  C   UNL     1      -0.257  12.978  18.938  0.00  0.00    +0.000 C 
BRANCH  32  33
ATOM     33  N   UNL     1       0.762  13.992  18.607  0.00  0.00    +0.000 NA
ATOM     34  C   UNL     1       0.236  15.365  18.714  0.00  0.00    +0.000 C 
ATOM     35  C   UNL     1       1.403  15.733  19.648  0.00  0.00    +0.000 C 
ATOM     36  C   UNL     1       1.650  14.218  19.764  0.00  0.00    +0.000 C 
BRANCH  35  37
ATOM     37  C   UNL     1       2.479  16.497  19.055  0.00  0.00    +0.000 C 
ATOM     38  N   UNL     1       3.323  17.140  18.589  0.00  0.00    +0.000 NA
ENDBRANCH  35  37
ENDBRANCH  32  33
ENDBRANCH   6  32
TORSDOF 8
ENDMDL
MODEL 4
REMARK VINA RESULT:      -9.0      3.493     10.162
REMARK  Name = 
REMARK  9 active torsions:
REMARK  status: ('A' for Active; 'I' for Inactive)
REMARK    1  A    between atoms: C_1  and  N_2
REMARK    2  A    between atoms: C_6  and  C_7
REMARK    3  A    between atoms: C_7  and  C_8
REMARK    4  A    between atoms: C_8  and  C_9
REMARK    5  A    between atoms: C_13  and  N_14
REMARK    6  A    between atoms: C_19  and  C_20
REMARK    7  A    between atoms: C_20  and  N_21
REMARK    8  A    between atoms: C_23  and  C_24
REMARK    9  A    between atoms: C_28  and  C_29
REMARK                            x       y       z     vdW  Elec       q    Type
REMARK                         _______ _______ _______ _____ _____    ______ ____
ROOT
ATOM      1  N   UNL     1       1.398   8.890  19.522  0.00  0.00    +0.000 N 
ATOM      2  C   UNL     1       1.465   7.618  20.210  0.00  0.00    +0.000 C 
ATOM      3  C   UNL     1       2.378   6.804  19.383  0.00  0.00    +0.000 A 
ATOM      4  C   UNL     1       2.935   7.590  18.381  0.00  0.00    +0.000 A 
ATOM      5  C   UNL     1       3.904   7.076  17.534  0.00  0.00    +0.000 A 
ATOM      6  C   UNL     1       4.285   5.722  17.694  0.00  0.00    +0.000 A 
ATOM      7  C   UNL     1       3.651   4.932  18.683  0.00  0.00    +0.000 A 
ATOM      8  C   UNL     1       2.692   5.463  19.551  0.00  0.00    +0.000 A 
ATOM      9  C   UNL     1       2.282   8.930  18.440  0.00  0.00    +0.000 C 
ATOM     10  O   UNL     1       2.519   9.822  17.646  0.00  0.00    +0.000 OA
ENDROOT
BRANCH   1  15
ATOM     11  C   UNL     1      -1.687  11.009  19.280  0.00  0.00    +0.000 A 
ATOM     12  C   UNL     1      -1.535  11.796  20.429  0.00  0.00    +0.000 A 
ATOM     13  C   UNL     1      -0.463  11.596  21.319  0.00  0.00    +0.000 A 
ATOM     14  C   UNL     1       0.514  10.621  21.073  0.00  0.00    +0.000 A 
ATOM     15  C   UNL     1       0.420   9.833  19.936  0.00  0.00    +0.000 A 
ATOM     16  C   UNL     1      -0.699  10.030  19.099  0.00  0.00    +0.000 A 
BRANCH  11  17
ATOM     17  C   UNL     1      -2.879  11.152  18.197  0.00  0.00    +0.000 C 
ATOM     18  C   UNL     1      -3.636   9.840  17.864  0.00  0.00    +0.000 C 
ATOM     19  O   UNL     1      -3.262   9.890  16.475  0.00  0.00    +0.000 OA
ATOM     20  C   UNL     1      -2.495  11.094  16.684  0.00  0.00    +0.000 C 
BRANCH  17  21
ATOM     21  C   UNL     1      -3.821  12.340  18.534  0.00  0.00    +0.000 C 
BRANCH  21  27
ATOM     22  C   UNL     1      -6.755  12.160  17.345  0.00  0.00    +0.000 C 
ATOM     23  N   UNL     1      -6.344  11.886  18.695  0.00  0.00    +0.000 N 
ATOM     24  C   UNL     1      -7.185  11.517  19.703  0.00  0.00    +0.000 A 
ATOM     25  N   UNL     1      -6.504  11.386  20.816  0.00  0.00    +0.000 NA
ATOM     26  N   UNL     1      -5.195  11.687  20.537  0.00  0.00    +0.000 NA
ATOM     27  C   UNL     1      -5.085  11.957  19.250  0.00  0.00    +0.000 A 
ENDBRANCH  21  27
ENDBRANCH  17  21
ENDBRANCH  11  17
ENDBRANCH   1  15
BRANCH   8  28
ATOM     28  C   UNL     1       2.028   4.599  20.593  0.00  0.00    +0.000 C 
ATOM     29  F   UNL     1       0.670   4.665  20.582  0.00  0.00    +0.000 F 
ATOM     30  F   UNL     1       2.345   3.283  20.451  0.00  0.00    +0.000 F 
ATOM     31  F   UNL     1       2.397   4.944  21.856  0.00  0.00    +0.000 F 
ENDBRANCH   8  28
BRANCH   6  32
ATOM     32  C   UNL     1       5.450   5.159  16.897  0.00  0.00    +0.000 C 
BRANCH  32  33
ATOM     33  N   UNL     1       5.092   4.625  15.569  0.00  0.00    +0.000 NA
ATOM     34  C   UNL     1       5.696   5.406  14.473  0.00  0.00    +0.000 C 
ATOM     35  C   UNL     1       6.292   4.112  13.888  0.00  0.00    +0.000 C 
ATOM     36  C   UNL     1       5.942   3.464  15.240  0.00  0.00    +0.000 C 
BRANCH  35  37
ATOM     37  C   UNL     1       5.612   3.560  12.737  0.00  0.00    +0.000 C 
ATOM     38  N   UNL     1       5.049   3.096  11.836  0.00  0.00    +0.000 NA
ENDBRANCH  35  37
ENDBRANCH  32  33
ENDBRANCH   6  32
TORSDOF 8
ENDMDL
MODEL 5
REMARK VINA RESULT:      -9.0      0.913      1.263
REMARK  Name = 
REMARK  9 active torsions:
REMARK  status: ('A' for Active; 'I' for Inactive)
REMARK    1  A    between atoms: C_1  and  N_2
REMARK    2  A    between atoms: C_6  and  C_7
REMARK    3  A    between atoms: C_7  and  C_8
REMARK    4  A    between atoms: C_8  and  C_9
REMARK    5  A    between atoms: C_13  and  N_14
REMARK    6  A    between atoms: C_19  and  C_20
REMARK    7  A    between atoms: C_20  and  N_21
REMARK    8  A    between atoms: C_23  and  C_24
REMARK    9  A    between atoms: C_28  and  C_29
REMARK                            x       y       z     vdW  Elec       q    Type
REMARK                         _______ _______ _______ _____ _____    ______ ____
ROOT
ATOM      1  N   UNL     1       2.304   7.423  19.393  0.00  0.00    +0.000 N 
ATOM      2  C   UNL     1       1.521   7.745  20.567  0.00  0.00    +0.000 C 
ATOM      3  C   UNL     1       1.039   9.119  20.319  0.00  0.00    +0.000 A 
ATOM      4  C   UNL     1       1.374   9.510  19.027  0.00  0.00    +0.000 A 
ATOM      5  C   UNL     1       0.942  10.725  18.521  0.00  0.00    +0.000 A 
ATOM      6  C   UNL     1       0.183  11.572  19.364  0.00  0.00    +0.000 A 
ATOM      7  C   UNL     1      -0.085  11.170  20.696  0.00  0.00    +0.000 A 
ATOM      8  C   UNL     1       0.332   9.932  21.193  0.00  0.00    +0.000 A 
ATOM      9  C   UNL     1       2.221   8.435  18.433  0.00  0.00    +0.000 C 
ATOM     10  O   UNL     1       2.721   8.516  17.325  0.00  0.00    +0.000 OA
ENDROOT
BRANCH   1  15
ATOM     11  C   UNL     1       5.329   5.283  18.816  0.00  0.00    +0.000 A 
ATOM     12  C   UNL     1       4.810   4.027  19.155  0.00  0.00    +0.000 A 
ATOM     13  C   UNL     1       3.494   3.882  19.633  0.00  0.00    +0.000 A 
ATOM     14  C   UNL     1       2.640   4.986  19.758  0.00  0.00    +0.000 A 
ATOM     15  C   UNL     1       3.101   6.248  19.413  0.00  0.00    +0.000 A 
ATOM     16  C   UNL     1       4.442   6.356  18.989  0.00  0.00    +0.000 A 
BRANCH  11  17
ATOM     17  C   UNL     1       6.823   5.561  18.263  0.00  0.00    +0.000 C 
ATOM     18  C   UNL     1       7.866   5.965  19.338  0.00  0.00    +0.000 C 
ATOM     19  O   UNL     1       8.113   7.243  18.722  0.00  0.00    +0.000 OA
ATOM     20  C   UNL     1       7.134   6.983  17.696  0.00  0.00    +0.000 C 
BRANCH  17  21
ATOM     21  C   UNL     1       7.311   4.421  17.328  0.00  0.00    +0.000 C 
BRANCH  21  27
ATOM     22  C   UNL     1       4.693   3.420  15.845  0.00  0.00    +0.000 C 
ATOM     23  N   UNL     1       5.794   4.147  15.274  0.00  0.00    +0.000 N 
ATOM     24  C   UNL     1       5.888   4.507  13.963  0.00  0.00    +0.000 A 
ATOM     25  N   UNL     1       7.030   5.119  13.758  0.00  0.00    +0.000 NA
ATOM     26  N   UNL     1       7.703   5.149  14.952  0.00  0.00    +0.000 NA
ATOM     27  C   UNL     1       6.947   4.594  15.881  0.00  0.00    +0.000 A 
ENDBRANCH  21  27
ENDBRANCH  17  21
ENDBRANCH  11  17
ENDBRANCH   1  15
BRANCH   8  28
ATOM     28  C   UNL     1       0.038   9.530  22.616  0.00  0.00    +0.000 C 
ATOM     29  F   UNL     1      -0.775   8.445  22.726  0.00  0.00    +0.000 F 
ATOM     30  F   UNL     1       1.169   9.230  23.311  0.00  0.00    +0.000 F 
ATOM     31  F   UNL     1      -0.584  10.520  23.310  0.00  0.00    +0.000 F 
ENDBRANCH   8  28
BRANCH   6  32
ATOM     32  C   UNL     1      -0.444  12.840  18.808  0.00  0.00    +0.000 C 
BRANCH  32  33
ATOM     33  N   UNL     1      -0.107  14.073  19.545  0.00  0.00    +0.000 NA
ATOM     34  C   UNL     1      -0.045  15.250  18.660  0.00  0.00    +0.000 C 
ATOM     35  C   UNL     1      -1.034  15.987  19.582  0.00  0.00    +0.000 C 
ATOM     36  C   UNL     1      -1.308  14.611  20.214  0.00  0.00    +0.000 C 
BRANCH  35  37
ATOM     37  C   UNL     1      -0.465  16.979  20.468  0.00  0.00    +0.000 C 
ATOM     38  N   UNL     1      -0.008  17.797  21.150  0.00  0.00    +0.000 NA
ENDBRANCH  35  37
ENDBRANCH  32  33
ENDBRANCH   6  32
TORSDOF 8
ENDMDL
MODEL 6
REMARK VINA RESULT:      -8.9      3.125      9.900
REMARK  Name = 
REMARK  9 active torsions:
REMARK  status: ('A' for Active; 'I' for Inactive)
REMARK    1  A    between atoms: C_1  and  N_2
REMARK    2  A    between atoms: C_6  and  C_7
REMARK    3  A    between atoms: C_7  and  C_8
REMARK    4  A    between atoms: C_8  and  C_9
REMARK    5  A    between atoms: C_13  and  N_14
REMARK    6  A    between atoms: C_19  and  C_20
REMARK    7  A    between atoms: C_20  and  N_21
REMARK    8  A    between atoms: C_23  and  C_24
REMARK    9  A    between atoms: C_28  and  C_29
REMARK                            x       y       z     vdW  Elec       q    Type
REMARK                         _______ _______ _______ _____ _____    ______ ____
ROOT
ATOM      1  N   UNL     1       2.597   7.337  18.962  0.00  0.00    +0.000 N 
ATOM      2  C   UNL     1       2.867   5.937  19.210  0.00  0.00    +0.000 C 
ATOM      3  C   UNL     1       3.675   5.509  18.050  0.00  0.00    +0.000 A 
ATOM      4  C   UNL     1       3.996   6.612  17.267  0.00  0.00    +0.000 A 
ATOM      5  C   UNL     1       4.836   6.482  16.173  0.00  0.00    +0.000 A 
ATOM      6  C   UNL     1       5.329   5.194  15.853  0.00  0.00    +0.000 A 
ATOM      7  C   UNL     1       4.929   4.082  16.634  0.00  0.00    +0.000 A 
ATOM      8  C   UNL     1       4.101   4.223  17.752  0.00  0.00    +0.000 A 
ATOM      9  C   UNL     1       3.277   7.792  17.828  0.00  0.00    +0.000 C 
ATOM     10  O   UNL     1       3.312   8.898  17.319  0.00  0.00    +0.000 OA
ENDROOT
BRANCH   1  15
ATOM     11  C   UNL     1       0.256  10.062  20.036  0.00  0.00    +0.000 A 
ATOM     12  C   UNL     1      -0.087   9.601  21.315  0.00  0.00    +0.000 A 
ATOM     13  C   UNL     1       0.392   8.372  21.804  0.00  0.00    +0.000 A 
ATOM     14  C   UNL     1       1.258   7.574  21.043  0.00  0.00    +0.000 A 
ATOM     15  C   UNL     1       1.646   7.999  19.781  0.00  0.00    +0.000 A 
ATOM     16  C   UNL     1       1.101   9.211  19.308  0.00  0.00    +0.000 A 
BRANCH  11  17
ATOM     17  C   UNL     1      -0.239  11.453  19.378  0.00  0.00    +0.000 C 
ATOM     18  C   UNL     1      -1.376  12.182  20.141  0.00  0.00    +0.000 C 
ATOM     19  O   UNL     1      -2.279  12.097  19.024  0.00  0.00    +0.000 OA
ATOM     20  C   UNL     1      -1.306  11.377  18.240  0.00  0.00    +0.000 C 
BRANCH  17  21
ATOM     21  C   UNL     1       0.957  12.378  19.021  0.00  0.00    +0.000 C 
BRANCH  21  27
ATOM     22  C   UNL     1       0.540  15.521  19.027  0.00  0.00    +0.000 C 
ATOM     23  N   UNL     1       1.134  14.719  20.062  0.00  0.00    +0.000 N 
ATOM     24  C   UNL     1       1.643  15.209  21.227  0.00  0.00    +0.000 A 
ATOM     25  N   UNL     1       2.148  14.227  21.933  0.00  0.00    +0.000 NA
ATOM     26  N   UNL     1       1.980  13.072  21.212  0.00  0.00    +0.000 NA
ATOM     27  C   UNL     1       1.337  13.357  20.095  0.00  0.00    +0.000 A 
ENDBRANCH  21  27
ENDBRANCH  17  21
ENDBRANCH  11  17
ENDBRANCH   1  15
BRANCH   8  28
ATOM     28  C   UNL     1       3.687   3.022  18.565  0.00  0.00    +0.000 C 
ATOM     29  F   UNL     1       4.313   2.927  19.768  0.00  0.00    +0.000 F 
ATOM     30  F   UNL     1       2.353   3.014  18.829  0.00  0.00    +0.000 F 
ATOM     31  F   UNL     1       3.956   1.852  17.924  0.00  0.00    +0.000 F 
ENDBRANCH   8  28
BRANCH   6  32
ATOM     32  C   UNL     1       6.373   5.025  14.761  0.00  0.00    +0.000 C 
BRANCH  32  33
ATOM     33  N   UNL     1       6.274   3.766  13.999  0.00  0.00    +0.000 NA
ATOM     34  C   UNL     1       5.004   3.662  13.258  0.00  0.00    +0.000 C 
ATOM     35  C   UNL     1       5.790   3.390  11.962  0.00  0.00    +0.000 C 
ATOM     36  C   UNL     1       7.029   3.875  12.735  0.00  0.00    +0.000 C 
BRANCH  35  37
ATOM     37  C   UNL     1       5.831   2.014  11.517  0.00  0.00    +0.000 C 
ATOM     38  N   UNL     1       5.878   0.902  11.193  0.00  0.00    +0.000 NA
ENDBRANCH  35  37
ENDBRANCH  32  33
ENDBRANCH   6  32
TORSDOF 8
ENDMDL
MODEL 7
REMARK VINA RESULT:      -8.9      2.022      3.449
REMARK  Name = 
REMARK  9 active torsions:
REMARK  status: ('A' for Active; 'I' for Inactive)
REMARK    1  A    between atoms: C_1  and  N_2
REMARK    2  A    between atoms: C_6  and  C_7
REMARK    3  A    between atoms: C_7  and  C_8
REMARK    4  A    between atoms: C_8  and  C_9
REMARK    5  A    between atoms: C_13  and  N_14
REMARK    6  A    between atoms: C_19  and  C_20
REMARK    7  A    between atoms: C_20  and  N_21
REMARK    8  A    between atoms: C_23  and  C_24
REMARK    9  A    between atoms: C_28  and  C_29
REMARK                            x       y       z     vdW  Elec       q    Type
REMARK                         _______ _______ _______ _____ _____    ______ ____
ROOT
ATOM      1  N   UNL     1       2.338   7.219  19.157  0.00  0.00    +0.000 N 
ATOM      2  C   UNL     1       1.597   7.553  20.354  0.00  0.00    +0.000 C 
ATOM      3  C   UNL     1       1.189   8.958  20.151  0.00  0.00    +0.000 A 
ATOM      4  C   UNL     1       1.521   9.363  18.863  0.00  0.00    +0.000 A 
ATOM      5  C   UNL     1       1.149  10.614  18.397  0.00  0.00    +0.000 A 
ATOM      6  C   UNL     1       0.455  11.480  19.277  0.00  0.00    +0.000 A 
ATOM      7  C   UNL     1       0.190  11.058  20.603  0.00  0.00    +0.000 A 
ATOM      8  C   UNL     1       0.546   9.785  21.060  0.00  0.00    +0.000 A 
ATOM      9  C   UNL     1       2.294   8.260  18.224  0.00  0.00    +0.000 C 
ATOM     10  O   UNL     1       2.777   8.342  17.109  0.00  0.00    +0.000 OA
ENDROOT
BRANCH   1  15
ATOM     11  C   UNL     1       4.714   4.636  17.834  0.00  0.00    +0.000 A 
ATOM     12  C   UNL     1       4.472   3.594  18.738  0.00  0.00    +0.000 A 
ATOM     13  C   UNL     1       3.583   3.751  19.818  0.00  0.00    +0.000 A 
ATOM     14  C   UNL     1       2.880   4.948  20.013  0.00  0.00    +0.000 A 
ATOM     15  C   UNL     1       3.068   6.001  19.130  0.00  0.00    +0.000 A 
ATOM     16  C   UNL     1       4.007   5.820  18.093  0.00  0.00    +0.000 A 
BRANCH  11  17
ATOM     17  C   UNL     1       5.714   4.563  16.565  0.00  0.00    +0.000 C 
ATOM     18  C   UNL     1       5.328   5.462  15.362  0.00  0.00    +0.000 C 
ATOM     19  O   UNL     1       5.185   4.338  14.474  0.00  0.00    +0.000 OA
ATOM     20  C   UNL     1       5.495   3.410  15.535  0.00  0.00    +0.000 C 
BRANCH  17  21
ATOM     21  C   UNL     1       7.199   4.711  16.995  0.00  0.00    +0.000 C 
BRANCH  21  27
ATOM     22  C   UNL     1       8.017   5.663  19.907  0.00  0.00    +0.000 C 
ATOM     23  N   UNL     1       7.944   6.465  18.716  0.00  0.00    +0.000 N 
ATOM     24  C   UNL     1       8.205   7.802  18.665  0.00  0.00    +0.000 A 
ATOM     25  N   UNL     1       8.008   8.241  17.446  0.00  0.00    +0.000 NA
ATOM     26  N   UNL     1       7.598   7.175  16.685  0.00  0.00    +0.000 NA
ATOM     27  C   UNL     1       7.591   6.092  17.439  0.00  0.00    +0.000 A 
ENDBRANCH  21  27
ENDBRANCH  17  21
ENDBRANCH  11  17
ENDBRANCH   1  15
BRANCH   8  28
ATOM     28  C   UNL     1       0.256   9.363  22.478  0.00  0.00    +0.000 C 
ATOM     29  F   UNL     1      -0.322  10.333  23.235  0.00  0.00    +0.000 F 
ATOM     30  F   UNL     1      -0.576   8.288  22.536  0.00  0.00    +0.000 F 
ATOM     31  F   UNL     1       1.386   9.006  23.147  0.00  0.00    +0.000 F 
ENDBRANCH   8  28
BRANCH   6  32
ATOM     32  C   UNL     1      -0.110  12.795  18.766  0.00  0.00    +0.000 C 
BRANCH  32  33
ATOM     33  N   UNL     1      -1.488  12.716  18.244  0.00  0.00    +0.000 NA
ATOM     34  C   UNL     1      -1.742  11.451  17.531  0.00  0.00    +0.000 C 
ATOM     35  C   UNL     1      -2.974  11.204  18.421  0.00  0.00    +0.000 C 
ATOM     36  C   UNL     1      -2.418  12.322  19.321  0.00  0.00    +0.000 C 
BRANCH  35  37
ATOM     37  C   UNL     1      -4.262  11.471  17.817  0.00  0.00    +0.000 C 
ATOM     38  N   UNL     1      -5.280  11.674  17.302  0.00  0.00    +0.000 NA
ENDBRANCH  35  37
ENDBRANCH  32  33
ENDBRANCH   6  32
TORSDOF 8
ENDMDL
MODEL 8
REMARK VINA RESULT:      -8.9      2.779      9.071
REMARK  Name = 
REMARK  9 active torsions:
REMARK  status: ('A' for Active; 'I' for Inactive)
REMARK    1  A    between atoms: C_1  and  N_2
REMARK    2  A    between atoms: C_6  and  C_7
REMARK    3  A    between atoms: C_7  and  C_8
REMARK    4  A    between atoms: C_8  and  C_9
REMARK    5  A    between atoms: C_13  and  N_14
REMARK    6  A    between atoms: C_19  and  C_20
REMARK    7  A    between atoms: C_20  and  N_21
REMARK    8  A    between atoms: C_23  and  C_24
REMARK    9  A    between atoms: C_28  and  C_29
REMARK                            x       y       z     vdW  Elec       q    Type
REMARK                         _______ _______ _______ _____ _____    ______ ____
ROOT
ATOM      1  N   UNL     1       1.745   7.834  19.991  0.00  0.00    +0.000 N 
ATOM      2  C   UNL     1       1.806   6.558  20.671  0.00  0.00    +0.000 C 
ATOM      3  C   UNL     1       2.335   5.627  19.653  0.00  0.00    +0.000 A 
ATOM      4  C   UNL     1       2.713   6.335  18.518  0.00  0.00    +0.000 A 
ATOM      5  C   UNL     1       3.335   5.694  17.459  0.00  0.00    +0.000 A 
ATOM      6  C   UNL     1       3.542   4.296  17.547  0.00  0.00    +0.000 A 
ATOM      7  C   UNL     1       3.086   3.597  18.691  0.00  0.00    +0.000 A 
ATOM      8  C   UNL     1       2.482   4.253  19.768  0.00  0.00    +0.000 A 
ATOM      9  C   UNL     1       2.305   7.757  18.712  0.00  0.00    +0.000 C 
ATOM     10  O   UNL     1       2.449   8.614  17.860  0.00  0.00    +0.000 OA
ENDROOT
BRANCH   1  15
ATOM     11  C   UNL     1       0.675  11.376  20.599  0.00  0.00    +0.000 A 
ATOM     12  C   UNL     1      -0.014  11.220  21.810  0.00  0.00    +0.000 A 
ATOM     13  C   UNL     1      -0.187   9.954  22.397  0.00  0.00    +0.000 A 
ATOM     14  C   UNL     1       0.352   8.800  21.810  0.00  0.00    +0.000 A 
ATOM     15  C   UNL     1       1.063   8.907  20.624  0.00  0.00    +0.000 A 
ATOM     16  C   UNL     1       1.167  10.187  20.042  0.00  0.00    +0.000 A 
BRANCH  11  17
ATOM     17  C   UNL     1       0.927  12.781  19.839  0.00  0.00    +0.000 C 
ATOM     18  C   UNL     1       1.875  12.713  18.613  0.00  0.00    +0.000 C 
ATOM     19  O   UNL     1       2.824  13.620  19.204  0.00  0.00    +0.000 OA
ATOM     20  C   UNL     1       2.035  13.724  20.407  0.00  0.00    +0.000 C 
BRANCH  17  21
ATOM     21  C   UNL     1      -0.405  13.524  19.548  0.00  0.00    +0.000 C 
BRANCH  21  27
ATOM     22  C   UNL     1      -3.234  12.732  20.742  0.00  0.00    +0.000 C 
ATOM     23  N   UNL     1      -2.692  12.360  19.463  0.00  0.00    +0.000 N 
ATOM     24  C   UNL     1      -3.327  11.569  18.552  0.00  0.00    +0.000 A 
ATOM     25  N   UNL     1      -2.549  11.386  17.513  0.00  0.00    +0.000 NA
ATOM     26  N   UNL     1      -1.378  12.060  17.750  0.00  0.00    +0.000 NA
ATOM     27  C   UNL     1      -1.471  12.679  18.912  0.00  0.00    +0.000 A 
ENDBRANCH  21  27
ENDBRANCH  17  21
ENDBRANCH  11  17
ENDBRANCH   1  15
BRANCH   8  28
ATOM     28  C   UNL     1       2.001   3.483  20.972  0.00  0.00    +0.000 C 
ATOM     29  F   UNL     1       0.650   3.485  21.125  0.00  0.00    +0.000 F 
ATOM     30  F   UNL     1       2.378   2.176  20.934  0.00  0.00    +0.000 F 
ATOM     31  F   UNL     1       2.497   3.988  22.134  0.00  0.00    +0.000 F 
ENDBRANCH   8  28
BRANCH   6  32
ATOM     32  C   UNL     1       4.356   3.576  16.485  0.00  0.00    +0.000 C 
BRANCH  32  33
ATOM     33  N   UNL     1       5.364   4.412  15.805  0.00  0.00    +0.000 NA
ATOM     34  C   UNL     1       6.677   3.746  15.726  0.00  0.00    +0.000 C 
ATOM     35  C   UNL     1       6.698   3.983  14.204  0.00  0.00    +0.000 C 
ATOM     36  C   UNL     1       5.202   4.316  14.341  0.00  0.00    +0.000 C 
BRANCH  35  37
ATOM     37  C   UNL     1       7.539   5.064  13.739  0.00  0.00    +0.000 C 
ATOM     38  N   UNL     1       8.225   5.934  13.399  0.00  0.00    +0.000 NA
ENDBRANCH  35  37
ENDBRANCH  32  33
ENDBRANCH   6  32
TORSDOF 8
ENDMDL
MODEL 9
REMARK VINA RESULT:      -8.9      2.476      9.290
REMARK  Name = 
REMARK  9 active torsions:
REMARK  status: ('A' for Active; 'I' for Inactive)
REMARK    1  A    between atoms: C_1  and  N_2
REMARK    2  A    between atoms: C_6  and  C_7
REMARK    3  A    between atoms: C_7  and  C_8
REMARK    4  A    between atoms: C_8  and  C_9
REMARK    5  A    between atoms: C_13  and  N_14
REMARK    6  A    between atoms: C_19  and  C_20
REMARK    7  A    between atoms: C_20  and  N_21
REMARK    8  A    between atoms: C_23  and  C_24
REMARK    9  A    between atoms: C_28  and  C_29
REMARK                            x       y       z     vdW  Elec       q    Type
REMARK                         _______ _______ _______ _____ _____    ______ ____
ROOT
ATOM      1  N   UNL     1       1.745   7.950  19.797  0.00  0.00    +0.000 N 
ATOM      2  C   UNL     1       1.708   6.679  20.489  0.00  0.00    +0.000 C 
ATOM      3  C   UNL     1       2.345   5.734  19.549  0.00  0.00    +0.000 A 
ATOM      4  C   UNL     1       2.866   6.428  18.463  0.00  0.00    +0.000 A 
ATOM      5  C   UNL     1       3.603   5.770  17.491  0.00  0.00    +0.000 A 
ATOM      6  C   UNL     1       3.781   4.371  17.614  0.00  0.00    +0.000 A 
ATOM      7  C   UNL     1       3.182   3.687  18.699  0.00  0.00    +0.000 A 
ATOM      8  C   UNL     1       2.460   4.359  19.691  0.00  0.00    +0.000 A 
ATOM      9  C   UNL     1       2.454   7.855  18.596  0.00  0.00    +0.000 C 
ATOM     10  O   UNL     1       2.710   8.704  17.761  0.00  0.00    +0.000 OA
ENDROOT
BRANCH   1  15
ATOM     11  C   UNL     1      -0.607  10.870  19.801  0.00  0.00    +0.000 A 
ATOM     12  C   UNL     1      -0.410  11.343  21.105  0.00  0.00    +0.000 A 
ATOM     13  C   UNL     1       0.439  10.675  22.007  0.00  0.00    +0.000 A 
ATOM     14  C   UNL     1       1.148   9.527  21.624  0.00  0.00    +0.000 A 
ATOM     15  C   UNL     1       1.004   9.035  20.336  0.00  0.00    +0.000 A 
ATOM     16  C   UNL     1       0.102   9.703  19.481  0.00  0.00    +0.000 A 
BRANCH  11  17
ATOM     17  C   UNL     1      -1.560  11.557  18.689  0.00  0.00    +0.000 C 
ATOM     18  C   UNL     1      -2.916  12.095  19.217  0.00  0.00    +0.000 C 
ATOM     19  O   UNL     1      -3.678  11.217  18.369  0.00  0.00    +0.000 OA
ATOM     20  C   UNL     1      -2.476  10.620  17.840  0.00  0.00    +0.000 C 
BRANCH  17  21
ATOM     21  C   UNL     1      -0.783  12.586  17.823  0.00  0.00    +0.000 C 
BRANCH  21  27
ATOM     22  C   UNL     1       2.357  12.536  18.262  0.00  0.00    +0.000 C 
ATOM     23  N   UNL     1       1.421  13.505  18.766  0.00  0.00    +0.000 N 
ATOM     24  C   UNL     1       1.754  14.569  19.551  0.00  0.00    +0.000 A 
ATOM     25  N   UNL     1       0.670  15.231  19.873  0.00  0.00    +0.000 NA
ATOM     26  N   UNL     1      -0.396  14.584  19.301  0.00  0.00    +0.000 NA
ATOM     27  C   UNL     1       0.055  13.559  18.602  0.00  0.00    +0.000 A 
ENDBRANCH  21  27
ENDBRANCH  17  21
ENDBRANCH  11  17
ENDBRANCH   1  15
BRANCH   8  28
ATOM     28  C   UNL     1       1.829   3.605  20.834  0.00  0.00    +0.000 C 
ATOM     29  F   UNL     1       2.008   2.259  20.774  0.00  0.00    +0.000 F 
ATOM     30  F   UNL     1       2.314   3.999  22.042  0.00  0.00    +0.000 F 
ATOM     31  F   UNL     1       0.482   3.788  20.887  0.00  0.00    +0.000 F 
ENDBRANCH   8  28
BRANCH   6  32
ATOM     32  C   UNL     1       4.708   3.633  16.663  0.00  0.00    +0.000 C 
BRANCH  32  33
ATOM     33  N   UNL     1       5.523   4.503  15.793  0.00  0.00    +0.000 NA
ATOM     34  C   UNL     1       6.946   4.118  15.796  0.00  0.00    +0.000 C 
ATOM     35  C   UNL     1       6.922   4.043  14.258  0.00  0.00    +0.000 C 
ATOM     36  C   UNL     1       5.389   4.083  14.384  0.00  0.00    +0.000 C 
BRANCH  35  37
ATOM     37  C   UNL     1       7.521   5.156  13.555  0.00  0.00    +0.000 C 
ATOM     38  N   UNL     1       7.970   6.052  12.972  0.00  0.00    +0.000 NA
ENDBRANCH  35  37
ENDBRANCH  32  33
ENDBRANCH   6  32
TORSDOF 8
ENDMDL
