MODEL 1
REMARK VINA RESULT:      -9.2      0.000      0.000
REMARK  Name = 
REMARK  8 active torsions:
REMARK  status: ('A' for Active; 'I' for Inactive)
REMARK    1  A    between atoms: C_1  and  C_2
REMARK    2  A    between atoms: N_6  and  C_7
REMARK    3  A    between atoms: C_7  and  C_8
REMARK    4  A    between atoms: C_8  and  C_9
REMARK    5  A    between atoms: C_8  and  C_10
REMARK    6  A    between atoms: C_14  and  N_15
REMARK    7  A    between atoms: C_16  and  C_18
REMARK    8  A    between atoms: C_22  and  C_23
REMARK                            x       y       z     vdW  Elec       q    Type
REMARK                         _______ _______ _______ _____ _____    ______ ____
ROOT
ATOM      1  C   UNL     1       4.589   4.878  17.187  0.00  0.00    +0.000 A 
ATOM      2  C   UNL     1       3.808   3.725  17.029  0.00  0.00    +0.000 A 
ATOM      3  C   UNL     1       2.490   3.707  17.468  0.00  0.00    +0.000 A 
ATOM      4  C   UNL     1       1.941   4.832  18.084  0.00  0.00    +0.000 A 
ATOM      5  C   UNL     1       2.700   5.985  18.286  0.00  0.00    +0.000 A 
ATOM      6  C   UNL     1       4.024   6.001  17.827  0.00  0.00    +0.000 A 
ENDROOT
BRANCH   5   7
ATOM      7  N   UNL     1       2.186   7.146  18.903  0.00  0.00    +0.000 N 
ATOM      8  C   UNL     1       2.023   8.387  18.310  0.00  0.00    +0.000 C 
ATOM      9  O   UNL     1       2.257   8.682  17.146  0.00  0.00    +0.000 OA
ATOM     10  H   UNL     1       1.875   7.077  19.868  0.00  0.00    +0.000 HD
BRANCH   8  11
ATOM     11  C   UNL     1       1.467   9.449  19.210  0.00  0.00    +0.000 A 
ATOM     12  C   UNL     1       1.493  10.772  18.783  0.00  0.00    +0.000 A 
ATOM     13  C   UNL     1       0.942  11.746  19.607  0.00  0.00    +0.000 A 
ATOM     14  C   UNL     1       0.391  11.366  20.826  0.00  0.00    +0.000 A 
ATOM     15  C   UNL     1       0.399  10.017  21.198  0.00  0.00    +0.000 A 
ATOM     16  N   UNL     1       0.939   9.047  20.398  0.00  0.00    +0.000 NA
BRANCH  15  17
ATOM     17  C   UNL     1      -0.225   9.607  22.528  0.00  0.00    +0.000 C 
ATOM     18  F   UNL     1      -0.888   8.414  22.470  0.00  0.00    +0.000 F 
ATOM     19  F   UNL     1       0.700   9.461  23.519  0.00  0.00    +0.000 F 
ATOM     20  F   UNL     1      -1.136  10.509  22.988  0.00  0.00    +0.000 F 
ENDBRANCH  15  17
ENDBRANCH   8  11
ENDBRANCH   5   7
BRANCH   1  21
ATOM     21  C   UNL     1       5.990   4.971  16.599  0.00  0.00    +0.000 C 
ATOM     22  C   UNL     1       7.076   4.754  17.663  0.00  0.00    +0.000 C 
BRANCH  21  23
ATOM     23  C   UNL     1       6.185   3.965  15.448  0.00  0.00    +0.000 C 
BRANCH  23  29
ATOM     24  C   UNL     1       5.656   3.246  12.439  0.00  0.00    +0.000 C 
ATOM     25  C   UNL     1       6.643   4.216  12.955  0.00  0.00    +0.000 A 
ATOM     26  C   UNL     1       7.570   5.008  12.314  0.00  0.00    +0.000 A 
ATOM     27  N   UNL     1       8.259   5.750  13.227  0.00  0.00    +0.000 NA
ATOM     28  N   UNL     1       7.802   5.443  14.433  0.00  0.00    +0.000 NA
ATOM     29  N   UNL     1       6.826   4.527  14.278  0.00  0.00    +0.000 N 
ENDBRANCH  23  29
ENDBRANCH  21  23
ENDBRANCH   1  21
TORSDOF 6
ENDMDL
MODEL 2
REMARK VINA RESULT:      -8.4      1.865      2.349
REMARK  Name = 
REMARK  8 active torsions:
REMARK  status: ('A' for Active; 'I' for Inactive)
REMARK    1  A    between atoms: C_1  and  C_2
REMARK    2  A    between atoms: N_6  and  C_7
REMARK    3  A    between atoms: C_7  and  C_8
REMARK    4  A    between atoms: C_8  and  C_9
REMARK    5  A    between atoms: C_8  and  C_10
REMARK    6  A    between atoms: C_14  and  N_15
REMARK    7  A    between atoms: C_16  and  C_18
REMARK    8  A    between atoms: C_22  and  C_23
REMARK                            x       y       z     vdW  Elec       q    Type
REMARK                         _______ _______ _______ _____ _____    ______ ____
ROOT
ATOM      1  C   UNL     1       4.598   4.669  17.187  0.00  0.00    +0.000 A 
ATOM      2  C   UNL     1       3.845   3.508  16.969  0.00  0.00    +0.000 A 
ATOM      3  C   UNL     1       2.508   3.458  17.346  0.00  0.00    +0.000 A 
ATOM      4  C   UNL     1       1.913   4.559  17.961  0.00  0.00    +0.000 A 
ATOM      5  C   UNL     1       2.641   5.721  18.222  0.00  0.00    +0.000 A 
ATOM      6  C   UNL     1       3.985   5.769  17.825  0.00  0.00    +0.000 A 
ENDROOT
BRANCH   5   7
ATOM      7  N   UNL     1       2.080   6.859  18.839  0.00  0.00    +0.000 N 
ATOM      8  C   UNL     1       2.124   8.158  18.362  0.00  0.00    +0.000 C 
ATOM      9  O   UNL     1       2.620   8.538  17.310  0.00  0.00    +0.000 OA
ATOM     10  H   UNL     1       1.565   6.728  19.707  0.00  0.00    +0.000 HD
BRANCH   8  11
ATOM     11  C   UNL     1       1.455   9.176  19.236  0.00  0.00    +0.000 A 
ATOM     12  C   UNL     1       1.057   8.804  20.515  0.00  0.00    +0.000 A 
ATOM     13  C   UNL     1       0.471   9.764  21.331  0.00  0.00    +0.000 A 
ATOM     14  C   UNL     1       0.299  11.054  20.842  0.00  0.00    +0.000 A 
ATOM     15  C   UNL     1       0.719  11.362  19.542  0.00  0.00    +0.000 A 
ATOM     16  N   UNL     1       1.297  10.428  18.727  0.00  0.00    +0.000 NA
BRANCH  15  17
ATOM     17  C   UNL     1       0.545  12.784  19.021  0.00  0.00    +0.000 C 
ATOM     18  F   UNL     1      -0.193  12.854  17.874  0.00  0.00    +0.000 F 
ATOM     19  F   UNL     1      -0.091  13.596  19.913  0.00  0.00    +0.000 F 
ATOM     20  F   UNL     1       1.729  13.393  18.730  0.00  0.00    +0.000 F 
ENDBRANCH  15  17
ENDBRANCH   8  11
ENDBRANCH   5   7
BRANCH   1  21
ATOM     21  C   UNL     1       6.022   4.798  16.667  0.00  0.00    +0.000 C 
ATOM     22  C   UNL     1       7.063   4.549  17.768  0.00  0.00    +0.000 C 
BRANCH  21  23
ATOM     23  C   UNL     1       6.278   3.841  15.486  0.00  0.00    +0.000 C 
BRANCH  23  29
ATOM     24  C   UNL     1       5.667   3.311  12.453  0.00  0.00    +0.000 C 
ATOM     25  C   UNL     1       6.668   4.248  13.002  0.00  0.00    +0.000 A 
ATOM     26  C   UNL     1       7.579   5.079  12.386  0.00  0.00    +0.000 A 
ATOM     27  N   UNL     1       8.292   5.764  13.325  0.00  0.00    +0.000 NA
ATOM     28  N   UNL     1       7.869   5.381  14.521  0.00  0.00    +0.000 NA
ATOM     29  N   UNL     1       6.888   4.476  14.336  0.00  0.00    +0.000 N 
ENDBRANCH  23  29
ENDBRANCH  21  23
ENDBRANCH   1  21
TORSDOF 6
ENDMDL
MODEL 3
REMARK VINA RESULT:      -8.3      2.016      2.441
REMARK  Name = 
REMARK  8 active torsions:
REMARK  status: ('A' for Active; 'I' for Inactive)
REMARK    1  A    between atoms: C_1  and  C_2
REMARK    2  A    between atoms: N_6  and  C_7
REMARK    3  A    between atoms: C_7  and  C_8
REMARK    4  A    between atoms: C_8  and  C_9
REMARK    5  A    between atoms: C_8  and  C_10
REMARK    6  A    between atoms: C_14  and  N_15
REMARK    7  A    between atoms: C_16  and  C_18
REMARK    8  A    between atoms: C_22  and  C_23
REMARK                            x       y       z     vdW  Elec       q    Type
REMARK                         _______ _______ _______ _____ _____    ______ ____
ROOT
ATOM      1  C   UNL     1       4.740   5.268  17.002  0.00  0.00    +0.000 A 
ATOM      2  C   UNL     1       4.053   4.059  16.825  0.00  0.00    +0.000 A 
ATOM      3  C   UNL     1       2.753   3.917  17.298  0.00  0.00    +0.000 A 
ATOM      4  C   UNL     1       2.132   4.972  17.966  0.00  0.00    +0.000 A 
ATOM      5  C   UNL     1       2.798   6.178  18.187  0.00  0.00    +0.000 A 
ATOM      6  C   UNL     1       4.103   6.319  17.695  0.00  0.00    +0.000 A 
ENDROOT
BRANCH   5   7
ATOM      7  N   UNL     1       2.208   7.272  18.856  0.00  0.00    +0.000 N 
ATOM      8  C   UNL     1       1.772   7.292  20.170  0.00  0.00    +0.000 C 
ATOM      9  O   UNL     1       1.856   6.385  20.987  0.00  0.00    +0.000 OA
ATOM     10  H   UNL     1       2.110   8.147  18.348  0.00  0.00    +0.000 HD
BRANCH   8  11
ATOM     11  C   UNL     1       1.167   8.590  20.616  0.00  0.00    +0.000 A 
ATOM     12  C   UNL     1       0.715   8.705  21.925  0.00  0.00    +0.000 A 
ATOM     13  C   UNL     1       0.190   9.923  22.340  0.00  0.00    +0.000 A 
ATOM     14  C   UNL     1       0.131  10.977  21.435  0.00  0.00    +0.000 A 
ATOM     15  C   UNL     1       0.600  10.794  20.129  0.00  0.00    +0.000 A 
ATOM     16  N   UNL     1       1.119   9.600  19.706  0.00  0.00    +0.000 NA
BRANCH  15  17
ATOM     17  C   UNL     1       0.549  11.960  19.149  0.00  0.00    +0.000 C 
ATOM     18  F   UNL     1      -0.444  11.843  18.218  0.00  0.00    +0.000 F 
ATOM     19  F   UNL     1       0.329  13.156  19.768  0.00  0.00    +0.000 F 
ATOM     20  F   UNL     1       1.701  12.108  18.437  0.00  0.00    +0.000 F 
ENDBRANCH  15  17
ENDBRANCH   8  11
ENDBRANCH   5   7
BRANCH   1  21
ATOM     21  C   UNL     1       6.111   5.496  16.382  0.00  0.00    +0.000 C 
ATOM     22  C   UNL     1       7.191   5.740  17.446  0.00  0.00    +0.000 C 
BRANCH  21  23
ATOM     23  C   UNL     1       6.526   4.313  15.484  0.00  0.00    +0.000 C 
BRANCH  23  29
ATOM     24  C   UNL     1       5.571   3.283  12.678  0.00  0.00    +0.000 C 
ATOM     25  C   UNL     1       6.648   4.258  12.941  0.00  0.00    +0.000 A 
ATOM     26  C   UNL     1       7.504   4.928  12.094  0.00  0.00    +0.000 A 
ATOM     27  N   UNL     1       8.333   5.736  12.814  0.00  0.00    +0.000 NA
ATOM     28  N   UNL     1       8.036   5.589  14.097  0.00  0.00    +0.000 NA
ATOM     29  N   UNL     1       7.019   4.709  14.181  0.00  0.00    +0.000 N 
ENDBRANCH  23  29
ENDBRANCH  21  23
ENDBRANCH   1  21
TORSDOF 6
ENDMDL
MODEL 4
REMARK VINA RESULT:      -8.2      1.149      1.346
REMARK  Name = 
REMARK  8 active torsions:
REMARK  status: ('A' for Active; 'I' for Inactive)
REMARK    1  A    between atoms: C_1  and  C_2
REMARK    2  A    between atoms: N_6  and  C_7
REMARK    3  A    between atoms: C_7  and  C_8
REMARK    4  A    between atoms: C_8  and  C_9
REMARK    5  A    between atoms: C_8  and  C_10
REMARK    6  A    between atoms: C_14  and  N_15
REMARK    7  A    between atoms: C_16  and  C_18
REMARK    8  A    between atoms: C_22  and  C_23
REMARK                            x       y       z     vdW  Elec       q    Type
REMARK                         _______ _______ _______ _____ _____    ______ ____
ROOT
ATOM      1  C   UNL     1       4.653   5.149  17.177  0.00  0.00    +0.000 A 
ATOM      2  C   UNL     1       3.819   4.024  17.234  0.00  0.00    +0.000 A 
ATOM      3  C   UNL     1       2.497   4.152  17.641  0.00  0.00    +0.000 A 
ATOM      4  C   UNL     1       1.995   5.400  18.012  0.00  0.00    +0.000 A 
ATOM      5  C   UNL     1       2.806   6.536  17.998  0.00  0.00    +0.000 A 
ATOM      6  C   UNL     1       4.135   6.402  17.572  0.00  0.00    +0.000 A 
ENDROOT
BRANCH   5   7
ATOM      7  N   UNL     1       2.341   7.818  18.363  0.00  0.00    +0.000 N 
ATOM      8  C   UNL     1       1.826   8.184  19.595  0.00  0.00    +0.000 C 
ATOM      9  O   UNL     1       1.720   7.477  20.587  0.00  0.00    +0.000 OA
ATOM     10  H   UNL     1       2.408   8.564  17.676  0.00  0.00    +0.000 HD
BRANCH   8  11
ATOM     11  C   UNL     1       1.392   9.616  19.697  0.00  0.00    +0.000 A 
ATOM     12  C   UNL     1       1.784  10.509  18.707  0.00  0.00    +0.000 A 
ATOM     13  C   UNL     1       1.347  11.825  18.790  0.00  0.00    +0.000 A 
ATOM     14  C   UNL     1       0.540  12.203  19.858  0.00  0.00    +0.000 A 
ATOM     15  C   UNL     1       0.183  11.254  20.824  0.00  0.00    +0.000 A 
ATOM     16  N   UNL     1       0.607   9.955  20.756  0.00  0.00    +0.000 NA
BRANCH  15  17
ATOM     17  C   UNL     1      -0.718  11.672  21.980  0.00  0.00    +0.000 C 
ATOM     18  F   UNL     1      -2.049  11.600  21.683  0.00  0.00    +0.000 F 
ATOM     19  F   UNL     1      -0.550  10.891  23.085  0.00  0.00    +0.000 F 
ATOM     20  F   UNL     1      -0.504  12.955  22.386  0.00  0.00    +0.000 F 
ENDBRANCH  15  17
ENDBRANCH   8  11
ENDBRANCH   5   7
BRANCH   1  21
ATOM     21  C   UNL     1       6.063   5.062  16.612  0.00  0.00    +0.000 C 
ATOM     22  C   UNL     1       7.090   4.669  17.684  0.00  0.00    +0.000 C 
BRANCH  21  23
ATOM     23  C   UNL     1       6.135   4.068  15.436  0.00  0.00    +0.000 C 
BRANCH  23  29
ATOM     24  C   UNL     1       5.724   3.231  12.439  0.00  0.00    +0.000 C 
ATOM     25  C   UNL     1       6.690   4.222  12.955  0.00  0.00    +0.000 A 
ATOM     26  C   UNL     1       7.643   4.989  12.320  0.00  0.00    +0.000 A 
ATOM     27  N   UNL     1       8.296   5.767  13.230  0.00  0.00    +0.000 NA
ATOM     28  N   UNL     1       7.793   5.506  14.428  0.00  0.00    +0.000 NA
ATOM     29  N   UNL     1       6.823   4.585  14.271  0.00  0.00    +0.000 N 
ENDBRANCH  23  29
ENDBRANCH  21  23
ENDBRANCH   1  21
TORSDOF 6
ENDMDL
MODEL 5
REMARK VINA RESULT:      -8.2      1.801      2.898
REMARK  Name = 
REMARK  8 active torsions:
REMARK  status: ('A' for Active; 'I' for Inactive)
REMARK    1  A    between atoms: C_1  and  C_2
REMARK    2  A    between atoms: N_6  and  C_7
REMARK    3  A    between atoms: C_7  and  C_8
REMARK    4  A    between atoms: C_8  and  C_9
REMARK    5  A    between atoms: C_8  and  C_10
REMARK    6  A    between atoms: C_14  and  N_15
REMARK    7  A    between atoms: C_16  and  C_18
REMARK    8  A    between atoms: C_22  and  C_23
REMARK                            x       y       z     vdW  Elec       q    Type
REMARK                         _______ _______ _______ _____ _____    ______ ____
ROOT
ATOM      1  C   UNL     1       4.412   5.102  16.927  0.00  0.00    +0.000 A 
ATOM      2  C   UNL     1       4.046   3.814  17.341  0.00  0.00    +0.000 A 
ATOM      3  C   UNL     1       3.087   3.644  18.332  0.00  0.00    +0.000 A 
ATOM      4  C   UNL     1       2.495   4.754  18.933  0.00  0.00    +0.000 A 
ATOM      5  C   UNL     1       2.858   6.051  18.567  0.00  0.00    +0.000 A 
ATOM      6  C   UNL     1       3.815   6.216  17.556  0.00  0.00    +0.000 A 
ENDROOT
BRANCH   5   7
ATOM      7  N   UNL     1       2.284   7.203  19.146  0.00  0.00    +0.000 N 
ATOM      8  C   UNL     1       1.996   8.392  18.496  0.00  0.00    +0.000 C 
ATOM      9  O   UNL     1       2.149   8.636  17.307  0.00  0.00    +0.000 OA
ATOM     10  H   UNL     1       2.026   7.167  20.129  0.00  0.00    +0.000 HD
BRANCH   8  11
ATOM     11  C   UNL     1       1.401   9.459  19.366  0.00  0.00    +0.000 A 
ATOM     12  C   UNL     1       1.359  10.765  18.890  0.00  0.00    +0.000 A 
ATOM     13  C   UNL     1       0.773  11.742  19.687  0.00  0.00    +0.000 A 
ATOM     14  C   UNL     1       0.256  11.381  20.926  0.00  0.00    +0.000 A 
ATOM     15  C   UNL     1       0.333  10.048  21.347  0.00  0.00    +0.000 A 
ATOM     16  N   UNL     1       0.908   9.076  20.574  0.00  0.00    +0.000 NA
BRANCH  15  17
ATOM     17  C   UNL     1      -0.254   9.659  22.699  0.00  0.00    +0.000 C 
ATOM     18  F   UNL     1       0.692   9.469  23.666  0.00  0.00    +0.000 F 
ATOM     19  F   UNL     1      -1.098  10.608  23.197  0.00  0.00    +0.000 F 
ATOM     20  F   UNL     1      -0.969   8.500  22.655  0.00  0.00    +0.000 F 
ENDBRANCH  15  17
ENDBRANCH   8  11
ENDBRANCH   5   7
BRANCH   1  21
ATOM     21  C   UNL     1       5.359   5.317  15.756  0.00  0.00    +0.000 C 
ATOM     22  C   UNL     1       5.264   6.742  15.192  0.00  0.00    +0.000 C 
BRANCH  21  23
ATOM     23  C   UNL     1       6.818   5.012  16.150  0.00  0.00    +0.000 C 
BRANCH  23  29
ATOM     24  C   UNL     1       7.634   7.848  17.220  0.00  0.00    +0.000 C 
ATOM     25  C   UNL     1       7.539   6.601  18.006  0.00  0.00    +0.000 A 
ATOM     26  C   UNL     1       7.790   6.335  19.334  0.00  0.00    +0.000 A 
ATOM     27  N   UNL     1       7.550   5.018  19.597  0.00  0.00    +0.000 NA
ATOM     28  N   UNL     1       7.166   4.438  18.470  0.00  0.00    +0.000 NA
ATOM     29  N   UNL     1       7.149   5.384  17.510  0.00  0.00    +0.000 N 
ENDBRANCH  23  29
ENDBRANCH  21  23
ENDBRANCH   1  21
TORSDOF 6
ENDMDL
MODEL 6
REMARK VINA RESULT:      -8.1      5.759      7.674
REMARK  Name = 
REMARK  8 active torsions:
REMARK  status: ('A' for Active; 'I' for Inactive)
REMARK    1  A    between atoms: C_1  and  C_2
REMARK    2  A    between atoms: N_6  and  C_7
REMARK    3  A    between atoms: C_7  and  C_8
REMARK    4  A    between atoms: C_8  and  C_9
REMARK    5  A    between atoms: C_8  and  C_10
REMARK    6  A    between atoms: C_14  and  N_15
REMARK    7  A    between atoms: C_16  and  C_18
REMARK    8  A    between atoms: C_22  and  C_23
REMARK                            x       y       z     vdW  Elec       q    Type
REMARK                         _______ _______ _______ _____ _____    ______ ____
ROOT
ATOM      1  C   UNL     1       4.713   5.293  17.086  0.00  0.00    +0.000 A 
ATOM      2  C   UNL     1       5.441   4.310  16.402  0.00  0.00    +0.000 A 
ATOM      3  C   UNL     1       6.741   4.567  15.983  0.00  0.00    +0.000 A 
ATOM      4  C   UNL     1       7.323   5.811  16.226  0.00  0.00    +0.000 A 
ATOM      5  C   UNL     1       6.616   6.823  16.876  0.00  0.00    +0.000 A 
ATOM      6  C   UNL     1       5.310   6.552  17.309  0.00  0.00    +0.000 A 
ENDROOT
BRANCH   5   7
ATOM      7  N   UNL     1       7.165   8.095  17.145  0.00  0.00    +0.000 N 
ATOM      8  C   UNL     1       8.087   8.399  18.132  0.00  0.00    +0.000 C 
ATOM      9  O   UNL     1       8.615   7.617  18.912  0.00  0.00    +0.000 OA
ATOM     10  H   UNL     1       6.888   8.871  16.550  0.00  0.00    +0.000 HD
BRANCH   8  11
ATOM     11  C   UNL     1       8.486   9.843  18.202  0.00  0.00    +0.000 A 
ATOM     12  C   UNL     1       7.864  10.752  17.354  0.00  0.00    +0.000 A 
ATOM     13  C   UNL     1       8.213  12.094  17.450  0.00  0.00    +0.000 A 
ATOM     14  C   UNL     1       9.169  12.477  18.383  0.00  0.00    +0.000 A 
ATOM     15  C   UNL     1       9.760  11.511  19.206  0.00  0.00    +0.000 A 
ATOM     16  N   UNL     1       9.428  10.186  19.122  0.00  0.00    +0.000 NA
BRANCH  15  17
ATOM     17  C   UNL     1      10.794  11.943  20.240  0.00  0.00    +0.000 C 
ATOM     18  F   UNL     1      10.425  11.661  21.525  0.00  0.00    +0.000 F 
ATOM     19  F   UNL     1      11.999  11.330  20.065  0.00  0.00    +0.000 F 
ATOM     20  F   UNL     1      11.041  13.283  20.217  0.00  0.00    +0.000 F 
ENDBRANCH  15  17
ENDBRANCH   8  11
ENDBRANCH   5   7
BRANCH   1  21
ATOM     21  C   UNL     1       3.339   4.997  17.670  0.00  0.00    +0.000 C 
ATOM     22  C   UNL     1       2.797   3.637  17.205  0.00  0.00    +0.000 C 
BRANCH  21  23
ATOM     23  C   UNL     1       3.361   5.046  19.210  0.00  0.00    +0.000 C 
BRANCH  23  29
ATOM     24  C   UNL     1       1.424   3.356  21.010  0.00  0.00    +0.000 C 
ATOM     25  C   UNL     1       2.816   3.018  20.651  0.00  0.00    +0.000 A 
ATOM     26  C   UNL     1       3.619   1.954  21.000  0.00  0.00    +0.000 A 
ATOM     27  N   UNL     1       4.840   2.080  20.408  0.00  0.00    +0.000 NA
ATOM     28  N   UNL     1       4.840   3.201  19.702  0.00  0.00    +0.000 NA
ATOM     29  N   UNL     1       3.625   3.767  19.836  0.00  0.00    +0.000 N 
ENDBRANCH  23  29
ENDBRANCH  21  23
ENDBRANCH   1  21
TORSDOF 6
ENDMDL
MODEL 7
REMARK VINA RESULT:      -8.1      4.502      9.289
REMARK  Name = 
REMARK  8 active torsions:
REMARK  status: ('A' for Active; 'I' for Inactive)
REMARK    1  A    between atoms: C_1  and  C_2
REMARK    2  A    between atoms: N_6  and  C_7
REMARK    3  A    between atoms: C_7  and  C_8
REMARK    4  A    between atoms: C_8  and  C_9
REMARK    5  A    between atoms: C_8  and  C_10
REMARK    6  A    between atoms: C_14  and  N_15
REMARK    7  A    between atoms: C_16  and  C_18
REMARK    8  A    between atoms: C_22  and  C_23
REMARK                            x       y       z     vdW  Elec       q    Type
REMARK                         _______ _______ _______ _____ _____    ______ ____
ROOT
ATOM      1  C   UNL     1      -0.138  10.360  20.097  0.00  0.00    +0.000 A 
ATOM      2  C   UNL     1      -0.182  10.461  21.494  0.00  0.00    +0.000 A 
ATOM      3  C   UNL     1       0.558   9.588  22.283  0.00  0.00    +0.000 A 
ATOM      4  C   UNL     1       1.336   8.595  21.689  0.00  0.00    +0.000 A 
ATOM      5  C   UNL     1       1.378   8.445  20.301  0.00  0.00    +0.000 A 
ATOM      6  C   UNL     1       0.641   9.338  19.512  0.00  0.00    +0.000 A 
ENDROOT
BRANCH   5   7
ATOM      7  N   UNL     1       2.152   7.456  19.657  0.00  0.00    +0.000 N 
ATOM      8  C   UNL     1       2.713   7.547  18.394  0.00  0.00    +0.000 C 
ATOM      9  O   UNL     1       2.670   8.507  17.638  0.00  0.00    +0.000 OA
ATOM     10  H   UNL     1       2.350   6.598  20.165  0.00  0.00    +0.000 HD
BRANCH   8  11
ATOM     11  C   UNL     1       3.476   6.333  17.953  0.00  0.00    +0.000 A 
ATOM     12  C   UNL     1       2.806   5.119  17.853  0.00  0.00    +0.000 A 
ATOM     13  C   UNL     1       3.511   4.008  17.408  0.00  0.00    +0.000 A 
ATOM     14  C   UNL     1       4.856   4.146  17.085  0.00  0.00    +0.000 A 
ATOM     15  C   UNL     1       5.473   5.397  17.211  0.00  0.00    +0.000 A 
ATOM     16  N   UNL     1       4.791   6.500  17.648  0.00  0.00    +0.000 NA
BRANCH  15  17
ATOM     17  C   UNL     1       6.943   5.544  16.835  0.00  0.00    +0.000 C 
ATOM     18  F   UNL     1       7.172   5.437  15.492  0.00  0.00    +0.000 F 
ATOM     19  F   UNL     1       7.458   6.755  17.195  0.00  0.00    +0.000 F 
ATOM     20  F   UNL     1       7.738   4.604  17.417  0.00  0.00    +0.000 F 
ENDBRANCH  15  17
ENDBRANCH   8  11
ENDBRANCH   5   7
BRANCH   1  21
ATOM     21  C   UNL     1      -0.832  11.381  19.208  0.00  0.00    +0.000 C 
ATOM     22  C   UNL     1       0.107  12.529  18.808  0.00  0.00    +0.000 C 
BRANCH  21  23
ATOM     23  C   UNL     1      -1.412  10.722  17.942  0.00  0.00    +0.000 C 
BRANCH  23  29
ATOM     24  C   UNL     1      -2.936  10.523  15.205  0.00  0.00    +0.000 C 
ATOM     25  C   UNL     1      -3.472  11.045  16.478  0.00  0.00    +0.000 A 
ATOM     26  C   UNL     1      -4.698  11.583  16.804  0.00  0.00    +0.000 A 
ATOM     27  N   UNL     1      -4.722  11.920  18.125  0.00  0.00    +0.000 NA
ATOM     28  N   UNL     1      -3.540  11.622  18.645  0.00  0.00    +0.000 NA
ATOM     29  N   UNL     1      -2.786  11.089  17.665  0.00  0.00    +0.000 N 
ENDBRANCH  23  29
ENDBRANCH  21  23
ENDBRANCH   1  21
TORSDOF 6
ENDMDL
MODEL 8
REMARK VINA RESULT:      -8.1      4.408      9.247
REMARK  Name = 
REMARK  8 active torsions:
REMARK  status: ('A' for Active; 'I' for Inactive)
REMARK    1  A    between atoms: C_1  and  C_2
REMARK    2  A    between atoms: N_6  and  C_7
REMARK    3  A    between atoms: C_7  and  C_8
REMARK    4  A    between atoms: C_8  and  C_9
REMARK    5  A    between atoms: C_8  and  C_10
REMARK    6  A    between atoms: C_14  and  N_15
REMARK    7  A    between atoms: C_16  and  C_18
REMARK    8  A    between atoms: C_22  and  C_23
REMARK                            x       y       z     vdW  Elec       q    Type
REMARK                         _______ _______ _______ _____ _____    ______ ____
ROOT
ATOM      1  C   UNL     1      -0.248  10.425  20.255  0.00  0.00    +0.000 A 
ATOM      2  C   UNL     1      -0.396  10.480  21.648  0.00  0.00    +0.000 A 
ATOM      3  C   UNL     1       0.328   9.617  22.463  0.00  0.00    +0.000 A 
ATOM      4  C   UNL     1       1.194   8.681  21.898  0.00  0.00    +0.000 A 
ATOM      5  C   UNL     1       1.340   8.578  20.513  0.00  0.00    +0.000 A 
ATOM      6  C   UNL     1       0.618   9.461  19.699  0.00  0.00    +0.000 A 
ENDROOT
BRANCH   5   7
ATOM      7  N   UNL     1       2.205   7.647  19.899  0.00  0.00    +0.000 N 
ATOM      8  C   UNL     1       2.192   6.274  20.074  0.00  0.00    +0.000 C 
ATOM      9  O   UNL     1       1.409   5.627  20.757  0.00  0.00    +0.000 OA
ATOM     10  H   UNL     1       2.895   7.998  19.239  0.00  0.00    +0.000 HD
BRANCH   8  11
ATOM     11  C   UNL     1       3.241   5.528  19.305  0.00  0.00    +0.000 A 
ATOM     12  C   UNL     1       3.567   4.234  19.696  0.00  0.00    +0.000 A 
ATOM     13  C   UNL     1       4.513   3.537  18.955  0.00  0.00    +0.000 A 
ATOM     14  C   UNL     1       5.101   4.155  17.857  0.00  0.00    +0.000 A 
ATOM     15  C   UNL     1       4.730   5.462  17.518  0.00  0.00    +0.000 A 
ATOM     16  N   UNL     1       3.800   6.161  18.238  0.00  0.00    +0.000 NA
BRANCH  15  17
ATOM     17  C   UNL     1       5.364   6.124  16.300  0.00  0.00    +0.000 C 
ATOM     18  F   UNL     1       4.603   7.127  15.770  0.00  0.00    +0.000 F 
ATOM     19  F   UNL     1       6.570   6.695  16.583  0.00  0.00    +0.000 F 
ATOM     20  F   UNL     1       5.586   5.254  15.276  0.00  0.00    +0.000 F 
ENDBRANCH  15  17
ENDBRANCH   8  11
ENDBRANCH   5   7
BRANCH   1  21
ATOM     21  C   UNL     1      -0.926  11.442  19.348  0.00  0.00    +0.000 C 
ATOM     22  C   UNL     1      -0.000  12.619  19.009  0.00  0.00    +0.000 C 
BRANCH  21  23
ATOM     23  C   UNL     1      -1.428  10.787  18.046  0.00  0.00    +0.000 C 
BRANCH  23  29
ATOM     24  C   UNL     1      -2.865  10.433  15.278  0.00  0.00    +0.000 C 
ATOM     25  C   UNL     1      -3.447  11.007  16.509  0.00  0.00    +0.000 A 
ATOM     26  C   UNL     1      -4.690  11.540  16.771  0.00  0.00    +0.000 A 
ATOM     27  N   UNL     1      -4.758  11.940  18.073  0.00  0.00    +0.000 NA
ATOM     28  N   UNL     1      -3.589  11.686  18.642  0.00  0.00    +0.000 NA
ATOM     29  N   UNL     1      -2.798  11.118  17.711  0.00  0.00    +0.000 N 
ENDBRANCH  23  29
ENDBRANCH  21  23
ENDBRANCH   1  21
TORSDOF 6
ENDMDL
MODEL 9
REMARK VINA RESULT:      -8.1      2.662      3.036
REMARK  Name = 
REMARK  8 active torsions:
REMARK  status: ('A' for Active; 'I' for Inactive)
REMARK    1  A    between atoms: C_1  and  C_2
REMARK    2  A    between atoms: N_6  and  C_7
REMARK    3  A    between atoms: C_7  and  C_8
REMARK    4  A    between atoms: C_8  and  C_9
REMARK    5  A    between atoms: C_8  and  C_10
REMARK    6  A    between atoms: C_14  and  N_15
REMARK    7  A    between atoms: C_16  and  C_18
REMARK    8  A    between atoms: C_22  and  C_23
REMARK                            x       y       z     vdW  Elec       q    Type
REMARK                         _______ _______ _______ _____ _____    ______ ____
ROOT
ATOM      1  C   UNL     1       4.823   6.055  17.262  0.00  0.00    +0.000 A 
ATOM      2  C   UNL     1       4.316   4.799  17.622  0.00  0.00    +0.000 A 
ATOM      3  C   UNL     1       2.999   4.672  18.049  0.00  0.00    +0.000 A 
ATOM      4  C   UNL     1       2.179   5.797  18.138  0.00  0.00    +0.000 A 
ATOM      5  C   UNL     1       2.662   7.067  17.818  0.00  0.00    +0.000 A 
ATOM      6  C   UNL     1       3.986   7.186  17.374  0.00  0.00    +0.000 A 
ENDROOT
BRANCH   5   7
ATOM      7  N   UNL     1       1.869   8.232  17.891  0.00  0.00    +0.000 N 
ATOM      8  C   UNL     1       1.455   8.873  19.047  0.00  0.00    +0.000 C 
ATOM      9  O   UNL     1       1.736   8.567  20.198  0.00  0.00    +0.000 OA
ATOM     10  H   UNL     1       1.585   8.674  17.020  0.00  0.00    +0.000 HD
BRANCH   8  11
ATOM     11  C   UNL     1       0.602  10.087  18.827  0.00  0.00    +0.000 A 
ATOM     12  C   UNL     1       1.033  11.309  19.329  0.00  0.00    +0.000 A 
ATOM     13  C   UNL     1       0.256  12.435  19.089  0.00  0.00    +0.000 A 
ATOM     14  C   UNL     1      -0.922  12.301  18.362  0.00  0.00    +0.000 A 
ATOM     15  C   UNL     1      -1.301  11.039  17.887  0.00  0.00    +0.000 A 
ATOM     16  N   UNL     1      -0.546   9.921  18.117  0.00  0.00    +0.000 NA
BRANCH  15  17
ATOM     17  C   UNL     1      -2.583  10.904  17.074  0.00  0.00    +0.000 C 
ATOM     18  F   UNL     1      -3.552  11.796  17.438  0.00  0.00    +0.000 F 
ATOM     19  F   UNL     1      -2.383  11.109  15.741  0.00  0.00    +0.000 F 
ATOM     20  F   UNL     1      -3.159   9.675  17.188  0.00  0.00    +0.000 F 
ENDBRANCH  15  17
ENDBRANCH   8  11
ENDBRANCH   5   7
BRANCH   1  21
ATOM     21  C   UNL     1       6.216   6.204  16.668  0.00  0.00    +0.000 C 
ATOM     22  C   UNL     1       7.239   6.676  17.711  0.00  0.00    +0.000 C 
BRANCH  21  23
ATOM     23  C   UNL     1       6.698   4.888  16.028  0.00  0.00    +0.000 C 
BRANCH  23  29
ATOM     24  C   UNL     1       5.375   3.605  13.487  0.00  0.00    +0.000 C 
ATOM     25  C   UNL     1       6.583   4.455  13.521  0.00  0.00    +0.000 A 
ATOM     26  C   UNL     1       7.435   4.876  12.522  0.00  0.00    +0.000 A 
ATOM     27  N   UNL     1       8.417   5.660  13.050  0.00  0.00    +0.000 NA
ATOM     28  N   UNL     1       8.221   5.739  14.358  0.00  0.00    +0.000 NA
ATOM     29  N   UNL     1       7.117   5.024  14.648  0.00  0.00    +0.000 N 
ENDBRANCH  23  29
ENDBRANCH  21  23
ENDBRANCH   1  21
TORSDOF 6
ENDMDL
