MODEL 1
REMARK VINA RESULT:      -8.5      0.000      0.000
REMARK  Name = 
REMARK  8 active torsions:
REMARK  status: ('A' for Active; 'I' for Inactive)
REMARK    1  A    between atoms: C_1  and  C_2
REMARK    2  A    between atoms: C_2  and  C_3
REMARK    3  A    between atoms: C_2  and  C_10
REMARK    4  A    between atoms: C_3  and  C_4
REMARK    5  A    between atoms: N_8  and  C_9
REMARK    6  A    between atoms: C_14  and  N_15
REMARK    7  A    between atoms: C_16  and  C_18
REMARK    8  A    between atoms: C_24  and  C_25
REMARK                            x       y       z     vdW  Elec       q    Type
REMARK                         _______ _______ _______ _____ _____    ______ ____
ROOT
ATOM      1  N   UNL     1       0.852   9.374  19.296  0.00  0.00    +0.000 N 
ATOM      2  C   UNL     1       1.778   9.085  18.289  0.00  0.00    +0.000 C 
ATOM      3  O   UNL     1       2.031   9.795  17.319  0.00  0.00    +0.000 OA
ATOM      4  H   UNL     1       0.842   8.702  20.058  0.00  0.00    +0.000 HD
ENDROOT
BRANCH   2   5
ATOM      5  C   UNL     1       2.513   7.844  18.507  0.00  0.00    +0.000 A 
ATOM      6  N   UNL     1       3.478   7.411  17.717  0.00  0.00    +0.000 NA
ATOM      7  C   UNL     1       3.827   6.177  18.215  0.00  0.00    +0.000 A 
ATOM      8  C   UNL     1       4.782   5.284  17.712  0.00  0.00    +0.000 A 
ATOM      9  C   UNL     1       4.926   4.040  18.322  0.00  0.00    +0.000 A 
ATOM     10  C   UNL     1       4.132   3.696  19.415  0.00  0.00    +0.000 A 
ATOM     11  C   UNL     1       3.175   4.574  19.973  0.00  0.00    +0.000 A 
ATOM     12  C   UNL     1       3.063   5.827  19.331  0.00  0.00    +0.000 A 
ATOM     13  N   UNL     1       2.279   6.944  19.530  0.00  0.00    +0.000 N 
ATOM     14  H   UNL     1       1.600   7.079  20.268  0.00  0.00    +0.000 HD
BRANCH  11  15
ATOM     15  C   UNL     1       2.262   4.138  21.085  0.00  0.00    +0.000 C 
ATOM     16  C   UNL     1       1.054   3.286  20.732  0.00  0.00    +0.000 C 
ATOM     17  C   UNL     1       2.153   2.718  21.573  0.00  0.00    +0.000 C 
ENDBRANCH  11  15
ENDBRANCH   2   5
BRANCH   1  22
ATOM     18  C   UNL     1      -2.171  11.614  19.169  0.00  0.00    +0.000 A 
ATOM     19  C   UNL     1      -1.634  12.774  19.742  0.00  0.00    +0.000 A 
ATOM     20  C   UNL     1      -0.293  12.834  20.116  0.00  0.00    +0.000 A 
ATOM     21  C   UNL     1       0.536  11.726  19.956  0.00  0.00    +0.000 A 
ATOM     22  C   UNL     1       0.046  10.537  19.417  0.00  0.00    +0.000 A 
ATOM     23  C   UNL     1      -1.302  10.503  18.993  0.00  0.00    +0.000 A 
BRANCH  18  25
ATOM     24  C   UNL     1      -3.864  11.516  17.213  0.00  0.00    +0.000 C 
ATOM     25  C   UNL     1      -3.653  11.543  18.744  0.00  0.00    +0.000 C 
BRANCH  25  26
ATOM     26  C   UNL     1      -4.454  12.710  19.376  0.00  0.00    +0.000 C 
BRANCH  26  27
ATOM     27  C   UNL     1      -5.649  12.257  20.153  0.00  0.00    +0.000 A 
ATOM     28  N   UNL     1      -5.708  12.050  21.455  0.00  0.00    +0.000 NA
ATOM     29  N   UNL     1      -6.963  11.591  21.767  0.00  0.00    +0.000 NA
ATOM     30  C   UNL     1      -7.654  11.529  20.648  0.00  0.00    +0.000 A 
ATOM     31  N   UNL     1      -6.876  11.960  19.619  0.00  0.00    +0.000 N 
ATOM     32  C   UNL     1      -7.292  12.084  18.244  0.00  0.00    +0.000 C 
ENDBRANCH  26  27
ENDBRANCH  25  26
ENDBRANCH  18  25
ENDBRANCH   1  22
TORSDOF 6
ENDMDL
MODEL 2
REMARK VINA RESULT:      -8.4      3.857     10.429
REMARK  Name = 
REMARK  8 active torsions:
REMARK  status: ('A' for Active; 'I' for Inactive)
REMARK    1  A    between atoms: C_1  and  C_2
REMARK    2  A    between atoms: C_2  and  C_3
REMARK    3  A    between atoms: C_2  and  C_10
REMARK    4  A    between atoms: C_3  and  C_4
REMARK    5  A    between atoms: N_8  and  C_9
REMARK    6  A    between atoms: C_14  and  N_15
REMARK    7  A    between atoms: C_16  and  C_18
REMARK    8  A    between atoms: C_24  and  C_25
REMARK                            x       y       z     vdW  Elec       q    Type
REMARK                         _______ _______ _______ _____ _____    ______ ____
ROOT
ATOM      1  N   UNL     1       2.185   7.324  19.056  0.00  0.00    +0.000 N 
ATOM      2  C   UNL     1       1.846   8.575  18.535  0.00  0.00    +0.000 C 
ATOM      3  O   UNL     1       1.932   8.910  17.356  0.00  0.00    +0.000 OA
ATOM      4  H   UNL     1       1.968   7.211  20.043  0.00  0.00    +0.000 HD
ENDROOT
BRANCH   2   5
ATOM      5  C   UNL     1       1.293   9.493  19.524  0.00  0.00    +0.000 A 
ATOM      6  N   UNL     1       0.663   9.105  20.618  0.00  0.00    +0.000 NA
ATOM      7  C   UNL     1       0.220  10.265  21.211  0.00  0.00    +0.000 A 
ATOM      8  C   UNL     1      -0.535  10.399  22.383  0.00  0.00    +0.000 A 
ATOM      9  C   UNL     1      -0.953  11.670  22.772  0.00  0.00    +0.000 A 
ATOM     10  C   UNL     1      -0.620  12.785  22.005  0.00  0.00    +0.000 A 
ATOM     11  C   UNL     1       0.163  12.702  20.832  0.00  0.00    +0.000 A 
ATOM     12  C   UNL     1       0.572  11.398  20.474  0.00  0.00    +0.000 A 
ATOM     13  N   UNL     1       1.313  10.873  19.436  0.00  0.00    +0.000 N 
ATOM     14  H   UNL     1       1.762  11.393  18.694  0.00  0.00    +0.000 HD
BRANCH  11  15
ATOM     15  C   UNL     1       0.419  13.907  19.970  0.00  0.00    +0.000 C 
ATOM     16  C   UNL     1      -0.368  14.047  18.677  0.00  0.00    +0.000 C 
ATOM     17  C   UNL     1      -0.565  15.032  19.787  0.00  0.00    +0.000 C 
ENDBRANCH  11  15
ENDBRANCH   2   5
BRANCH   1  22
ATOM     18  C   UNL     1       4.373   5.202  16.846  0.00  0.00    +0.000 A 
ATOM     19  C   UNL     1       3.737   3.963  16.998  0.00  0.00    +0.000 A 
ATOM     20  C   UNL     1       2.583   3.839  17.770  0.00  0.00    +0.000 A 
ATOM     21  C   UNL     1       2.057   4.944  18.436  0.00  0.00    +0.000 A 
ATOM     22  C   UNL     1       2.666   6.194  18.343  0.00  0.00    +0.000 A 
ATOM     23  C   UNL     1       3.806   6.320  17.515  0.00  0.00    +0.000 A 
BRANCH  18  25
ATOM     24  C   UNL     1       5.688   4.399  14.766  0.00  0.00    +0.000 C 
ATOM     25  C   UNL     1       5.645   5.348  15.985  0.00  0.00    +0.000 C 
BRANCH  25  26
ATOM     26  C   UNL     1       6.913   5.161  16.857  0.00  0.00    +0.000 C 
BRANCH  26  27
ATOM     27  C   UNL     1       7.425   6.440  17.441  0.00  0.00    +0.000 A 
ATOM     28  N   UNL     1       7.460   7.617  16.847  0.00  0.00    +0.000 NA
ATOM     29  N   UNL     1       8.049   8.518  17.697  0.00  0.00    +0.000 NA
ATOM     30  C   UNL     1       8.362   7.876  18.804  0.00  0.00    +0.000 A 
ATOM     31  N   UNL     1       7.965   6.580  18.693  0.00  0.00    +0.000 N 
ATOM     32  C   UNL     1       8.091   5.572  19.717  0.00  0.00    +0.000 C 
ENDBRANCH  26  27
ENDBRANCH  25  26
ENDBRANCH  18  25
ENDBRANCH   1  22
TORSDOF 6
ENDMDL
MODEL 3
REMARK VINA RESULT:      -8.3      3.172     10.389
REMARK  Name = 
REMARK  8 active torsions:
REMARK  status: ('A' for Active; 'I' for Inactive)
REMARK    1  A    between atoms: C_1  and  C_2
REMARK    2  A    between atoms: C_2  and  C_3
REMARK    3  A    between atoms: C_2  and  C_10
REMARK    4  A    between atoms: C_3  and  C_4
REMARK    5  A    between atoms: N_8  and  C_9
REMARK    6  A    between atoms: C_14  and  N_15
REMARK    7  A    between atoms: C_16  and  C_18
REMARK    8  A    between atoms: C_24  and  C_25
REMARK                            x       y       z     vdW  Elec       q    Type
REMARK                         _______ _______ _______ _____ _____    ______ ____
ROOT
ATOM      1  N   UNL     1       1.935   6.881  18.570  0.00  0.00    +0.000 N 
ATOM      2  C   UNL     1       2.293   8.190  18.235  0.00  0.00    +0.000 C 
ATOM      3  O   UNL     1       3.301   8.524  17.617  0.00  0.00    +0.000 OA
ATOM      4  H   UNL     1       1.024   6.798  19.012  0.00  0.00    +0.000 HD
ENDROOT
BRANCH   2   5
ATOM      5  C   UNL     1       1.306   9.188  18.633  0.00  0.00    +0.000 A 
ATOM      6  N   UNL     1       1.172   9.640  19.866  0.00  0.00    +0.000 NA
ATOM      7  C   UNL     1       0.079  10.475  19.827  0.00  0.00    +0.000 A 
ATOM      8  C   UNL     1      -0.502  11.181  20.888  0.00  0.00    +0.000 A 
ATOM      9  C   UNL     1      -1.664  11.913  20.652  0.00  0.00    +0.000 A 
ATOM     10  C   UNL     1      -2.231  11.941  19.379  0.00  0.00    +0.000 A 
ATOM     11  C   UNL     1      -1.665  11.267  18.273  0.00  0.00    +0.000 A 
ATOM     12  C   UNL     1      -0.485  10.541  18.552  0.00  0.00    +0.000 A 
ATOM     13  N   UNL     1       0.363   9.758  17.798  0.00  0.00    +0.000 N 
ATOM     14  H   UNL     1       0.292   9.577  16.805  0.00  0.00    +0.000 HD
BRANCH  11  15
ATOM     15  C   UNL     1      -2.354  11.230  16.938  0.00  0.00    +0.000 C 
ATOM     16  C   UNL     1      -3.041   9.941  16.519  0.00  0.00    +0.000 C 
ATOM     17  C   UNL     1      -3.849  11.175  16.767  0.00  0.00    +0.000 C 
ENDBRANCH  11  15
ENDBRANCH   2   5
BRANCH   1  22
ATOM     18  C   UNL     1       4.514   4.583  17.071  0.00  0.00    +0.000 A 
ATOM     19  C   UNL     1       4.137   3.375  17.673  0.00  0.00    +0.000 A 
ATOM     20  C   UNL     1       3.027   3.309  18.513  0.00  0.00    +0.000 A 
ATOM     21  C   UNL     1       2.288   4.454  18.799  0.00  0.00    +0.000 A 
ATOM     22  C   UNL     1       2.636   5.687  18.251  0.00  0.00    +0.000 A 
ATOM     23  C   UNL     1       3.732   5.735  17.358  0.00  0.00    +0.000 A 
BRANCH  18  25
ATOM     24  C   UNL     1       5.795   3.527  15.085  0.00  0.00    +0.000 C 
ATOM     25  C   UNL     1       5.736   4.663  16.132  0.00  0.00    +0.000 C 
BRANCH  25  26
ATOM     26  C   UNL     1       7.049   4.704  16.955  0.00  0.00    +0.000 C 
BRANCH  26  27
ATOM     27  C   UNL     1       7.435   6.083  17.388  0.00  0.00    +0.000 A 
ATOM     28  N   UNL     1       7.418   7.173  16.646  0.00  0.00    +0.000 NA
ATOM     29  N   UNL     1       7.892   8.219  17.396  0.00  0.00    +0.000 NA
ATOM     30  C   UNL     1       8.187   7.751  18.591  0.00  0.00    +0.000 A 
ATOM     31  N   UNL     1       7.892   6.424  18.635  0.00  0.00    +0.000 N 
ATOM     32  C   UNL     1       8.030   5.569  19.787  0.00  0.00    +0.000 C 
ENDBRANCH  26  27
ENDBRANCH  25  26
ENDBRANCH  18  25
ENDBRANCH   1  22
TORSDOF 6
ENDMDL
MODEL 4
REMARK VINA RESULT:      -8.3      4.152     10.387
REMARK  Name = 
REMARK  8 active torsions:
REMARK  status: ('A' for Active; 'I' for Inactive)
REMARK    1  A    between atoms: C_1  and  C_2
REMARK    2  A    between atoms: C_2  and  C_3
REMARK    3  A    between atoms: C_2  and  C_10
REMARK    4  A    between atoms: C_3  and  C_4
REMARK    5  A    between atoms: N_8  and  C_9
REMARK    6  A    between atoms: C_14  and  N_15
REMARK    7  A    between atoms: C_16  and  C_18
REMARK    8  A    between atoms: C_24  and  C_25
REMARK                            x       y       z     vdW  Elec       q    Type
REMARK                         _______ _______ _______ _____ _____    ______ ____
ROOT
ATOM      1  N   UNL     1       2.040   6.555  18.841  0.00  0.00    +0.000 N 
ATOM      2  C   UNL     1       1.855   6.635  20.224  0.00  0.00    +0.000 C 
ATOM      3  O   UNL     1       2.130   5.757  21.039  0.00  0.00    +0.000 OA
ATOM      4  H   UNL     1       1.827   7.414  18.342  0.00  0.00    +0.000 HD
ENDROOT
BRANCH   2   5
ATOM      5  C   UNL     1       1.342   7.925  20.674  0.00  0.00    +0.000 A 
ATOM      6  N   UNL     1       0.775   8.122  21.850  0.00  0.00    +0.000 NA
ATOM      7  C   UNL     1       0.349   9.430  21.830  0.00  0.00    +0.000 A 
ATOM      8  C   UNL     1      -0.346  10.125  22.829  0.00  0.00    +0.000 A 
ATOM      9  C   UNL     1      -0.758  11.431  22.576  0.00  0.00    +0.000 A 
ATOM     10  C   UNL     1      -0.480  12.033  21.350  0.00  0.00    +0.000 A 
ATOM     11  C   UNL     1       0.242  11.381  20.325  0.00  0.00    +0.000 A 
ATOM     12  C   UNL     1       0.648  10.061  20.620  0.00  0.00    +0.000 A 
ATOM     13  N   UNL     1       1.340   9.089  19.929  0.00  0.00    +0.000 N 
ATOM     14  H   UNL     1       1.744   9.179  19.006  0.00  0.00    +0.000 HD
BRANCH  11  15
ATOM     15  C   UNL     1       0.438  12.016  18.976  0.00  0.00    +0.000 C 
ATOM     16  C   UNL     1       0.705  13.511  18.917  0.00  0.00    +0.000 C 
ATOM     17  C   UNL     1       1.759  12.543  18.481  0.00  0.00    +0.000 C 
ENDBRANCH  11  15
ENDBRANCH   2   5
BRANCH   1  22
ATOM     18  C   UNL     1       4.448   4.585  16.721  0.00  0.00    +0.000 A 
ATOM     19  C   UNL     1       3.811   3.337  16.732  0.00  0.00    +0.000 A 
ATOM     20  C   UNL     1       2.590   3.161  17.380  0.00  0.00    +0.000 A 
ATOM     21  C   UNL     1       1.992   4.220  18.061  0.00  0.00    +0.000 A 
ATOM     22  C   UNL     1       2.597   5.474  18.107  0.00  0.00    +0.000 A 
ATOM     23  C   UNL     1       3.810   5.657  17.402  0.00  0.00    +0.000 A 
BRANCH  18  25
ATOM     24  C   UNL     1       6.061   3.767  14.868  0.00  0.00    +0.000 C 
ATOM     25  C   UNL     1       5.796   4.789  15.998  0.00  0.00    +0.000 C 
BRANCH  25  26
ATOM     26  C   UNL     1       6.964   4.779  17.017  0.00  0.00    +0.000 C 
BRANCH  26  27
ATOM     27  C   UNL     1       7.402   6.148  17.431  0.00  0.00    +0.000 A 
ATOM     28  N   UNL     1       7.382   7.238  16.688  0.00  0.00    +0.000 NA
ATOM     29  N   UNL     1       7.913   8.273  17.416  0.00  0.00    +0.000 NA
ATOM     30  C   UNL     1       8.246   7.798  18.598  0.00  0.00    +0.000 A 
ATOM     31  N   UNL     1       7.920   6.479  18.657  0.00  0.00    +0.000 N 
ATOM     32  C   UNL     1       8.086   5.622  19.803  0.00  0.00    +0.000 C 
ENDBRANCH  26  27
ENDBRANCH  25  26
ENDBRANCH  18  25
ENDBRANCH   1  22
TORSDOF 6
ENDMDL
MODEL 5
REMARK VINA RESULT:      -8.3      3.556     10.291
REMARK  Name = 
REMARK  8 active torsions:
REMARK  status: ('A' for Active; 'I' for Inactive)
REMARK    1  A    between atoms: C_1  and  C_2
REMARK    2  A    between atoms: C_2  and  C_3
REMARK    3  A    between atoms: C_2  and  C_10
REMARK    4  A    between atoms: C_3  and  C_4
REMARK    5  A    between atoms: N_8  and  C_9
REMARK    6  A    between atoms: C_14  and  N_15
REMARK    7  A    between atoms: C_16  and  C_18
REMARK    8  A    between atoms: C_24  and  C_25
REMARK                            x       y       z     vdW  Elec       q    Type
REMARK                         _______ _______ _______ _____ _____    ______ ____
ROOT
ATOM      1  N   UNL     1       2.348   6.425  19.058  0.00  0.00    +0.000 N 
ATOM      2  C   UNL     1       2.390   7.799  18.803  0.00  0.00    +0.000 C 
ATOM      3  O   UNL     1       2.954   8.337  17.852  0.00  0.00    +0.000 OA
ATOM      4  H   UNL     1       1.764   6.167  19.849  0.00  0.00    +0.000 HD
ENDROOT
BRANCH   2   5
ATOM      5  C   UNL     1       1.627   8.598  19.756  0.00  0.00    +0.000 A 
ATOM      6  N   UNL     1       1.503   8.296  21.035  0.00  0.00    +0.000 NA
ATOM      7  C   UNL     1       0.634   9.234  21.544  0.00  0.00    +0.000 A 
ATOM      8  C   UNL     1       0.146   9.335  22.853  0.00  0.00    +0.000 A 
ATOM      9  C   UNL     1      -0.797  10.318  23.145  0.00  0.00    +0.000 A 
ATOM     10  C   UNL     1      -1.241  11.185  22.149  0.00  0.00    +0.000 A 
ATOM     11  C   UNL     1      -0.757  11.139  20.822  0.00  0.00    +0.000 A 
ATOM     12  C   UNL     1       0.202  10.133  20.567  0.00  0.00    +0.000 A 
ATOM     13  N   UNL     1       0.907   9.737  19.450  0.00  0.00    +0.000 N 
ATOM     14  H   UNL     1       0.875  10.166  18.535  0.00  0.00    +0.000 HD
BRANCH  11  15
ATOM     15  C   UNL     1      -1.329  12.018  19.745  0.00  0.00    +0.000 C 
ATOM     16  C   UNL     1      -1.270  13.524  19.939  0.00  0.00    +0.000 C 
ATOM     17  C   UNL     1      -0.495  12.879  18.834  0.00  0.00    +0.000 C 
ENDBRANCH  11  15
ENDBRANCH   2   5
BRANCH   1  22
ATOM     18  C   UNL     1       4.581   4.670  16.587  0.00  0.00    +0.000 A 
ATOM     19  C   UNL     1       4.157   3.348  16.778  0.00  0.00    +0.000 A 
ATOM     20  C   UNL     1       3.123   3.048  17.664  0.00  0.00    +0.000 A 
ATOM     21  C   UNL     1       2.511   4.057  18.404  0.00  0.00    +0.000 A 
ATOM     22  C   UNL     1       2.914   5.385  18.275  0.00  0.00    +0.000 A 
ATOM     23  C   UNL     1       3.927   5.686  17.335  0.00  0.00    +0.000 A 
BRANCH  18  25
ATOM     24  C   UNL     1       5.542   4.382  14.201  0.00  0.00    +0.000 C 
ATOM     25  C   UNL     1       5.719   5.011  15.602  0.00  0.00    +0.000 C 
BRANCH  25  26
ATOM     26  C   UNL     1       7.091   4.612  16.201  0.00  0.00    +0.000 C 
BRANCH  26  27
ATOM     27  C   UNL     1       7.291   5.098  17.602  0.00  0.00    +0.000 A 
ATOM     28  N   UNL     1       7.260   4.367  18.699  0.00  0.00    +0.000 NA
ATOM     29  N   UNL     1       7.436   5.194  19.780  0.00  0.00    +0.000 NA
ATOM     30  C   UNL     1       7.577   6.421  19.323  0.00  0.00    +0.000 A 
ATOM     31  N   UNL     1       7.518   6.400  17.965  0.00  0.00    +0.000 N 
ATOM     32  C   UNL     1       7.678   7.541  17.098  0.00  0.00    +0.000 C 
ENDBRANCH  26  27
ENDBRANCH  25  26
ENDBRANCH  18  25
ENDBRANCH   1  22
TORSDOF 6
ENDMDL
MODEL 6
REMARK VINA RESULT:      -8.3      3.056     10.460
REMARK  Name = 
REMARK  8 active torsions:
REMARK  status: ('A' for Active; 'I' for Inactive)
REMARK    1  A    between atoms: C_1  and  C_2
REMARK    2  A    between atoms: C_2  and  C_3
REMARK    3  A    between atoms: C_2  and  C_10
REMARK    4  A    between atoms: C_3  and  C_4
REMARK    5  A    between atoms: N_8  and  C_9
REMARK    6  A    between atoms: C_14  and  N_15
REMARK    7  A    between atoms: C_16  and  C_18
REMARK    8  A    between atoms: C_24  and  C_25
REMARK                            x       y       z     vdW  Elec       q    Type
REMARK                         _______ _______ _______ _____ _____    ______ ____
ROOT
ATOM      1  N   UNL     1       2.260   7.466  19.084  0.00  0.00    +0.000 N 
ATOM      2  C   UNL     1       2.143   8.438  18.086  0.00  0.00    +0.000 C 
ATOM      3  O   UNL     1       2.830   8.512  17.070  0.00  0.00    +0.000 OA
ATOM      4  H   UNL     1       1.549   7.523  19.807  0.00  0.00    +0.000 HD
ENDROOT
BRANCH   2   5
ATOM      5  C   UNL     1       1.049   9.378  18.308  0.00  0.00    +0.000 A 
ATOM      6  N   UNL     1       1.023  10.259  19.291  0.00  0.00    +0.000 NA
ATOM      7  C   UNL     1      -0.209  10.864  19.201  0.00  0.00    +0.000 A 
ATOM      8  C   UNL     1      -0.747  11.851  20.037  0.00  0.00    +0.000 A 
ATOM      9  C   UNL     1      -2.055  12.276  19.819  0.00  0.00    +0.000 A 
ATOM     10  C   UNL     1      -2.811  11.728  18.784  0.00  0.00    +0.000 A 
ATOM     11  C   UNL     1      -2.301  10.751  17.899  0.00  0.00    +0.000 A 
ATOM     12  C   UNL     1      -0.969  10.350  18.148  0.00  0.00    +0.000 A 
ATOM     13  N   UNL     1      -0.110   9.447  17.559  0.00  0.00    +0.000 N 
ATOM     14  H   UNL     1      -0.299   8.882  16.741  0.00  0.00    +0.000 HD
BRANCH  11  15
ATOM     15  C   UNL     1      -3.171  10.103  16.858  0.00  0.00    +0.000 C 
ATOM     16  C   UNL     1      -3.726  10.973  15.742  0.00  0.00    +0.000 C 
ATOM     17  C   UNL     1      -2.749   9.885  15.429  0.00  0.00    +0.000 C 
ENDBRANCH  11  15
ENDBRANCH   2   5
BRANCH   1  22
ATOM     18  C   UNL     1       5.454   5.499  18.758  0.00  0.00    +0.000 A 
ATOM     19  C   UNL     1       5.030   4.267  19.272  0.00  0.00    +0.000 A 
ATOM     20  C   UNL     1       3.708   4.072  19.669  0.00  0.00    +0.000 A 
ATOM     21  C   UNL     1       2.787   5.115  19.594  0.00  0.00    +0.000 A 
ATOM     22  C   UNL     1       3.163   6.370  19.118  0.00  0.00    +0.000 A 
ATOM     23  C   UNL     1       4.492   6.542  18.668  0.00  0.00    +0.000 A 
BRANCH  18  25
ATOM     24  C   UNL     1       7.141   7.049  17.552  0.00  0.00    +0.000 C 
ATOM     25  C   UNL     1       6.914   5.719  18.308  0.00  0.00    +0.000 C 
BRANCH  25  26
ATOM     26  C   UNL     1       7.402   4.523  17.451  0.00  0.00    +0.000 C 
BRANCH  26  27
ATOM     27  C   UNL     1       7.004   4.623  16.013  0.00  0.00    +0.000 A 
ATOM     28  N   UNL     1       7.665   5.243  15.055  0.00  0.00    +0.000 NA
ATOM     29  N   UNL     1       6.943   5.148  13.893  0.00  0.00    +0.000 NA
ATOM     30  C   UNL     1       5.849   4.464  14.159  0.00  0.00    +0.000 A 
ATOM     31  N   UNL     1       5.861   4.096  15.468  0.00  0.00    +0.000 N 
ATOM     32  C   UNL     1       4.859   3.295  16.126  0.00  0.00    +0.000 C 
ENDBRANCH  26  27
ENDBRANCH  25  26
ENDBRANCH  18  25
ENDBRANCH   1  22
TORSDOF 6
ENDMDL
MODEL 7
REMARK VINA RESULT:      -8.2      3.819     10.378
REMARK  Name = 
REMARK  8 active torsions:
REMARK  status: ('A' for Active; 'I' for Inactive)
REMARK    1  A    between atoms: C_1  and  C_2
REMARK    2  A    between atoms: C_2  and  C_3
REMARK    3  A    between atoms: C_2  and  C_10
REMARK    4  A    between atoms: C_3  and  C_4
REMARK    5  A    between atoms: N_8  and  C_9
REMARK    6  A    between atoms: C_14  and  N_15
REMARK    7  A    between atoms: C_16  and  C_18
REMARK    8  A    between atoms: C_24  and  C_25
REMARK                            x       y       z     vdW  Elec       q    Type
REMARK                         _______ _______ _______ _____ _____    ______ ____
ROOT
ATOM      1  N   UNL     1       2.403   6.523  18.977  0.00  0.00    +0.000 N 
ATOM      2  C   UNL     1       1.863   6.494  20.266  0.00  0.00    +0.000 C 
ATOM      3  O   UNL     1       1.863   5.526  21.024  0.00  0.00    +0.000 OA
ATOM      4  H   UNL     1       2.380   7.439  18.536  0.00  0.00    +0.000 HD
ENDROOT
BRANCH   2   5
ATOM      5  C   UNL     1       1.325   7.776  20.707  0.00  0.00    +0.000 A 
ATOM      6  N   UNL     1       0.916   8.019  21.938  0.00  0.00    +0.000 NA
ATOM      7  C   UNL     1       0.396   9.292  21.901  0.00  0.00    +0.000 A 
ATOM      8  C   UNL     1      -0.201  10.009  22.946  0.00  0.00    +0.000 A 
ATOM      9  C   UNL     1      -0.741  11.265  22.678  0.00  0.00    +0.000 A 
ATOM     10  C   UNL     1      -0.684  11.795  21.390  0.00  0.00    +0.000 A 
ATOM     11  C   UNL     1      -0.068  11.120  20.311  0.00  0.00    +0.000 A 
ATOM     12  C   UNL     1       0.473   9.853  20.625  0.00  0.00    +0.000 A 
ATOM     13  N   UNL     1       1.131   8.882  19.900  0.00  0.00    +0.000 N 
ATOM     14  H   UNL     1       1.392   8.933  18.924  0.00  0.00    +0.000 HD
BRANCH  11  15
ATOM     15  C   UNL     1      -0.113  11.669  18.912  0.00  0.00    +0.000 C 
ATOM     16  C   UNL     1      -1.303  11.311  18.037  0.00  0.00    +0.000 C 
ATOM     17  C   UNL     1      -1.080  12.729  18.457  0.00  0.00    +0.000 C 
ENDBRANCH  11  15
ENDBRANCH   2   5
BRANCH   1  22
ATOM     18  C   UNL     1       4.741   4.760  16.610  0.00  0.00    +0.000 A 
ATOM     19  C   UNL     1       4.515   3.432  16.996  0.00  0.00    +0.000 A 
ATOM     20  C   UNL     1       3.578   3.121  17.979  0.00  0.00    +0.000 A 
ATOM     21  C   UNL     1       2.867   4.131  18.623  0.00  0.00    +0.000 A 
ATOM     22  C   UNL     1       3.072   5.470  18.298  0.00  0.00    +0.000 A 
ATOM     23  C   UNL     1       3.987   5.773  17.263  0.00  0.00    +0.000 A 
BRANCH  18  25
ATOM     24  C   UNL     1       5.472   4.465  14.144  0.00  0.00    +0.000 C 
ATOM     25  C   UNL     1       5.771   5.113  15.517  0.00  0.00    +0.000 C 
BRANCH  25  26
ATOM     26  C   UNL     1       7.203   4.747  15.984  0.00  0.00    +0.000 C 
BRANCH  26  27
ATOM     27  C   UNL     1       7.494   5.170  17.389  0.00  0.00    +0.000 A 
ATOM     28  N   UNL     1       7.692   4.376  18.423  0.00  0.00    +0.000 NA
ATOM     29  N   UNL     1       7.875   5.153  19.540  0.00  0.00    +0.000 NA
ATOM     30  C   UNL     1       7.792   6.413  19.167  0.00  0.00    +0.000 A 
ATOM     31  N   UNL     1       7.579   6.467  17.825  0.00  0.00    +0.000 N 
ATOM     32  C   UNL     1       7.479   7.670  17.037  0.00  0.00    +0.000 C 
ENDBRANCH  26  27
ENDBRANCH  25  26
ENDBRANCH  18  25
ENDBRANCH   1  22
TORSDOF 6
ENDMDL
MODEL 8
REMARK VINA RESULT:      -8.2      2.010      3.091
REMARK  Name = 
REMARK  8 active torsions:
REMARK  status: ('A' for Active; 'I' for Inactive)
REMARK    1  A    between atoms: C_1  and  C_2
REMARK    2  A    between atoms: C_2  and  C_3
REMARK    3  A    between atoms: C_2  and  C_10
REMARK    4  A    between atoms: C_3  and  C_4
REMARK    5  A    between atoms: N_8  and  C_9
REMARK    6  A    between atoms: C_14  and  N_15
REMARK    7  A    between atoms: C_16  and  C_18
REMARK    8  A    between atoms: C_24  and  C_25
REMARK                            x       y       z     vdW  Elec       q    Type
REMARK                         _______ _______ _______ _____ _____    ______ ____
ROOT
ATOM      1  N   UNL     1       0.626   9.204  19.019  0.00  0.00    +0.000 N 
ATOM      2  C   UNL     1       1.770   9.114  18.220  0.00  0.00    +0.000 C 
ATOM      3  O   UNL     1       2.183   9.982  17.454  0.00  0.00    +0.000 OA
ATOM      4  H   UNL     1       0.493   8.416  19.647  0.00  0.00    +0.000 HD
ENDROOT
BRANCH   2   5
ATOM      5  C   UNL     1       2.523   7.879  18.410  0.00  0.00    +0.000 A 
ATOM      6  N   UNL     1       3.446   7.443  17.572  0.00  0.00    +0.000 NA
ATOM      7  C   UNL     1       3.827   6.215  18.062  0.00  0.00    +0.000 A 
ATOM      8  C   UNL     1       4.758   5.322  17.517  0.00  0.00    +0.000 A 
ATOM      9  C   UNL     1       4.941   4.084  18.131  0.00  0.00    +0.000 A 
ATOM     10  C   UNL     1       4.209   3.747  19.268  0.00  0.00    +0.000 A 
ATOM     11  C   UNL     1       3.280   4.626  19.868  0.00  0.00    +0.000 A 
ATOM     12  C   UNL     1       3.126   5.873  19.221  0.00  0.00    +0.000 A 
ATOM     13  N   UNL     1       2.348   6.987  19.452  0.00  0.00    +0.000 N 
ATOM     14  H   UNL     1       1.710   7.126  20.224  0.00  0.00    +0.000 HD
BRANCH  11  15
ATOM     15  C   UNL     1       2.430   4.197  21.033  0.00  0.00    +0.000 C 
ATOM     16  C   UNL     1       1.131   3.464  20.743  0.00  0.00    +0.000 C 
ATOM     17  C   UNL     1       2.246   2.763  21.453  0.00  0.00    +0.000 C 
ENDBRANCH  11  15
ENDBRANCH   2   5
BRANCH   1  22
ATOM     18  C   UNL     1      -0.973  12.347  20.339  0.00  0.00    +0.000 A 
ATOM     19  C   UNL     1      -1.925  12.570  19.336  0.00  0.00    +0.000 A 
ATOM     20  C   UNL     1      -2.071  11.679  18.275  0.00  0.00    +0.000 A 
ATOM     21  C   UNL     1      -1.247  10.560  18.173  0.00  0.00    +0.000 A 
ATOM     22  C   UNL     1      -0.265  10.305  19.127  0.00  0.00    +0.000 A 
ATOM     23  C   UNL     1      -0.159  11.186  20.228  0.00  0.00    +0.000 A 
BRANCH  18  25
ATOM     24  C   UNL     1       0.597  13.956  21.622  0.00  0.00    +0.000 C 
ATOM     25  C   UNL     1      -0.811  13.324  21.522  0.00  0.00    +0.000 C 
BRANCH  25  26
ATOM     26  C   UNL     1      -1.184  12.628  22.855  0.00  0.00    +0.000 C 
BRANCH  26  27
ATOM     27  C   UNL     1      -2.605  12.854  23.265  0.00  0.00    +0.000 A 
ATOM     28  N   UNL     1      -3.653  12.146  22.891  0.00  0.00    +0.000 NA
ATOM     29  N   UNL     1      -4.778  12.707  23.442  0.00  0.00    +0.000 NA
ATOM     30  C   UNL     1      -4.397  13.750  24.150  0.00  0.00    +0.000 A 
ATOM     31  N   UNL     1      -3.043  13.862  24.085  0.00  0.00    +0.000 N 
ATOM     32  C   UNL     1      -2.247  14.850  24.769  0.00  0.00    +0.000 C 
ENDBRANCH  26  27
ENDBRANCH  25  26
ENDBRANCH  18  25
ENDBRANCH   1  22
TORSDOF 6
ENDMDL
MODEL 9
REMARK VINA RESULT:      -8.2      1.853      2.510
REMARK  Name = 
REMARK  8 active torsions:
REMARK  status: ('A' for Active; 'I' for Inactive)
REMARK    1  A    between atoms: C_1  and  C_2
REMARK    2  A    between atoms: C_2  and  C_3
REMARK    3  A    between atoms: C_2  and  C_10
REMARK    4  A    between atoms: C_3  and  C_4
REMARK    5  A    between atoms: N_8  and  C_9
REMARK    6  A    between atoms: C_14  and  N_15
REMARK    7  A    between atoms: C_16  and  C_18
REMARK    8  A    between atoms: C_24  and  C_25
REMARK                            x       y       z     vdW  Elec       q    Type
REMARK                         _______ _______ _______ _____ _____    ______ ____
ROOT
ATOM      1  N   UNL     1       1.611   9.185  18.603  0.00  0.00    +0.000 N 
ATOM      2  C   UNL     1       1.816   8.257  19.628  0.00  0.00    +0.000 C 
ATOM      3  O   UNL     1       1.472   8.393  20.800  0.00  0.00    +0.000 OA
ATOM      4  H   UNL     1       1.894   8.859  17.683  0.00  0.00    +0.000 HD
ENDROOT
BRANCH   2   5
ATOM      5  C   UNL     1       2.444   7.018  19.182  0.00  0.00    +0.000 A 
ATOM      6  N   UNL     1       3.238   6.933  18.131  0.00  0.00    +0.000 NA
ATOM      7  C   UNL     1       3.526   5.593  18.004  0.00  0.00    +0.000 A 
ATOM      8  C   UNL     1       4.304   4.969  17.021  0.00  0.00    +0.000 A 
ATOM      9  C   UNL     1       4.405   3.580  17.025  0.00  0.00    +0.000 A 
ATOM     10  C   UNL     1       3.744   2.829  17.996  0.00  0.00    +0.000 A 
ATOM     11  C   UNL     1       2.971   3.416  19.023  0.00  0.00    +0.000 A 
ATOM     12  C   UNL     1       2.897   4.827  18.988  0.00  0.00    +0.000 A 
ATOM     13  N   UNL     1       2.266   5.777  19.763  0.00  0.00    +0.000 N 
ATOM     14  H   UNL     1       1.717   5.607  20.595  0.00  0.00    +0.000 HD
BRANCH  11  15
ATOM     15  C   UNL     1       2.186   2.578  19.993  0.00  0.00    +0.000 C 
ATOM     16  C   UNL     1       2.572   2.627  21.462  0.00  0.00    +0.000 C 
ATOM     17  C   UNL     1       1.241   3.146  21.019  0.00  0.00    +0.000 C 
ENDBRANCH  11  15
ENDBRANCH   2   5
BRANCH   1  22
ATOM     18  C   UNL     1      -1.123  11.719  19.132  0.00  0.00    +0.000 A 
ATOM     19  C   UNL     1      -0.381  12.901  19.005  0.00  0.00    +0.000 A 
ATOM     20  C   UNL     1       0.978  12.865  18.702  0.00  0.00    +0.000 A 
ATOM     21  C   UNL     1       1.637  11.647  18.551  0.00  0.00    +0.000 A 
ATOM     22  C   UNL     1       0.954  10.441  18.695  0.00  0.00    +0.000 A 
ATOM     23  C   UNL     1      -0.436  10.487  18.950  0.00  0.00    +0.000 A 
BRANCH  18  25
ATOM     24  C   UNL     1      -3.542  11.649  18.214  0.00  0.00    +0.000 C 
ATOM     25  C   UNL     1      -2.631  11.751  19.459  0.00  0.00    +0.000 C 
BRANCH  25  26
ATOM     26  C   UNL     1      -2.980  13.019  20.279  0.00  0.00    +0.000 C 
BRANCH  26  27
ATOM     27  C   UNL     1      -3.454  12.716  21.665  0.00  0.00    +0.000 A 
ATOM     28  N   UNL     1      -4.703  12.530  22.046  0.00  0.00    +0.000 NA
ATOM     29  N   UNL     1      -4.720  12.330  23.404  0.00  0.00    +0.000 NA
ATOM     30  C   UNL     1      -3.476  12.392  23.831  0.00  0.00    +0.000 A 
ATOM     31  N   UNL     1      -2.651  12.607  22.771  0.00  0.00    +0.000 N 
ATOM     32  C   UNL     1      -1.213  12.689  22.828  0.00  0.00    +0.000 C 
ENDBRANCH  26  27
ENDBRANCH  25  26
ENDBRANCH  18  25
ENDBRANCH   1  22
TORSDOF 6
ENDMDL
