MODEL 1
REMARK VINA RESULT:      -9.7      0.000      0.000
REMARK  Name = 
REMARK  11 active torsions:
REMARK  status: ('A' for Active; 'I' for Inactive)
REMARK    1  A    between atoms: C_1  and  O_2
REMARK    2  A    between atoms: O_2  and  C_3
REMARK    3  A    between atoms: N_5  and  C_6
REMARK    4  A    between atoms: C_6  and  C_7
REMARK    5  A    between atoms: C_11  and  C_12
REMARK    6  A    between atoms: N_18  and  C_19
REMARK    7  A    between atoms: C_23  and  C_24
REMARK    8  A    between atoms: C_24  and  C_25
REMARK    9  A    between atoms: C_24  and  C_27
REMARK   10  A    between atoms: C_27  and  C_30
REMARK   11  A    between atoms: N_34  and  C_35
REMARK                            x       y       z     vdW  Elec       q    Type
REMARK                         _______ _______ _______ _____ _____    ______ ____
ROOT
ATOM      1  C   UNL     1      -0.051  11.707  19.483  0.00  0.00    +0.000 A 
ATOM      2  C   UNL     1       0.769  10.928  18.661  0.00  0.00    +0.000 A 
ATOM      3  C   UNL     1       1.201   9.713  19.150  0.00  0.00    +0.000 A 
ATOM      4  C   UNL     1       0.884   9.243  20.418  0.00  0.00    +0.000 A 
ATOM      5  C   UNL     1       0.123  10.020  21.284  0.00  0.00    +0.000 A 
ATOM      6  C   UNL     1      -0.355  11.256  20.791  0.00  0.00    +0.000 A 
ATOM      7  C   UNL     1       1.464   7.873  20.587  0.00  0.00    +0.000 C 
ATOM      8  N   UNL     1       2.155   7.640  19.325  0.00  0.00    +0.000 N 
ATOM      9  C   UNL     1       2.025   8.723  18.460  0.00  0.00    +0.000 C 
ATOM     10  O   UNL     1       2.452   8.923  17.338  0.00  0.00    +0.000 OA
ENDROOT
BRANCH   8  11
ATOM     11  C   UNL     1       2.903   6.463  19.074  0.00  0.00    +0.000 A 
ATOM     12  C   UNL     1       2.897   5.400  19.979  0.00  0.00    +0.000 A 
ATOM     13  C   UNL     1       3.591   4.222  19.705  0.00  0.00    +0.000 A 
ATOM     14  C   UNL     1       4.330   4.103  18.536  0.00  0.00    +0.000 A 
ATOM     15  C   UNL     1       4.399   5.165  17.627  0.00  0.00    +0.000 A 
ATOM     16  C   UNL     1       3.659   6.333  17.901  0.00  0.00    +0.000 A 
BRANCH  15  17
ATOM     17  C   UNL     1       5.281   5.103  16.378  0.00  0.00    +0.000 C 
ATOM     18  C   UNL     1       4.910   3.859  15.559  0.00  0.00    +0.000 C 
ATOM     19  F   UNL     1       5.034   6.162  15.530  0.00  0.00    +0.000 F 
BRANCH  17  20
ATOM     20  C   UNL     1       6.802   5.099  16.715  0.00  0.00    +0.000 C 
ATOM     21  F   UNL     1       7.078   4.092  17.602  0.00  0.00    +0.000 F 
ATOM     22  F   UNL     1       7.507   4.753  15.591  0.00  0.00    +0.000 F 
BRANCH  20  23
ATOM     23  C   UNL     1       7.329   6.397  17.241  0.00  0.00    +0.000 A 
ATOM     24  N   UNL     1       7.423   7.557  16.615  0.00  0.00    +0.000 NA
ATOM     25  N   UNL     1       7.946   8.480  17.486  0.00  0.00    +0.000 NA
ATOM     26  C   UNL     1       8.176   7.868  18.622  0.00  0.00    +0.000 A 
ATOM     27  N   UNL     1       7.820   6.561  18.512  0.00  0.00    +0.000 N 
ATOM     28  C   UNL     1       7.960   5.559  19.535  0.00  0.00    +0.000 C 
ENDBRANCH  20  23
ENDBRANCH  17  20
ENDBRANCH  15  17
ENDBRANCH   8  11
BRANCH   5  29
ATOM     29  C   UNL     1      -0.184   9.598  22.699  0.00  0.00    +0.000 C 
ATOM     30  F   UNL     1      -0.934   8.464  22.776  0.00  0.00    +0.000 F 
ATOM     31  F   UNL     1       0.943   9.343  23.418  0.00  0.00    +0.000 F 
ATOM     32  F   UNL     1      -0.870  10.546  23.392  0.00  0.00    +0.000 F 
ENDBRANCH   5  29
BRANCH   1  33
ATOM     33  C   UNL     1      -0.595  13.014  18.944  0.00  0.00    +0.000 C 
BRANCH  33  36
ATOM     34  C   UNL     1       1.645  14.886  18.789  0.00  0.00    +0.000 C 
ATOM     35  C   UNL     1       1.274  14.119  20.075  0.00  0.00    +0.000 C 
ATOM     36  N   UNL     1      -0.161  14.188  19.712  0.00  0.00    +0.000 NA
ATOM     37  C   UNL     1       0.156  15.307  18.784  0.00  0.00    +0.000 C 
BRANCH  34  39
ATOM     38  C   UNL     1       3.478  16.110  17.782  0.00  0.00    +0.000 C 
ATOM     39  O   UNL     1       2.627  15.941  18.909  0.00  0.00    +0.000 OA
ENDBRANCH  34  39
ENDBRANCH  33  36
ENDBRANCH   1  33
TORSDOF 8
ENDMDL
MODEL 2
REMARK VINA RESULT:      -9.6      0.804      1.301
REMARK  Name = 
REMARK  11 active torsions:
REMARK  status: ('A' for Active; 'I' for Inactive)
REMARK    1  A    between atoms: C_1  and  O_2
REMARK    2  A    between atoms: O_2  and  C_3
REMARK    3  A    between atoms: N_5  and  C_6
REMARK    4  A    between atoms: C_6  and  C_7
REMARK    5  A    between atoms: C_11  and  C_12
REMARK    6  A    between atoms: N_18  and  C_19
REMARK    7  A    between atoms: C_23  and  C_24
REMARK    8  A    between atoms: C_24  and  C_25
REMARK    9  A    between atoms: C_24  and  C_27
REMARK   10  A    between atoms: C_27  and  C_30
REMARK   11  A    between atoms: N_34  and  C_35
REMARK                            x       y       z     vdW  Elec       q    Type
REMARK                         _______ _______ _______ _____ _____    ______ ____
ROOT
ATOM      1  C   UNL     1      -0.165  11.707  19.464  0.00  0.00    +0.000 A 
ATOM      2  C   UNL     1       0.661  10.955  18.623  0.00  0.00    +0.000 A 
ATOM      3  C   UNL     1       1.141   9.754  19.100  0.00  0.00    +0.000 A 
ATOM      4  C   UNL     1       0.865   9.272  20.373  0.00  0.00    +0.000 A 
ATOM      5  C   UNL     1       0.099  10.024  21.257  0.00  0.00    +0.000 A 
ATOM      6  C   UNL     1      -0.427  11.245  20.776  0.00  0.00    +0.000 A 
ATOM      7  C   UNL     1       1.491   7.921  20.527  0.00  0.00    +0.000 C 
ATOM      8  N   UNL     1       2.163   7.711  19.251  0.00  0.00    +0.000 N 
ATOM      9  C   UNL     1       1.981   8.791  18.391  0.00  0.00    +0.000 C 
ATOM     10  O   UNL     1       2.378   9.005  17.261  0.00  0.00    +0.000 OA
ENDROOT
BRANCH   8  11
ATOM     11  C   UNL     1       2.941   6.558  18.982  0.00  0.00    +0.000 A 
ATOM     12  C   UNL     1       2.971   5.485  19.875  0.00  0.00    +0.000 A 
ATOM     13  C   UNL     1       3.696   4.331  19.583  0.00  0.00    +0.000 A 
ATOM     14  C   UNL     1       4.430   4.245  18.408  0.00  0.00    +0.000 A 
ATOM     15  C   UNL     1       4.463   5.318  17.511  0.00  0.00    +0.000 A 
ATOM     16  C   UNL     1       3.692   6.462  17.802  0.00  0.00    +0.000 A 
BRANCH  15  17
ATOM     17  C   UNL     1       5.339   5.296  16.256  0.00  0.00    +0.000 C 
ATOM     18  C   UNL     1       4.951   4.085  15.393  0.00  0.00    +0.000 C 
ATOM     19  F   UNL     1       5.096   6.387  15.449  0.00  0.00    +0.000 F 
BRANCH  17  20
ATOM     20  C   UNL     1       6.860   5.265  16.584  0.00  0.00    +0.000 C 
ATOM     21  F   UNL     1       7.149   4.164  17.347  0.00  0.00    +0.000 F 
ATOM     22  F   UNL     1       7.563   5.058  15.424  0.00  0.00    +0.000 F 
BRANCH  20  23
ATOM     23  C   UNL     1       7.380   6.497  17.255  0.00  0.00    +0.000 A 
ATOM     24  N   UNL     1       7.462   7.723  16.768  0.00  0.00    +0.000 NA
ATOM     25  N   UNL     1       7.982   8.543  17.738  0.00  0.00    +0.000 NA
ATOM     26  C   UNL     1       8.222   7.806  18.794  0.00  0.00    +0.000 A 
ATOM     27  N   UNL     1       7.875   6.517  18.535  0.00  0.00    +0.000 N 
ATOM     28  C   UNL     1       8.029   5.404  19.434  0.00  0.00    +0.000 C 
ENDBRANCH  20  23
ENDBRANCH  17  20
ENDBRANCH  15  17
ENDBRANCH   8  11
BRANCH   5  29
ATOM     29  C   UNL     1      -0.165   9.590  22.676  0.00  0.00    +0.000 C 
ATOM     30  F   UNL     1       0.969   9.332  23.385  0.00  0.00    +0.000 F 
ATOM     31  F   UNL     1      -0.836  10.535  23.389  0.00  0.00    +0.000 F 
ATOM     32  F   UNL     1      -0.915   8.457  22.749  0.00  0.00    +0.000 F 
ENDBRANCH   5  29
BRANCH   1  33
ATOM     33  C   UNL     1      -0.760  12.997  18.938  0.00  0.00    +0.000 C 
BRANCH  33  36
ATOM     34  C   UNL     1       0.190  15.386  20.329  0.00  0.00    +0.000 C 
ATOM     35  C   UNL     1      -0.296  15.400  18.866  0.00  0.00    +0.000 C 
ATOM     36  N   UNL     1       0.243  14.034  18.665  0.00  0.00    +0.000 NA
ATOM     37  C   UNL     1       1.104  14.229  19.863  0.00  0.00    +0.000 C 
BRANCH  34  39
ATOM     38  C   UNL     1       0.089  17.338  21.762  0.00  0.00    +0.000 C 
ATOM     39  O   UNL     1       0.840  16.581  20.821  0.00  0.00    +0.000 OA
ENDBRANCH  34  39
ENDBRANCH  33  36
ENDBRANCH   1  33
TORSDOF 8
ENDMDL
MODEL 3
REMARK VINA RESULT:      -9.4      3.173      8.861
REMARK  Name = 
REMARK  11 active torsions:
REMARK  status: ('A' for Active; 'I' for Inactive)
REMARK    1  A    between atoms: C_1  and  O_2
REMARK    2  A    between atoms: O_2  and  C_3
REMARK    3  A    between atoms: N_5  and  C_6
REMARK    4  A    between atoms: C_6  and  C_7
REMARK    5  A    between atoms: C_11  and  C_12
REMARK    6  A    between atoms: N_18  and  C_19
REMARK    7  A    between atoms: C_23  and  C_24
REMARK    8  A    between atoms: C_24  and  C_25
REMARK    9  A    between atoms: C_24  and  C_27
REMARK   10  A    between atoms: C_27  and  C_30
REMARK   11  A    between atoms: N_34  and  C_35
REMARK                            x       y       z     vdW  Elec       q    Type
REMARK                         _______ _______ _______ _____ _____    ______ ____
ROOT
ATOM      1  C   UNL     1       4.011   4.720  17.953  0.00  0.00    +0.000 A 
ATOM      2  C   UNL     1       3.589   6.052  17.917  0.00  0.00    +0.000 A 
ATOM      3  C   UNL     1       2.747   6.486  18.919  0.00  0.00    +0.000 A 
ATOM      4  C   UNL     1       2.282   5.664  19.937  0.00  0.00    +0.000 A 
ATOM      5  C   UNL     1       2.631   4.319  19.967  0.00  0.00    +0.000 A 
ATOM      6  C   UNL     1       3.518   3.860  18.965  0.00  0.00    +0.000 A 
ATOM      7  C   UNL     1       1.447   6.478  20.876  0.00  0.00    +0.000 C 
ATOM      8  N   UNL     1       1.460   7.807  20.276  0.00  0.00    +0.000 N 
ATOM      9  C   UNL     1       2.215   7.834  19.105  0.00  0.00    +0.000 C 
ATOM     10  O   UNL     1       2.462   8.730  18.319  0.00  0.00    +0.000 OA
ENDROOT
BRANCH   8  11
ATOM     11  C   UNL     1       0.734   8.894  20.821  0.00  0.00    +0.000 A 
ATOM     12  C   UNL     1       0.659   9.090  22.201  0.00  0.00    +0.000 A 
ATOM     13  C   UNL     1      -0.012  10.190  22.733  0.00  0.00    +0.000 A 
ATOM     14  C   UNL     1      -0.647  11.094  21.893  0.00  0.00    +0.000 A 
ATOM     15  C   UNL     1      -0.634  10.906  20.506  0.00  0.00    +0.000 A 
ATOM     16  C   UNL     1       0.083   9.811  19.983  0.00  0.00    +0.000 A 
BRANCH  15  17
ATOM     17  C   UNL     1      -1.405  11.827  19.558  0.00  0.00    +0.000 C 
ATOM     18  C   UNL     1      -1.520  11.154  18.183  0.00  0.00    +0.000 C 
ATOM     19  F   UNL     1      -2.710  12.000  19.969  0.00  0.00    +0.000 F 
BRANCH  17  20
ATOM     20  C   UNL     1      -0.750  13.234  19.422  0.00  0.00    +0.000 C 
ATOM     21  F   UNL     1      -0.514  13.509  18.101  0.00  0.00    +0.000 F 
ATOM     22  F   UNL     1      -1.659  14.188  19.802  0.00  0.00    +0.000 F 
BRANCH  20  23
ATOM     23  C   UNL     1       0.507  13.417  20.212  0.00  0.00    +0.000 A 
ATOM     24  N   UNL     1       0.648  13.935  21.419  0.00  0.00    +0.000 NA
ATOM     25  N   UNL     1       1.977  13.887  21.762  0.00  0.00    +0.000 NA
ATOM     26  C   UNL     1       2.626  13.354  20.756  0.00  0.00    +0.000 A 
ATOM     27  N   UNL     1       1.751  13.058  19.758  0.00  0.00    +0.000 N 
ATOM     28  C   UNL     1       2.091  12.498  18.477  0.00  0.00    +0.000 C 
ENDBRANCH  20  23
ENDBRANCH  17  20
ENDBRANCH  15  17
ENDBRANCH   8  11
BRANCH   5  29
ATOM     29  C   UNL     1       2.093   3.361  20.999  0.00  0.00    +0.000 C 
ATOM     30  F   UNL     1       2.262   3.792  22.280  0.00  0.00    +0.000 F 
ATOM     31  F   UNL     1       0.757   3.146  20.858  0.00  0.00    +0.000 F 
ATOM     32  F   UNL     1       2.683   2.136  20.938  0.00  0.00    +0.000 F 
ENDBRANCH   5  29
BRANCH   1  33
ATOM     33  C   UNL     1       4.991   4.236  16.903  0.00  0.00    +0.000 C 
BRANCH  33  36
ATOM     34  C   UNL     1       6.584   4.678  14.493  0.00  0.00    +0.000 C 
ATOM     35  C   UNL     1       7.178   4.717  15.915  0.00  0.00    +0.000 C 
ATOM     36  N   UNL     1       5.912   5.281  16.439  0.00  0.00    +0.000 NA
ATOM     37  C   UNL     1       5.554   5.687  15.053  0.00  0.00    +0.000 C 
BRANCH  34  39
ATOM     38  C   UNL     1       7.293   4.415  12.190  0.00  0.00    +0.000 C 
ATOM     39  O   UNL     1       7.429   5.133  13.411  0.00  0.00    +0.000 OA
ENDBRANCH  34  39
ENDBRANCH  33  36
ENDBRANCH   1  33
TORSDOF 8
ENDMDL
MODEL 4
REMARK VINA RESULT:      -9.4      1.713      2.513
REMARK  Name = 
REMARK  11 active torsions:
REMARK  status: ('A' for Active; 'I' for Inactive)
REMARK    1  A    between atoms: C_1  and  O_2
REMARK    2  A    between atoms: O_2  and  C_3
REMARK    3  A    between atoms: N_5  and  C_6
REMARK    4  A    between atoms: C_6  and  C_7
REMARK    5  A    between atoms: C_11  and  C_12
REMARK    6  A    between atoms: N_18  and  C_19
REMARK    7  A    between atoms: C_23  and  C_24
REMARK    8  A    between atoms: C_24  and  C_25
REMARK    9  A    between atoms: C_24  and  C_27
REMARK   10  A    between atoms: C_27  and  C_30
REMARK   11  A    between atoms: N_34  and  C_35
REMARK                            x       y       z     vdW  Elec       q    Type
REMARK                         _______ _______ _______ _____ _____    ______ ____
ROOT
ATOM      1  C   UNL     1       0.423  11.820  19.471  0.00  0.00    +0.000 A 
ATOM      2  C   UNL     1       1.145  10.985  18.614  0.00  0.00    +0.000 A 
ATOM      3  C   UNL     1       1.419   9.704  19.045  0.00  0.00    +0.000 A 
ATOM      4  C   UNL     1       1.039   9.218  20.289  0.00  0.00    +0.000 A 
ATOM      5  C   UNL     1       0.375  10.043  21.191  0.00  0.00    +0.000 A 
ATOM      6  C   UNL     1       0.058  11.351  20.756  0.00  0.00    +0.000 A 
ATOM      7  C   UNL     1       1.443   7.781  20.394  0.00  0.00    +0.000 C 
ATOM      8  N   UNL     1       2.107   7.522  19.122  0.00  0.00    +0.000 N 
ATOM      9  C   UNL     1       2.118   8.652  18.309  0.00  0.00    +0.000 C 
ATOM     10  O   UNL     1       2.573   8.849  17.197  0.00  0.00    +0.000 OA
ENDROOT
BRANCH   8  11
ATOM     11  C   UNL     1       2.704   6.274  18.817  0.00  0.00    +0.000 A 
ATOM     12  C   UNL     1       2.124   5.076  19.238  0.00  0.00    +0.000 A 
ATOM     13  C   UNL     1       2.685   3.848  18.892  0.00  0.00    +0.000 A 
ATOM     14  C   UNL     1       3.855   3.800  18.145  0.00  0.00    +0.000 A 
ATOM     15  C   UNL     1       4.491   4.980  17.745  0.00  0.00    +0.000 A 
ATOM     16  C   UNL     1       3.889   6.212  18.069  0.00  0.00    +0.000 A 
BRANCH  15  17
ATOM     17  C   UNL     1       5.831   4.965  17.006  0.00  0.00    +0.000 C 
ATOM     18  C   UNL     1       6.315   6.409  16.808  0.00  0.00    +0.000 C 
ATOM     19  F   UNL     1       6.820   4.369  17.761  0.00  0.00    +0.000 F 
BRANCH  17  20
ATOM     20  C   UNL     1       5.756   4.224  15.638  0.00  0.00    +0.000 C 
ATOM     21  F   UNL     1       5.916   2.877  15.830  0.00  0.00    +0.000 F 
ATOM     22  F   UNL     1       4.484   4.339  15.138  0.00  0.00    +0.000 F 
BRANCH  20  23
ATOM     23  C   UNL     1       6.728   4.710  14.610  0.00  0.00    +0.000 A 
ATOM     24  N   UNL     1       7.739   5.547  14.768  0.00  0.00    +0.000 NA
ATOM     25  N   UNL     1       8.376   5.693  13.561  0.00  0.00    +0.000 NA
ATOM     26  C   UNL     1       7.739   4.956  12.684  0.00  0.00    +0.000 A 
ATOM     27  N   UNL     1       6.693   4.334  13.290  0.00  0.00    +0.000 N 
ATOM     28  C   UNL     1       5.736   3.473  12.648  0.00  0.00    +0.000 C 
ENDBRANCH  20  23
ENDBRANCH  17  20
ENDBRANCH  15  17
ENDBRANCH   8  11
BRANCH   5  29
ATOM     29  C   UNL     1       0.010   9.597  22.584  0.00  0.00    +0.000 C 
ATOM     30  F   UNL     1      -0.824   8.521  22.608  0.00  0.00    +0.000 F 
ATOM     31  F   UNL     1       1.100   9.233  23.313  0.00  0.00    +0.000 F 
ATOM     32  F   UNL     1      -0.616  10.570  23.300  0.00  0.00    +0.000 F 
ENDBRANCH   5  29
BRANCH   1  33
ATOM     33  C   UNL     1       0.049  13.209  18.993  0.00  0.00    +0.000 C 
BRANCH  33  36
ATOM     34  C   UNL     1       0.674  15.952  19.786  0.00  0.00    +0.000 C 
ATOM     35  C   UNL     1       0.775  14.752  20.749  0.00  0.00    +0.000 C 
ATOM     36  N   UNL     1      -0.376  14.104  20.078  0.00  0.00    +0.000 NA
ATOM     37  C   UNL     1      -0.756  15.428  19.516  0.00  0.00    +0.000 C 
BRANCH  34  39
ATOM     38  C   UNL     1       1.343  18.264  19.502  0.00  0.00    +0.000 C 
ATOM     39  O   UNL     1       0.793  17.274  20.362  0.00  0.00    +0.000 OA
ENDBRANCH  34  39
ENDBRANCH  33  36
ENDBRANCH   1  33
TORSDOF 8
ENDMDL
MODEL 5
REMARK VINA RESULT:      -9.2      3.068      8.977
REMARK  Name = 
REMARK  11 active torsions:
REMARK  status: ('A' for Active; 'I' for Inactive)
REMARK    1  A    between atoms: C_1  and  O_2
REMARK    2  A    between atoms: O_2  and  C_3
REMARK    3  A    between atoms: N_5  and  C_6
REMARK    4  A    between atoms: C_6  and  C_7
REMARK    5  A    between atoms: C_11  and  C_12
REMARK    6  A    between atoms: N_18  and  C_19
REMARK    7  A    between atoms: C_23  and  C_24
REMARK    8  A    between atoms: C_24  and  C_25
REMARK    9  A    between atoms: C_24  and  C_27
REMARK   10  A    between atoms: C_27  and  C_30
REMARK   11  A    between atoms: N_34  and  C_35
REMARK                            x       y       z     vdW  Elec       q    Type
REMARK                         _______ _______ _______ _____ _____    ______ ____
ROOT
ATOM      1  C   UNL     1       3.844   4.803  17.876  0.00  0.00    +0.000 A 
ATOM      2  C   UNL     1       3.442   6.141  17.854  0.00  0.00    +0.000 A 
ATOM      3  C   UNL     1       2.653   6.593  18.890  0.00  0.00    +0.000 A 
ATOM      4  C   UNL     1       2.223   5.783  19.933  0.00  0.00    +0.000 A 
ATOM      5  C   UNL     1       2.552   4.432  19.952  0.00  0.00    +0.000 A 
ATOM      6  C   UNL     1       3.385   3.956  18.914  0.00  0.00    +0.000 A 
ATOM      7  C   UNL     1       1.444   6.614  20.904  0.00  0.00    +0.000 C 
ATOM      8  N   UNL     1       1.451   7.939  20.299  0.00  0.00    +0.000 N 
ATOM      9  C   UNL     1       2.151   7.950  19.095  0.00  0.00    +0.000 C 
ATOM     10  O   UNL     1       2.377   8.839  18.294  0.00  0.00    +0.000 OA
ENDROOT
BRANCH   8  11
ATOM     11  C   UNL     1       0.768   9.040  20.872  0.00  0.00    +0.000 A 
ATOM     12  C   UNL     1       0.306   8.995  22.188  0.00  0.00    +0.000 A 
ATOM     13  C   UNL     1      -0.319  10.099  22.766  0.00  0.00    +0.000 A 
ATOM     14  C   UNL     1      -0.522  11.255  22.024  0.00  0.00    +0.000 A 
ATOM     15  C   UNL     1      -0.116  11.321  20.686  0.00  0.00    +0.000 A 
ATOM     16  C   UNL     1       0.550  10.211  20.130  0.00  0.00    +0.000 A 
BRANCH  15  17
ATOM     17  C   UNL     1      -0.412  12.542  19.812  0.00  0.00    +0.000 C 
ATOM     18  C   UNL     1      -1.183  12.092  18.562  0.00  0.00    +0.000 C 
ATOM     19  F   UNL     1      -1.262  13.425  20.444  0.00  0.00    +0.000 F 
BRANCH  17  20
ATOM     20  C   UNL     1       0.876  13.317  19.406  0.00  0.00    +0.000 C 
ATOM     21  F   UNL     1       1.806  13.228  20.408  0.00  0.00    +0.000 F 
ATOM     22  F   UNL     1       1.468  12.677  18.346  0.00  0.00    +0.000 F 
BRANCH  20  23
ATOM     23  C   UNL     1       0.654  14.752  19.045  0.00  0.00    +0.000 A 
ATOM     24  N   UNL     1      -0.488  15.413  18.978  0.00  0.00    +0.000 NA
ATOM     25  N   UNL     1      -0.219  16.713  18.628  0.00  0.00    +0.000 NA
ATOM     26  C   UNL     1       1.079  16.822  18.475  0.00  0.00    +0.000 A 
ATOM     27  N   UNL     1       1.665  15.618  18.711  0.00  0.00    +0.000 N 
ATOM     28  C   UNL     1       3.070  15.329  18.603  0.00  0.00    +0.000 C 
ENDBRANCH  20  23
ENDBRANCH  17  20
ENDBRANCH  15  17
ENDBRANCH   8  11
BRANCH   5  29
ATOM     29  C   UNL     1       2.046   3.487  21.013  0.00  0.00    +0.000 C 
ATOM     30  F   UNL     1       0.689   3.371  21.034  0.00  0.00    +0.000 F 
ATOM     31  F   UNL     1       2.520   2.222  20.847  0.00  0.00    +0.000 F 
ATOM     32  F   UNL     1       2.406   3.866  22.269  0.00  0.00    +0.000 F 
ENDBRANCH   5  29
BRANCH   1  33
ATOM     33  C   UNL     1       4.767   4.299  16.785  0.00  0.00    +0.000 C 
BRANCH  33  36
ATOM     34  C   UNL     1       6.528   4.672  14.482  0.00  0.00    +0.000 C 
ATOM     35  C   UNL     1       7.044   4.588  15.933  0.00  0.00    +0.000 C 
ATOM     36  N   UNL     1       5.816   5.260  16.418  0.00  0.00    +0.000 NA
ATOM     37  C   UNL     1       5.578   5.760  15.037  0.00  0.00    +0.000 C 
BRANCH  34  39
ATOM     38  C   UNL     1       7.290   4.484  12.189  0.00  0.00    +0.000 C 
ATOM     39  O   UNL     1       7.474   5.081  13.467  0.00  0.00    +0.000 OA
ENDBRANCH  34  39
ENDBRANCH  33  36
ENDBRANCH   1  33
TORSDOF 8
ENDMDL
MODEL 6
REMARK VINA RESULT:      -9.2      3.318      9.294
REMARK  Name = 
REMARK  11 active torsions:
REMARK  status: ('A' for Active; 'I' for Inactive)
REMARK    1  A    between atoms: C_1  and  O_2
REMARK    2  A    between atoms: O_2  and  C_3
REMARK    3  A    between atoms: N_5  and  C_6
REMARK    4  A    between atoms: C_6  and  C_7
REMARK    5  A    between atoms: C_11  and  C_12
REMARK    6  A    between atoms: N_18  and  C_19
REMARK    7  A    between atoms: C_23  and  C_24
REMARK    8  A    between atoms: C_24  and  C_25
REMARK    9  A    between atoms: C_24  and  C_27
REMARK   10  A    between atoms: C_27  and  C_30
REMARK   11  A    between atoms: N_34  and  C_35
REMARK                            x       y       z     vdW  Elec       q    Type
REMARK                         _______ _______ _______ _____ _____    ______ ____
ROOT
ATOM      1  C   UNL     1       3.843   4.555  17.718  0.00  0.00    +0.000 A 
ATOM      2  C   UNL     1       3.462   5.898  17.781  0.00  0.00    +0.000 A 
ATOM      3  C   UNL     1       2.680   6.295  18.844  0.00  0.00    +0.000 A 
ATOM      4  C   UNL     1       2.235   5.427  19.833  0.00  0.00    +0.000 A 
ATOM      5  C   UNL     1       2.543   4.072  19.766  0.00  0.00    +0.000 A 
ATOM      6  C   UNL     1       3.370   3.651  18.699  0.00  0.00    +0.000 A 
ATOM      7  C   UNL     1       1.469   6.206  20.856  0.00  0.00    +0.000 C 
ATOM      8  N   UNL     1       1.497   7.567  20.336  0.00  0.00    +0.000 N 
ATOM      9  C   UNL     1       2.198   7.644  19.135  0.00  0.00    +0.000 C 
ATOM     10  O   UNL     1       2.438   8.578  18.393  0.00  0.00    +0.000 OA
ENDROOT
BRANCH   8  11
ATOM     11  C   UNL     1       0.830   8.640  20.978  0.00  0.00    +0.000 A 
ATOM     12  C   UNL     1       0.400   8.531  22.301  0.00  0.00    +0.000 A 
ATOM     13  C   UNL     1      -0.209   9.606  22.947  0.00  0.00    +0.000 A 
ATOM     14  C   UNL     1      -0.427  10.797  22.267  0.00  0.00    +0.000 A 
ATOM     15  C   UNL     1      -0.052  10.928  20.925  0.00  0.00    +0.000 A 
ATOM     16  C   UNL     1       0.598   9.845  20.300  0.00  0.00    +0.000 A 
BRANCH  15  17
ATOM     17  C   UNL     1      -0.365  12.191  20.119  0.00  0.00    +0.000 C 
ATOM     18  C   UNL     1       0.020  13.426  20.946  0.00  0.00    +0.000 C 
ATOM     19  F   UNL     1       0.417  12.276  18.986  0.00  0.00    +0.000 F 
BRANCH  17  20
ATOM     20  C   UNL     1      -1.858  12.271  19.682  0.00  0.00    +0.000 C 
ATOM     21  F   UNL     1      -2.669  11.980  20.748  0.00  0.00    +0.000 F 
ATOM     22  F   UNL     1      -2.164  13.574  19.379  0.00  0.00    +0.000 F 
BRANCH  20  23
ATOM     23  C   UNL     1      -2.217  11.403  18.519  0.00  0.00    +0.000 A 
ATOM     24  N   UNL     1      -1.416  10.674  17.762  0.00  0.00    +0.000 NA
ATOM     25  N   UNL     1      -2.177  10.021  16.824  0.00  0.00    +0.000 NA
ATOM     26  C   UNL     1      -3.425  10.372  17.013  0.00  0.00    +0.000 A 
ATOM     27  N   UNL     1      -3.498  11.245  18.052  0.00  0.00    +0.000 N 
ATOM     28  C   UNL     1      -4.693  11.884  18.535  0.00  0.00    +0.000 C 
ENDBRANCH  20  23
ENDBRANCH  17  20
ENDBRANCH  15  17
ENDBRANCH   8  11
BRANCH   5  29
ATOM     29  C   UNL     1       2.022   3.070  20.764  0.00  0.00    +0.000 C 
ATOM     30  F   UNL     1       0.667   3.096  20.903  0.00  0.00    +0.000 F 
ATOM     31  F   UNL     1       2.331   1.790  20.421  0.00  0.00    +0.000 F 
ATOM     32  F   UNL     1       2.528   3.260  22.013  0.00  0.00    +0.000 F 
ENDBRANCH   5  29
BRANCH   1  33
ATOM     33  C   UNL     1       4.759   4.108  16.597  0.00  0.00    +0.000 C 
BRANCH  33  36
ATOM     34  C   UNL     1       6.638   4.761  14.455  0.00  0.00    +0.000 C 
ATOM     35  C   UNL     1       7.076   4.168  15.810  0.00  0.00    +0.000 C 
ATOM     36  N   UNL     1       5.989   4.905  16.495  0.00  0.00    +0.000 NA
ATOM     37  C   UNL     1       5.902   5.813  15.319  0.00  0.00    +0.000 C 
BRANCH  34  39
ATOM     38  C   UNL     1       7.506   4.938  12.200  0.00  0.00    +0.000 C 
ATOM     39  O   UNL     1       7.681   5.245  13.577  0.00  0.00    +0.000 OA
ENDBRANCH  34  39
ENDBRANCH  33  36
ENDBRANCH   1  33
TORSDOF 8
ENDMDL
MODEL 7
REMARK VINA RESULT:      -9.2      3.026      8.526
REMARK  Name = 
REMARK  11 active torsions:
REMARK  status: ('A' for Active; 'I' for Inactive)
REMARK    1  A    between atoms: C_1  and  O_2
REMARK    2  A    between atoms: O_2  and  C_3
REMARK    3  A    between atoms: N_5  and  C_6
REMARK    4  A    between atoms: C_6  and  C_7
REMARK    5  A    between atoms: C_11  and  C_12
REMARK    6  A    between atoms: N_18  and  C_19
REMARK    7  A    between atoms: C_23  and  C_24
REMARK    8  A    between atoms: C_24  and  C_25
REMARK    9  A    between atoms: C_24  and  C_27
REMARK   10  A    between atoms: C_27  and  C_30
REMARK   11  A    between atoms: N_34  and  C_35
REMARK                            x       y       z     vdW  Elec       q    Type
REMARK                         _______ _______ _______ _____ _____    ______ ____
ROOT
ATOM      1  C   UNL     1       3.861   5.023  17.821  0.00  0.00    +0.000 A 
ATOM      2  C   UNL     1       3.420   6.349  17.838  0.00  0.00    +0.000 A 
ATOM      3  C   UNL     1       2.595   6.739  18.873  0.00  0.00    +0.000 A 
ATOM      4  C   UNL     1       2.166   5.878  19.874  0.00  0.00    +0.000 A 
ATOM      5  C   UNL     1       2.535   4.537  19.852  0.00  0.00    +0.000 A 
ATOM      6  C   UNL     1       3.405   4.125  18.816  0.00  0.00    +0.000 A 
ATOM      7  C   UNL     1       1.342   6.649  20.858  0.00  0.00    +0.000 C 
ATOM      8  N   UNL     1       1.322   7.996  20.302  0.00  0.00    +0.000 N 
ATOM      9  C   UNL     1       2.048   8.072  19.115  0.00  0.00    +0.000 C 
ATOM     10  O   UNL     1       2.264   8.996  18.353  0.00  0.00    +0.000 OA
ENDROOT
BRANCH   8  11
ATOM     11  C   UNL     1       0.594   9.054  20.899  0.00  0.00    +0.000 A 
ATOM     12  C   UNL     1       0.506   9.174  22.286  0.00  0.00    +0.000 A 
ATOM     13  C   UNL     1      -0.167  10.246  22.871  0.00  0.00    +0.000 A 
ATOM     14  C   UNL     1      -0.792  11.197  22.075  0.00  0.00    +0.000 A 
ATOM     15  C   UNL     1      -0.766  11.084  20.681  0.00  0.00    +0.000 A 
ATOM     16  C   UNL     1      -0.047  10.017  20.106  0.00  0.00    +0.000 A 
BRANCH  15  17
ATOM     17  C   UNL     1      -1.525  12.059  19.777  0.00  0.00    +0.000 C 
ATOM     18  C   UNL     1      -1.970  11.324  18.505  0.00  0.00    +0.000 C 
ATOM     19  F   UNL     1      -2.700  12.482  20.362  0.00  0.00    +0.000 F 
BRANCH  17  20
ATOM     20  C   UNL     1      -0.686  13.319  19.412  0.00  0.00    +0.000 C 
ATOM     21  F   UNL     1      -0.340  13.278  18.087  0.00  0.00    +0.000 F 
ATOM     22  F   UNL     1      -1.483  14.431  19.513  0.00  0.00    +0.000 F 
BRANCH  20  23
ATOM     23  C   UNL     1       0.537  13.520  20.250  0.00  0.00    +0.000 A 
ATOM     24  N   UNL     1       0.631  14.080  21.443  0.00  0.00    +0.000 NA
ATOM     25  N   UNL     1       1.943  14.032  21.845  0.00  0.00    +0.000 NA
ATOM     26  C   UNL     1       2.630  13.457  20.889  0.00  0.00    +0.000 A 
ATOM     27  N   UNL     1       1.797  13.132  19.865  0.00  0.00    +0.000 N 
ATOM     28  C   UNL     1       2.186  12.523  18.621  0.00  0.00    +0.000 C 
ENDBRANCH  20  23
ENDBRANCH  17  20
ENDBRANCH  15  17
ENDBRANCH   8  11
BRANCH   5  29
ATOM     29  C   UNL     1       2.035   3.539  20.865  0.00  0.00    +0.000 C 
ATOM     30  F   UNL     1       2.505   2.277  20.661  0.00  0.00    +0.000 F 
ATOM     31  F   UNL     1       2.398   3.865  22.135  0.00  0.00    +0.000 F 
ATOM     32  F   UNL     1       0.678   3.434  20.874  0.00  0.00    +0.000 F 
ENDBRANCH   5  29
BRANCH   1  33
ATOM     33  C   UNL     1       4.822   4.588  16.734  0.00  0.00    +0.000 C 
BRANCH  33  36
ATOM     34  C   UNL     1       6.873   6.537  17.470  0.00  0.00    +0.000 C 
ATOM     35  C   UNL     1       7.100   5.429  16.422  0.00  0.00    +0.000 C 
ATOM     36  N   UNL     1       6.219   4.514  17.185  0.00  0.00    +0.000 NA
ATOM     37  C   UNL     1       6.406   5.378  18.382  0.00  0.00    +0.000 C 
BRANCH  34  39
ATOM     38  C   UNL     1       7.924   8.700  17.771  0.00  0.00    +0.000 C 
ATOM     39  O   UNL     1       8.032   7.287  17.901  0.00  0.00    +0.000 OA
ENDBRANCH  34  39
ENDBRANCH  33  36
ENDBRANCH   1  33
TORSDOF 8
ENDMDL
MODEL 8
REMARK VINA RESULT:      -9.2      3.198      9.389
REMARK  Name = 
REMARK  11 active torsions:
REMARK  status: ('A' for Active; 'I' for Inactive)
REMARK    1  A    between atoms: C_1  and  O_2
REMARK    2  A    between atoms: O_2  and  C_3
REMARK    3  A    between atoms: N_5  and  C_6
REMARK    4  A    between atoms: C_6  and  C_7
REMARK    5  A    between atoms: C_11  and  C_12
REMARK    6  A    between atoms: N_18  and  C_19
REMARK    7  A    between atoms: C_23  and  C_24
REMARK    8  A    between atoms: C_24  and  C_25
REMARK    9  A    between atoms: C_24  and  C_27
REMARK   10  A    between atoms: C_27  and  C_30
REMARK   11  A    between atoms: N_34  and  C_35
REMARK                            x       y       z     vdW  Elec       q    Type
REMARK                         _______ _______ _______ _____ _____    ______ ____
ROOT
ATOM      1  C   UNL     1       4.220   4.579  18.119  0.00  0.00    +0.000 A 
ATOM      2  C   UNL     1       3.819   5.915  18.045  0.00  0.00    +0.000 A 
ATOM      3  C   UNL     1       2.914   6.368  18.981  0.00  0.00    +0.000 A 
ATOM      4  C   UNL     1       2.367   5.560  19.969  0.00  0.00    +0.000 A 
ATOM      5  C   UNL     1       2.696   4.210  20.032  0.00  0.00    +0.000 A 
ATOM      6  C   UNL     1       3.646   3.733  19.099  0.00  0.00    +0.000 A 
ATOM      7  C   UNL     1       1.479   6.391  20.841  0.00  0.00    +0.000 C 
ATOM      8  N   UNL     1       1.552   7.715  20.235  0.00  0.00    +0.000 N 
ATOM      9  C   UNL     1       2.387   7.724  19.120  0.00  0.00    +0.000 C 
ATOM     10  O   UNL     1       2.701   8.611  18.348  0.00  0.00    +0.000 OA
ENDROOT
BRANCH   8  11
ATOM     11  C   UNL     1       0.803   8.816  20.720  0.00  0.00    +0.000 A 
ATOM     12  C   UNL     1       0.707   9.074  22.088  0.00  0.00    +0.000 A 
ATOM     13  C   UNL     1       0.014  10.187  22.560  0.00  0.00    +0.000 A 
ATOM     14  C   UNL     1      -0.624  11.042  21.671  0.00  0.00    +0.000 A 
ATOM     15  C   UNL     1      -0.590  10.789  20.295  0.00  0.00    +0.000 A 
ATOM     16  C   UNL     1       0.149   9.682  19.832  0.00  0.00    +0.000 A 
BRANCH  15  17
ATOM     17  C   UNL     1      -1.362  11.654  19.296  0.00  0.00    +0.000 C 
ATOM     18  C   UNL     1      -1.567  10.862  17.996  0.00  0.00    +0.000 C 
ATOM     19  F   UNL     1      -2.639  11.927  19.741  0.00  0.00    +0.000 F 
BRANCH  17  20
ATOM     20  C   UNL     1      -0.654  13.009  19.000  0.00  0.00    +0.000 C 
ATOM     21  F   UNL     1       0.702  12.864  19.135  0.00  0.00    +0.000 F 
ATOM     22  F   UNL     1      -0.822  13.322  17.675  0.00  0.00    +0.000 F 
BRANCH  20  23
ATOM     23  C   UNL     1      -1.127  14.157  19.835  0.00  0.00    +0.000 A 
ATOM     24  N   UNL     1      -2.035  14.153  20.795  0.00  0.00    +0.000 NA
ATOM     25  N   UNL     1      -2.136  15.424  21.304  0.00  0.00    +0.000 NA
ATOM     26  C   UNL     1      -1.301  16.185  20.640  0.00  0.00    +0.000 A 
ATOM     27  N   UNL     1      -0.658  15.440  19.701  0.00  0.00    +0.000 N 
ATOM     28  C   UNL     1       0.305  15.929  18.751  0.00  0.00    +0.000 C 
ENDBRANCH  20  23
ENDBRANCH  17  20
ENDBRANCH  15  17
ENDBRANCH   8  11
BRANCH   5  29
ATOM     29  C   UNL     1       2.073   3.267  21.030  0.00  0.00    +0.000 C 
ATOM     30  F   UNL     1       0.712   3.244  20.979  0.00  0.00    +0.000 F 
ATOM     31  F   UNL     1       2.469   1.979  20.841  0.00  0.00    +0.000 F 
ATOM     32  F   UNL     1       2.393   3.577  22.316  0.00  0.00    +0.000 F 
ENDBRANCH   5  29
BRANCH   1  33
ATOM     33  C   UNL     1       5.265   4.074  17.145  0.00  0.00    +0.000 C 
BRANCH  33  36
ATOM     34  C   UNL     1       6.325   4.118  14.421  0.00  0.00    +0.000 C 
ATOM     35  C   UNL     1       7.062   4.742  15.623  0.00  0.00    +0.000 C 
ATOM     36  N   UNL     1       5.766   5.114  16.236  0.00  0.00    +0.000 NA
ATOM     37  C   UNL     1       5.125   4.967  14.902  0.00  0.00    +0.000 C 
BRANCH  34  39
ATOM     38  C   UNL     1       6.639   3.386  12.132  0.00  0.00    +0.000 C 
ATOM     39  O   UNL     1       6.848   4.404  13.103  0.00  0.00    +0.000 OA
ENDBRANCH  34  39
ENDBRANCH  33  36
ENDBRANCH   1  33
TORSDOF 8
ENDMDL
MODEL 9
REMARK VINA RESULT:      -9.2      3.131      9.219
REMARK  Name = 
REMARK  11 active torsions:
REMARK  status: ('A' for Active; 'I' for Inactive)
REMARK    1  A    between atoms: C_1  and  O_2
REMARK    2  A    between atoms: O_2  and  C_3
REMARK    3  A    between atoms: N_5  and  C_6
REMARK    4  A    between atoms: C_6  and  C_7
REMARK    5  A    between atoms: C_11  and  C_12
REMARK    6  A    between atoms: N_18  and  C_19
REMARK    7  A    between atoms: C_23  and  C_24
REMARK    8  A    between atoms: C_24  and  C_25
REMARK    9  A    between atoms: C_24  and  C_27
REMARK   10  A    between atoms: C_27  and  C_30
REMARK   11  A    between atoms: N_34  and  C_35
REMARK                            x       y       z     vdW  Elec       q    Type
REMARK                         _______ _______ _______ _____ _____    ______ ____
ROOT
ATOM      1  C   UNL     1       3.700   4.828  17.812  0.00  0.00    +0.000 A 
ATOM      2  C   UNL     1       3.306   6.169  17.834  0.00  0.00    +0.000 A 
ATOM      3  C   UNL     1       2.559   6.602  18.909  0.00  0.00    +0.000 A 
ATOM      4  C   UNL     1       2.162   5.771  19.949  0.00  0.00    +0.000 A 
ATOM      5  C   UNL     1       2.483   4.418  19.926  0.00  0.00    +0.000 A 
ATOM      6  C   UNL     1       3.274   3.960  18.847  0.00  0.00    +0.000 A 
ATOM      7  C   UNL     1       1.425   6.584  20.967  0.00  0.00    +0.000 C 
ATOM      8  N   UNL     1       1.418   7.922  20.391  0.00  0.00    +0.000 N 
ATOM      9  C   UNL     1       2.073   7.957  19.162  0.00  0.00    +0.000 C 
ATOM     10  O   UNL     1       2.274   8.862  18.373  0.00  0.00    +0.000 OA
ENDROOT
BRANCH   8  11
ATOM     11  C   UNL     1       0.763   9.014  21.013  0.00  0.00    +0.000 A 
ATOM     12  C   UNL     1       0.239   8.900  22.301  0.00  0.00    +0.000 A 
ATOM     13  C   UNL     1      -0.358   9.991  22.931  0.00  0.00    +0.000 A 
ATOM     14  C   UNL     1      -0.470  11.205  22.268  0.00  0.00    +0.000 A 
ATOM     15  C   UNL     1       0.001  11.345  20.957  0.00  0.00    +0.000 A 
ATOM     16  C   UNL     1       0.638  10.244  20.351  0.00  0.00    +0.000 A 
BRANCH  15  17
ATOM     17  C   UNL     1      -0.194  12.638  20.163  0.00  0.00    +0.000 C 
ATOM     18  C   UNL     1      -0.319  12.299  18.670  0.00  0.00    +0.000 C 
ATOM     19  F   UNL     1      -1.388  13.253  20.479  0.00  0.00    +0.000 F 
BRANCH  17  20
ATOM     20  C   UNL     1       0.954  13.664  20.392  0.00  0.00    +0.000 C 
ATOM     21  F   UNL     1       2.043  13.030  20.931  0.00  0.00    +0.000 F 
ATOM     22  F   UNL     1       1.401  14.114  19.176  0.00  0.00    +0.000 F 
BRANCH  20  23
ATOM     23  C   UNL     1       0.582  14.840  21.239  0.00  0.00    +0.000 A 
ATOM     24  N   UNL     1       0.738  14.994  22.542  0.00  0.00    +0.000 NA
ATOM     25  N   UNL     1       0.274  16.238  22.893  0.00  0.00    +0.000 NA
ATOM     26  C   UNL     1      -0.170  16.817  21.804  0.00  0.00    +0.000 A 
ATOM     27  N   UNL     1      -0.012  15.976  20.747  0.00  0.00    +0.000 N 
ATOM     28  C   UNL     1      -0.417  16.239  19.392  0.00  0.00    +0.000 C 
ENDBRANCH  20  23
ENDBRANCH  17  20
ENDBRANCH  15  17
ENDBRANCH   8  11
BRANCH   5  29
ATOM     29  C   UNL     1       2.011   3.452  20.983  0.00  0.00    +0.000 C 
ATOM     30  F   UNL     1       2.499   2.190  20.823  0.00  0.00    +0.000 F 
ATOM     31  F   UNL     1       2.385   3.833  22.235  0.00  0.00    +0.000 F 
ATOM     32  F   UNL     1       0.657   3.327  21.013  0.00  0.00    +0.000 F 
ENDBRANCH   5  29
BRANCH   1  33
ATOM     33  C   UNL     1       4.579   4.344  16.677  0.00  0.00    +0.000 C 
BRANCH  33  36
ATOM     34  C   UNL     1       6.703   5.088  14.812  0.00  0.00    +0.000 C 
ATOM     35  C   UNL     1       6.874   4.005  15.897  0.00  0.00    +0.000 C 
ATOM     36  N   UNL     1       5.981   4.762  16.805  0.00  0.00    +0.000 NA
ATOM     37  C   UNL     1       6.221   5.978  15.981  0.00  0.00    +0.000 C 
BRANCH  34  39
ATOM     38  C   UNL     1       7.894   5.266  12.708  0.00  0.00    +0.000 C 
ATOM     39  O   UNL     1       7.894   5.514  14.109  0.00  0.00    +0.000 OA
ENDBRANCH  34  39
ENDBRANCH  33  36
ENDBRANCH   1  33
TORSDOF 8
ENDMDL
