MODEL 1
REMARK VINA RESULT:      -8.4      0.000      0.000
REMARK  Name = 
REMARK  9 active torsions:
REMARK  status: ('A' for Active; 'I' for Inactive)
REMARK    1  A    between atoms: C_1  and  C_2
REMARK    2  A    between atoms: C_2  and  C_3
REMARK    3  A    between atoms: C_2  and  C_10
REMARK    4  A    between atoms: C_3  and  C_4
REMARK    5  A    between atoms: N_8  and  C_9
REMARK    6  A    between atoms: C_14  and  N_15
REMARK    7  A    between atoms: C_16  and  C_18
REMARK    8  A    between atoms: C_22  and  S_23
REMARK    9  A    between atoms: S_23  and  C_24
REMARK                            x       y       z     vdW  Elec       q    Type
REMARK                         _______ _______ _______ _____ _____    ______ ____
ROOT
ATOM      1  C   UNL     1       4.378   4.764  16.896  0.00  0.00    +0.000 A 
ATOM      2  C   UNL     1       3.583   3.606  16.890  0.00  0.00    +0.000 A 
ATOM      3  C   UNL     1       2.327   3.598  17.484  0.00  0.00    +0.000 A 
ATOM      4  C   UNL     1       1.851   4.741  18.121  0.00  0.00    +0.000 A 
ATOM      5  C   UNL     1       2.621   5.901  18.183  0.00  0.00    +0.000 A 
ATOM      6  C   UNL     1       3.873   5.914  17.548  0.00  0.00    +0.000 A 
ENDROOT
BRANCH   5   7
ATOM      7  N   UNL     1       2.179   7.068  18.849  0.00  0.00    +0.000 N 
ATOM      8  C   UNL     1       1.936   8.294  18.247  0.00  0.00    +0.000 C 
ATOM      9  O   UNL     1       2.016   8.547  17.051  0.00  0.00    +0.000 OA
ATOM     10  H   UNL     1       1.955   7.003  19.836  0.00  0.00    +0.000 HD
BRANCH   8  11
ATOM     11  C   UNL     1       1.498   9.390  19.166  0.00  0.00    +0.000 A 
ATOM     12  C   UNL     1       1.667  10.714  18.748  0.00  0.00    +0.000 A 
ATOM     13  C   UNL     1       1.247  11.742  19.583  0.00  0.00    +0.000 A 
ATOM     14  C   UNL     1       0.679  11.427  20.808  0.00  0.00    +0.000 A 
ATOM     15  C   UNL     1       0.562  10.080  21.136  0.00  0.00    +0.000 A 
ATOM     16  N   UNL     1       0.948   9.033  20.356  0.00  0.00    +0.000 NA
BRANCH  15  17
ATOM     17  S   UNL     1      -0.160   9.637  22.700  0.00  0.00    +0.000 S 
ATOM     18  C   UNL     1      -1.282  10.951  23.085  0.00  0.00    +0.000 C 
ATOM     19  O   UNL     1      -0.942   8.432  22.479  0.00  0.00    +0.000 OA
ATOM     20  O   UNL     1       0.911   9.663  23.678  0.00  0.00    +0.000 OA
ENDBRANCH  15  17
ENDBRANCH   8  11
ENDBRANCH   5   7
BRANCH   1  22
ATOM     21  C   UNL     1       5.931   3.712  15.139  0.00  0.00    +0.000 C 
ATOM     22  C   UNL     1       5.741   4.818  16.197  0.00  0.00    +0.000 C 
BRANCH  22  23
ATOM     23  C   UNL     1       6.888   4.809  17.236  0.00  0.00    +0.000 C 
BRANCH  23  24
ATOM     24  C   UNL     1       7.363   6.181  17.583  0.00  0.00    +0.000 A 
ATOM     25  N   UNL     1       7.280   7.253  16.820  0.00  0.00    +0.000 NA
ATOM     26  N   UNL     1       7.909   8.290  17.467  0.00  0.00    +0.000 NA
ATOM     27  C   UNL     1       8.348   7.835  18.616  0.00  0.00    +0.000 A 
ATOM     28  N   UNL     1       7.994   6.528  18.749  0.00  0.00    +0.000 N 
ATOM     29  C   UNL     1       8.231   5.698  19.899  0.00  0.00    +0.000 C 
ENDBRANCH  23  24
ENDBRANCH  22  23
ENDBRANCH   1  22
TORSDOF 6
ENDMDL
MODEL 2
REMARK VINA RESULT:      -8.1      3.897      9.120
REMARK  Name = 
REMARK  9 active torsions:
REMARK  status: ('A' for Active; 'I' for Inactive)
REMARK    1  A    between atoms: C_1  and  C_2
REMARK    2  A    between atoms: C_2  and  C_3
REMARK    3  A    between atoms: C_2  and  C_10
REMARK    4  A    between atoms: C_3  and  C_4
REMARK    5  A    between atoms: N_8  and  C_9
REMARK    6  A    between atoms: C_14  and  N_15
REMARK    7  A    between atoms: C_16  and  C_18
REMARK    8  A    between atoms: C_22  and  S_23
REMARK    9  A    between atoms: S_23  and  C_24
REMARK                            x       y       z     vdW  Elec       q    Type
REMARK                         _______ _______ _______ _____ _____    ______ ____
ROOT
ATOM      1  C   UNL     1       0.138  10.512  19.999  0.00  0.00    +0.000 A 
ATOM      2  C   UNL     1      -0.040  10.340  21.381  0.00  0.00    +0.000 A 
ATOM      3  C   UNL     1       0.579   9.296  22.058  0.00  0.00    +0.000 A 
ATOM      4  C   UNL     1       1.368   8.385  21.360  0.00  0.00    +0.000 A 
ATOM      5  C   UNL     1       1.543   8.496  19.982  0.00  0.00    +0.000 A 
ATOM      6  C   UNL     1       0.945   9.575  19.311  0.00  0.00    +0.000 A 
ENDROOT
BRANCH   5   7
ATOM      7  N   UNL     1       2.313   7.570  19.240  0.00  0.00    +0.000 N 
ATOM      8  C   UNL     1       2.392   6.208  19.492  0.00  0.00    +0.000 C 
ATOM      9  O   UNL     1       1.779   5.587  20.352  0.00  0.00    +0.000 OA
ATOM     10  H   UNL     1       2.802   7.901  18.416  0.00  0.00    +0.000 HD
BRANCH   8  11
ATOM     11  C   UNL     1       3.296   5.435  18.583  0.00  0.00    +0.000 A 
ATOM     12  C   UNL     1       2.768   4.338  17.898  0.00  0.00    +0.000 A 
ATOM     13  C   UNL     1       3.589   3.622  17.036  0.00  0.00    +0.000 A 
ATOM     14  C   UNL     1       4.912   4.012  16.886  0.00  0.00    +0.000 A 
ATOM     15  C   UNL     1       5.345   5.113  17.618  0.00  0.00    +0.000 A 
ATOM     16  N   UNL     1       4.584   5.854  18.469  0.00  0.00    +0.000 NA
BRANCH  15  17
ATOM     17  S   UNL     1       7.035   5.642  17.453  0.00  0.00    +0.000 S 
ATOM     18  C   UNL     1       7.630   5.830  19.109  0.00  0.00    +0.000 C 
ATOM     19  O   UNL     1       7.763   4.545  16.838  0.00  0.00    +0.000 OA
ATOM     20  O   UNL     1       7.004   6.956  16.837  0.00  0.00    +0.000 OA
ENDBRANCH  15  17
ENDBRANCH   8  11
ENDBRANCH   5   7
BRANCH   1  22
ATOM     21  C   UNL     1       0.124  13.054  19.621  0.00  0.00    +0.000 C 
ATOM     22  C   UNL     1      -0.484  11.689  19.239  0.00  0.00    +0.000 C 
BRANCH  22  23
ATOM     23  C   UNL     1      -2.024  11.691  19.402  0.00  0.00    +0.000 C 
BRANCH  23  24
ATOM     24  C   UNL     1      -2.739  11.446  18.115  0.00  0.00    +0.000 A 
ATOM     25  N   UNL     1      -2.192  11.071  16.975  0.00  0.00    +0.000 NA
ATOM     26  N   UNL     1      -3.176  11.045  16.015  0.00  0.00    +0.000 NA
ATOM     27  C   UNL     1      -4.304  11.387  16.591  0.00  0.00    +0.000 A 
ATOM     28  N   UNL     1      -4.086  11.610  17.915  0.00  0.00    +0.000 N 
ATOM     29  C   UNL     1      -5.084  11.936  18.896  0.00  0.00    +0.000 C 
ENDBRANCH  23  24
ENDBRANCH  22  23
ENDBRANCH   1  22
TORSDOF 6
ENDMDL
MODEL 3
REMARK VINA RESULT:      -7.9      1.684      2.140
REMARK  Name = 
REMARK  9 active torsions:
REMARK  status: ('A' for Active; 'I' for Inactive)
REMARK    1  A    between atoms: C_1  and  C_2
REMARK    2  A    between atoms: C_2  and  C_3
REMARK    3  A    between atoms: C_2  and  C_10
REMARK    4  A    between atoms: C_3  and  C_4
REMARK    5  A    between atoms: N_8  and  C_9
REMARK    6  A    between atoms: C_14  and  N_15
REMARK    7  A    between atoms: C_16  and  C_18
REMARK    8  A    between atoms: C_22  and  S_23
REMARK    9  A    between atoms: S_23  and  C_24
REMARK                            x       y       z     vdW  Elec       q    Type
REMARK                         _______ _______ _______ _____ _____    ______ ____
ROOT
ATOM      1  C   UNL     1       4.384   4.705  16.872  0.00  0.00    +0.000 A 
ATOM      2  C   UNL     1       3.737   3.459  16.839  0.00  0.00    +0.000 A 
ATOM      3  C   UNL     1       2.576   3.236  17.570  0.00  0.00    +0.000 A 
ATOM      4  C   UNL     1       2.054   4.247  18.372  0.00  0.00    +0.000 A 
ATOM      5  C   UNL     1       2.684   5.487  18.464  0.00  0.00    +0.000 A 
ATOM      6  C   UNL     1       3.834   5.718  17.692  0.00  0.00    +0.000 A 
ENDROOT
BRANCH   5   7
ATOM      7  N   UNL     1       2.195   6.524  19.292  0.00  0.00    +0.000 N 
ATOM      8  C   UNL     1       1.896   7.813  18.875  0.00  0.00    +0.000 C 
ATOM      9  O   UNL     1       1.956   8.241  17.729  0.00  0.00    +0.000 OA
ATOM     10  H   UNL     1       1.981   6.307  20.259  0.00  0.00    +0.000 HD
BRANCH   8  11
ATOM     11  C   UNL     1       1.416   8.744  19.944  0.00  0.00    +0.000 A 
ATOM     12  C   UNL     1       1.076   8.207  21.189  0.00  0.00    +0.000 A 
ATOM     13  C   UNL     1       0.648   9.061  22.197  0.00  0.00    +0.000 A 
ATOM     14  C   UNL     1       0.564  10.421  21.938  0.00  0.00    +0.000 A 
ATOM     15  C   UNL     1       0.918  10.857  20.665  0.00  0.00    +0.000 A 
ATOM     16  N   UNL     1       1.350  10.067  19.643  0.00  0.00    +0.000 NA
BRANCH  15  17
ATOM     17  S   UNL     1       0.822  12.594  20.295  0.00  0.00    +0.000 S 
ATOM     18  C   UNL     1       2.016  12.866  19.017  0.00  0.00    +0.000 C 
ATOM     19  O   UNL     1      -0.496  12.835  19.734  0.00  0.00    +0.000 OA
ATOM     20  O   UNL     1       1.269  13.300  21.482  0.00  0.00    +0.000 OA
ENDBRANCH  15  17
ENDBRANCH   8  11
ENDBRANCH   5   7
BRANCH   1  22
ATOM     21  C   UNL     1       5.741   4.108  14.773  0.00  0.00    +0.000 C 
ATOM     22  C   UNL     1       5.630   4.996  16.028  0.00  0.00    +0.000 C 
BRANCH  22  23
ATOM     23  C   UNL     1       6.909   4.909  16.897  0.00  0.00    +0.000 C 
BRANCH  23  24
ATOM     24  C   UNL     1       7.368   6.244  17.382  0.00  0.00    +0.000 A 
ATOM     25  N   UNL     1       7.392   7.363  16.686  0.00  0.00    +0.000 NA
ATOM     26  N   UNL     1       7.964   8.341  17.465  0.00  0.00    +0.000 NA
ATOM     27  C   UNL     1       8.263   7.804  18.624  0.00  0.00    +0.000 A 
ATOM     28  N   UNL     1       7.872   6.501  18.632  0.00  0.00    +0.000 N 
ATOM     29  C   UNL     1       7.962   5.594  19.743  0.00  0.00    +0.000 C 
ENDBRANCH  23  24
ENDBRANCH  22  23
ENDBRANCH   1  22
TORSDOF 6
ENDMDL
MODEL 4
REMARK VINA RESULT:      -7.9      2.572      3.538
REMARK  Name = 
REMARK  9 active torsions:
REMARK  status: ('A' for Active; 'I' for Inactive)
REMARK    1  A    between atoms: C_1  and  C_2
REMARK    2  A    between atoms: C_2  and  C_3
REMARK    3  A    between atoms: C_2  and  C_10
REMARK    4  A    between atoms: C_3  and  C_4
REMARK    5  A    between atoms: N_8  and  C_9
REMARK    6  A    between atoms: C_14  and  N_15
REMARK    7  A    between atoms: C_16  and  C_18
REMARK    8  A    between atoms: C_22  and  S_23
REMARK    9  A    between atoms: S_23  and  C_24
REMARK                            x       y       z     vdW  Elec       q    Type
REMARK                         _______ _______ _______ _____ _____    ______ ____
ROOT
ATOM      1  C   UNL     1       4.640   5.238  17.767  0.00  0.00    +0.000 A 
ATOM      2  C   UNL     1       4.642   3.911  18.229  0.00  0.00    +0.000 A 
ATOM      3  C   UNL     1       3.840   3.524  19.296  0.00  0.00    +0.000 A 
ATOM      4  C   UNL     1       3.040   4.463  19.942  0.00  0.00    +0.000 A 
ATOM      5  C   UNL     1       3.034   5.798  19.540  0.00  0.00    +0.000 A 
ATOM      6  C   UNL     1       3.818   6.174  18.437  0.00  0.00    +0.000 A 
ENDROOT
BRANCH   5   7
ATOM      7  N   UNL     1       2.256   6.781  20.195  0.00  0.00    +0.000 N 
ATOM      8  C   UNL     1       1.895   8.009  19.657  0.00  0.00    +0.000 C 
ATOM      9  O   UNL     1       2.143   8.412  18.528  0.00  0.00    +0.000 OA
ATOM     10  H   UNL     1       1.870   6.562  21.106  0.00  0.00    +0.000 HD
BRANCH   8  11
ATOM     11  C   UNL     1       1.087   8.894  20.554  0.00  0.00    +0.000 A 
ATOM     12  C   UNL     1       1.104   8.640  21.928  0.00  0.00    +0.000 A 
ATOM     13  C   UNL     1       0.375   9.466  22.774  0.00  0.00    +0.000 A 
ATOM     14  C   UNL     1      -0.354  10.514  22.231  0.00  0.00    +0.000 A 
ATOM     15  C   UNL     1      -0.312  10.680  20.851  0.00  0.00    +0.000 A 
ATOM     16  N   UNL     1       0.389   9.907  19.976  0.00  0.00    +0.000 NA
BRANCH  15  17
ATOM     17  S   UNL     1      -1.235  12.012  20.118  0.00  0.00    +0.000 S 
ATOM     18  C   UNL     1      -2.103  11.285  18.757  0.00  0.00    +0.000 C 
ATOM     19  O   UNL     1      -2.218  12.436  21.101  0.00  0.00    +0.000 OA
ATOM     20  O   UNL     1      -0.264  12.948  19.581  0.00  0.00    +0.000 OA
ENDBRANCH  15  17
ENDBRANCH   8  11
ENDBRANCH   5   7
BRANCH   1  22
ATOM     21  C   UNL     1       4.878   6.898  15.820  0.00  0.00    +0.000 C 
ATOM     22  C   UNL     1       5.468   5.677  16.555  0.00  0.00    +0.000 C 
BRANCH  22  23
ATOM     23  C   UNL     1       5.692   4.489  15.587  0.00  0.00    +0.000 C 
BRANCH  23  24
ATOM     24  C   UNL     1       6.702   4.790  14.530  0.00  0.00    +0.000 A 
ATOM     25  N   UNL     1       7.769   5.553  14.663  0.00  0.00    +0.000 NA
ATOM     26  N   UNL     1       8.386   5.644  13.437  0.00  0.00    +0.000 NA
ATOM     27  C   UNL     1       7.694   4.924  12.588  0.00  0.00    +0.000 A 
ATOM     28  N   UNL     1       6.652   4.338  13.236  0.00  0.00    +0.000 N 
ATOM     29  C   UNL     1       5.705   3.419  12.666  0.00  0.00    +0.000 C 
ENDBRANCH  23  24
ENDBRANCH  22  23
ENDBRANCH   1  22
TORSDOF 6
ENDMDL
MODEL 5
REMARK VINA RESULT:      -7.9      2.081      3.099
REMARK  Name = 
REMARK  9 active torsions:
REMARK  status: ('A' for Active; 'I' for Inactive)
REMARK    1  A    between atoms: C_1  and  C_2
REMARK    2  A    between atoms: C_2  and  C_3
REMARK    3  A    between atoms: C_2  and  C_10
REMARK    4  A    between atoms: C_3  and  C_4
REMARK    5  A    between atoms: N_8  and  C_9
REMARK    6  A    between atoms: C_14  and  N_15
REMARK    7  A    between atoms: C_16  and  C_18
REMARK    8  A    between atoms: C_22  and  S_23
REMARK    9  A    between atoms: S_23  and  C_24
REMARK                            x       y       z     vdW  Elec       q    Type
REMARK                         _______ _______ _______ _____ _____    ______ ____
ROOT
ATOM      1  C   UNL     1       4.600   4.313  17.049  0.00  0.00    +0.000 A 
ATOM      2  C   UNL     1       3.817   3.147  17.044  0.00  0.00    +0.000 A 
ATOM      3  C   UNL     1       2.513   3.159  17.524  0.00  0.00    +0.000 A 
ATOM      4  C   UNL     1       1.974   4.332  18.047  0.00  0.00    +0.000 A 
ATOM      5  C   UNL     1       2.728   5.503  18.106  0.00  0.00    +0.000 A 
ATOM      6  C   UNL     1       4.032   5.493  17.583  0.00  0.00    +0.000 A 
ENDROOT
BRANCH   5   7
ATOM      7  N   UNL     1       2.221   6.702  18.658  0.00  0.00    +0.000 N 
ATOM      8  C   UNL     1       2.312   7.957  18.074  0.00  0.00    +0.000 C 
ATOM      9  O   UNL     1       2.794   8.219  16.979  0.00  0.00    +0.000 OA
ATOM     10  H   UNL     1       1.689   6.649  19.519  0.00  0.00    +0.000 HD
BRANCH   8  11
ATOM     11  C   UNL     1       1.720   9.083  18.864  0.00  0.00    +0.000 A 
ATOM     12  C   UNL     1       1.669  10.350  18.278  0.00  0.00    +0.000 A 
ATOM     13  C   UNL     1       1.106  11.400  18.992  0.00  0.00    +0.000 A 
ATOM     14  C   UNL     1       0.616  11.162  20.268  0.00  0.00    +0.000 A 
ATOM     15  C   UNL     1       0.720   9.868  20.766  0.00  0.00    +0.000 A 
ATOM     16  N   UNL     1       1.255   8.801  20.109  0.00  0.00    +0.000 NA
BRANCH  15  17
ATOM     17  S   UNL     1       0.104   9.524  22.398  0.00  0.00    +0.000 S 
ATOM     18  C   UNL     1      -0.945  10.893  22.800  0.00  0.00    +0.000 C 
ATOM     19  O   UNL     1      -0.730   8.338  22.295  0.00  0.00    +0.000 OA
ATOM     20  O   UNL     1       1.246   9.558  23.293  0.00  0.00    +0.000 OA
ENDBRANCH  15  17
ENDBRANCH   8  11
ENDBRANCH   5   7
BRANCH   1  22
ATOM     21  C   UNL     1       7.099   4.694  17.512  0.00  0.00    +0.000 C 
ATOM     22  C   UNL     1       6.019   4.342  16.469  0.00  0.00    +0.000 C 
BRANCH  22  23
ATOM     23  C   UNL     1       6.088   5.286  15.244  0.00  0.00    +0.000 C 
BRANCH  23  24
ATOM     24  C   UNL     1       6.099   4.546  13.948  0.00  0.00    +0.000 A 
ATOM     25  N   UNL     1       5.173   3.712  13.515  0.00  0.00    +0.000 NA
ATOM     26  N   UNL     1       5.602   3.177  12.323  0.00  0.00    +0.000 NA
ATOM     27  C   UNL     1       6.770   3.705  12.046  0.00  0.00    +0.000 A 
ATOM     28  N   UNL     1       7.104   4.598  13.016  0.00  0.00    +0.000 N 
ATOM     29  C   UNL     1       8.274   5.433  13.035  0.00  0.00    +0.000 C 
ENDBRANCH  23  24
ENDBRANCH  22  23
ENDBRANCH   1  22
TORSDOF 6
ENDMDL
MODEL 6
REMARK VINA RESULT:      -7.8      5.564      7.438
REMARK  Name = 
REMARK  9 active torsions:
REMARK  status: ('A' for Active; 'I' for Inactive)
REMARK    1  A    between atoms: C_1  and  C_2
REMARK    2  A    between atoms: C_2  and  C_3
REMARK    3  A    between atoms: C_2  and  C_10
REMARK    4  A    between atoms: C_3  and  C_4
REMARK    5  A    between atoms: N_8  and  C_9
REMARK    6  A    between atoms: C_14  and  N_15
REMARK    7  A    between atoms: C_16  and  C_18
REMARK    8  A    between atoms: C_22  and  S_23
REMARK    9  A    between atoms: S_23  and  C_24
REMARK                            x       y       z     vdW  Elec       q    Type
REMARK                         _______ _______ _______ _____ _____    ______ ____
ROOT
ATOM      1  C   UNL     1       6.562   6.068  17.242  0.00  0.00    +0.000 A 
ATOM      2  C   UNL     1       7.044   5.308  18.320  0.00  0.00    +0.000 A 
ATOM      3  C   UNL     1       7.948   5.846  19.228  0.00  0.00    +0.000 A 
ATOM      4  C   UNL     1       8.411   7.149  19.060  0.00  0.00    +0.000 A 
ATOM      5  C   UNL     1       7.987   7.927  17.983  0.00  0.00    +0.000 A 
ATOM      6  C   UNL     1       7.044   7.390  17.092  0.00  0.00    +0.000 A 
ENDROOT
BRANCH   5   7
ATOM      7  N   UNL     1       8.462   9.242  17.768  0.00  0.00    +0.000 N 
ATOM      8  C   UNL     1       8.995  10.073  18.742  0.00  0.00    +0.000 C 
ATOM      9  O   UNL     1       9.187   9.790  19.918  0.00  0.00    +0.000 OA
ATOM     10  H   UNL     1       8.479   9.598  16.819  0.00  0.00    +0.000 HD
BRANCH   8  11
ATOM     11  C   UNL     1       9.406  11.435  18.276  0.00  0.00    +0.000 A 
ATOM     12  C   UNL     1      10.675  11.588  17.709  0.00  0.00    +0.000 A 
ATOM     13  C   UNL     1      11.062  12.841  17.254  0.00  0.00    +0.000 A 
ATOM     14  C   UNL     1      10.183  13.907  17.381  0.00  0.00    +0.000 A 
ATOM     15  C   UNL     1       8.946  13.654  17.966  0.00  0.00    +0.000 A 
ATOM     16  N   UNL     1       8.512  12.447  18.422  0.00  0.00    +0.000 NA
BRANCH  15  17
ATOM     17  S   UNL     1       7.793  14.996  18.147  0.00  0.00    +0.000 S 
ATOM     18  C   UNL     1       7.484  15.115  19.886  0.00  0.00    +0.000 C 
ATOM     19  O   UNL     1       8.482  16.205  17.731  0.00  0.00    +0.000 OA
ATOM     20  O   UNL     1       6.562  14.579  17.501  0.00  0.00    +0.000 OA
ENDBRANCH  15  17
ENDBRANCH   8  11
ENDBRANCH   5   7
BRANCH   1  22
ATOM     21  C   UNL     1       4.166   5.193  16.928  0.00  0.00    +0.000 C 
ATOM     22  C   UNL     1       5.518   5.519  16.262  0.00  0.00    +0.000 C 
BRANCH  22  23
ATOM     23  C   UNL     1       6.080   4.296  15.496  0.00  0.00    +0.000 C 
BRANCH  23  24
ATOM     24  C   UNL     1       6.858   4.685  14.283  0.00  0.00    +0.000 A 
ATOM     25  N   UNL     1       7.882   5.516  14.243  0.00  0.00    +0.000 NA
ATOM     26  N   UNL     1       8.256   5.673  12.930  0.00  0.00    +0.000 NA
ATOM     27  C   UNL     1       7.466   4.924  12.198  0.00  0.00    +0.000 A 
ATOM     28  N   UNL     1       6.600   4.257  13.006  0.00  0.00    +0.000 N 
ATOM     29  C   UNL     1       5.624   3.287  12.589  0.00  0.00    +0.000 C 
ENDBRANCH  23  24
ENDBRANCH  22  23
ENDBRANCH   1  22
TORSDOF 6
ENDMDL
MODEL 7
REMARK VINA RESULT:      -7.8      4.384      9.304
REMARK  Name = 
REMARK  9 active torsions:
REMARK  status: ('A' for Active; 'I' for Inactive)
REMARK    1  A    between atoms: C_1  and  C_2
REMARK    2  A    between atoms: C_2  and  C_3
REMARK    3  A    between atoms: C_2  and  C_10
REMARK    4  A    between atoms: C_3  and  C_4
REMARK    5  A    between atoms: N_8  and  C_9
REMARK    6  A    between atoms: C_14  and  N_15
REMARK    7  A    between atoms: C_16  and  C_18
REMARK    8  A    between atoms: C_22  and  S_23
REMARK    9  A    between atoms: S_23  and  C_24
REMARK                            x       y       z     vdW  Elec       q    Type
REMARK                         _______ _______ _______ _____ _____    ______ ____
ROOT
ATOM      1  C   UNL     1      -0.289  10.088  19.303  0.00  0.00    +0.000 A 
ATOM      2  C   UNL     1      -0.320  10.294  20.692  0.00  0.00    +0.000 A 
ATOM      3  C   UNL     1       0.576   9.643  21.532  0.00  0.00    +0.000 A 
ATOM      4  C   UNL     1       1.503   8.749  21.002  0.00  0.00    +0.000 A 
ATOM      5  C   UNL     1       1.544   8.486  19.634  0.00  0.00    +0.000 A 
ATOM      6  C   UNL     1       0.662   9.176  18.787  0.00  0.00    +0.000 A 
ENDROOT
BRANCH   5   7
ATOM      7  N   UNL     1       2.453   7.561  19.069  0.00  0.00    +0.000 N 
ATOM      8  C   UNL     1       2.468   6.196  19.316  0.00  0.00    +0.000 C 
ATOM      9  O   UNL     1       1.677   5.572  20.013  0.00  0.00    +0.000 OA
ATOM     10  H   UNL     1       3.113   7.896  18.376  0.00  0.00    +0.000 HD
BRANCH   8  11
ATOM     11  C   UNL     1       3.545   5.425  18.619  0.00  0.00    +0.000 A 
ATOM     12  C   UNL     1       3.170   4.475  17.665  0.00  0.00    +0.000 A 
ATOM     13  C   UNL     1       4.159   3.765  16.997  0.00  0.00    +0.000 A 
ATOM     14  C   UNL     1       5.490   4.014  17.300  0.00  0.00    +0.000 A 
ATOM     15  C   UNL     1       5.760   4.974  18.269  0.00  0.00    +0.000 A 
ATOM     16  N   UNL     1       4.833   5.703  18.950  0.00  0.00    +0.000 NA
BRANCH  15  17
ATOM     17  S   UNL     1       7.455   5.320  18.685  0.00  0.00    +0.000 S 
ATOM     18  C   UNL     1       7.772   6.939  18.044  0.00  0.00    +0.000 C 
ATOM     19  O   UNL     1       7.528   5.390  20.135  0.00  0.00    +0.000 OA
ATOM     20  O   UNL     1       8.269   4.377  17.941  0.00  0.00    +0.000 OA
ENDBRANCH  15  17
ENDBRANCH   8  11
ENDBRANCH   5   7
BRANCH   1  22
ATOM     21  C   UNL     1      -1.446  12.313  18.744  0.00  0.00    +0.000 C 
ATOM     22  C   UNL     1      -1.224  10.839  18.349  0.00  0.00    +0.000 C 
BRANCH  22  23
ATOM     23  C   UNL     1      -2.570  10.086  18.199  0.00  0.00    +0.000 C 
BRANCH  23  24
ATOM     24  C   UNL     1      -3.706  10.998  17.876  0.00  0.00    +0.000 A 
ATOM     25  N   UNL     1      -4.508  11.587  18.742  0.00  0.00    +0.000 NA
ATOM     26  N   UNL     1      -5.474  12.266  18.039  0.00  0.00    +0.000 NA
ATOM     27  C   UNL     1      -5.234  12.092  16.761  0.00  0.00    +0.000 A 
ATOM     28  N   UNL     1      -4.113  11.336  16.611  0.00  0.00    +0.000 N 
ATOM     29  C   UNL     1      -3.487  10.986  15.366  0.00  0.00    +0.000 C 
ENDBRANCH  23  24
ENDBRANCH  22  23
ENDBRANCH   1  22
TORSDOF 6
ENDMDL
MODEL 8
REMARK VINA RESULT:      -7.8      2.491      3.481
REMARK  Name = 
REMARK  9 active torsions:
REMARK  status: ('A' for Active; 'I' for Inactive)
REMARK    1  A    between atoms: C_1  and  C_2
REMARK    2  A    between atoms: C_2  and  C_3
REMARK    3  A    between atoms: C_2  and  C_10
REMARK    4  A    between atoms: C_3  and  C_4
REMARK    5  A    between atoms: N_8  and  C_9
REMARK    6  A    between atoms: C_14  and  N_15
REMARK    7  A    between atoms: C_16  and  C_18
REMARK    8  A    between atoms: C_22  and  S_23
REMARK    9  A    between atoms: S_23  and  C_24
REMARK                            x       y       z     vdW  Elec       q    Type
REMARK                         _______ _______ _______ _____ _____    ______ ____
ROOT
ATOM      1  C   UNL     1       4.311   5.046  17.442  0.00  0.00    +0.000 A 
ATOM      2  C   UNL     1       3.897   3.711  17.574  0.00  0.00    +0.000 A 
ATOM      3  C   UNL     1       2.840   3.369  18.409  0.00  0.00    +0.000 A 
ATOM      4  C   UNL     1       2.193   4.354  19.151  0.00  0.00    +0.000 A 
ATOM      5  C   UNL     1       2.594   5.687  19.079  0.00  0.00    +0.000 A 
ATOM      6  C   UNL     1       3.638   6.030  18.204  0.00  0.00    +0.000 A 
ENDROOT
BRANCH   5   7
ATOM      7  N   UNL     1       1.977   6.705  19.842  0.00  0.00    +0.000 N 
ATOM      8  C   UNL     1       1.781   8.014  19.426  0.00  0.00    +0.000 C 
ATOM      9  O   UNL     1       2.059   8.480  18.328  0.00  0.00    +0.000 OA
ATOM     10  H   UNL     1       1.583   6.460  20.743  0.00  0.00    +0.000 HD
BRANCH   8  11
ATOM     11  C   UNL     1       1.126   8.918  20.423  0.00  0.00    +0.000 A 
ATOM     12  C   UNL     1       0.649   8.360  21.612  0.00  0.00    +0.000 A 
ATOM     13  C   UNL     1       0.057   9.190  22.555  0.00  0.00    +0.000 A 
ATOM     14  C   UNL     1      -0.050  10.547  22.288  0.00  0.00    +0.000 A 
ATOM     15  C   UNL     1       0.449  11.004  21.073  0.00  0.00    +0.000 A 
ATOM     16  N   UNL     1       1.044  10.239  20.116  0.00  0.00    +0.000 NA
BRANCH  15  17
ATOM     17  S   UNL     1       0.329  12.738  20.694  0.00  0.00    +0.000 S 
ATOM     18  C   UNL     1      -1.407  13.082  20.624  0.00  0.00    +0.000 C 
ATOM     19  O   UNL     1       0.882  13.458  21.828  0.00  0.00    +0.000 OA
ATOM     20  O   UNL     1       0.873  12.914  19.360  0.00  0.00    +0.000 OA
ENDBRANCH  15  17
ENDBRANCH   8  11
ENDBRANCH   5   7
BRANCH   1  22
ATOM     21  C   UNL     1       5.129   6.755  15.706  0.00  0.00    +0.000 C 
ATOM     22  C   UNL     1       5.434   5.458  16.483  0.00  0.00    +0.000 C 
BRANCH  22  23
ATOM     23  C   UNL     1       5.785   4.295  15.523  0.00  0.00    +0.000 C 
BRANCH  23  24
ATOM     24  C   UNL     1       6.764   4.694  14.469  0.00  0.00    +0.000 A 
ATOM     25  N   UNL     1       7.798   5.497  14.625  0.00  0.00    +0.000 NA
ATOM     26  N   UNL     1       8.390   5.678  13.398  0.00  0.00    +0.000 NA
ATOM     27  C   UNL     1       7.717   4.970  12.523  0.00  0.00    +0.000 A 
ATOM     28  N   UNL     1       6.713   4.306  13.155  0.00  0.00    +0.000 N 
ATOM     29  C   UNL     1       5.799   3.375  12.551  0.00  0.00    +0.000 C 
ENDBRANCH  23  24
ENDBRANCH  22  23
ENDBRANCH   1  22
TORSDOF 6
ENDMDL
MODEL 9
REMARK VINA RESULT:      -7.7      4.342      9.685
REMARK  Name = 
REMARK  9 active torsions:
REMARK  status: ('A' for Active; 'I' for Inactive)
REMARK    1  A    between atoms: C_1  and  C_2
REMARK    2  A    between atoms: C_2  and  C_3
REMARK    3  A    between atoms: C_2  and  C_10
REMARK    4  A    between atoms: C_3  and  C_4
REMARK    5  A    between atoms: N_8  and  C_9
REMARK    6  A    between atoms: C_14  and  N_15
REMARK    7  A    between atoms: C_16  and  C_18
REMARK    8  A    between atoms: C_22  and  S_23
REMARK    9  A    between atoms: S_23  and  C_24
REMARK                            x       y       z     vdW  Elec       q    Type
REMARK                         _______ _______ _______ _____ _____    ______ ____
ROOT
ATOM      1  C   UNL     1      -1.337  10.562  17.967  0.00  0.00    +0.000 A 
ATOM      2  C   UNL     1      -0.883  11.797  18.457  0.00  0.00    +0.000 A 
ATOM      3  C   UNL     1       0.448  11.980  18.812  0.00  0.00    +0.000 A 
ATOM      4  C   UNL     1       1.347  10.922  18.712  0.00  0.00    +0.000 A 
ATOM      5  C   UNL     1       0.933   9.668  18.265  0.00  0.00    +0.000 A 
ATOM      6  C   UNL     1      -0.405   9.501  17.871  0.00  0.00    +0.000 A 
ENDROOT
BRANCH   5   7
ATOM      7  N   UNL     1       1.814   8.566  18.181  0.00  0.00    +0.000 N 
ATOM      8  C   UNL     1       2.155   7.727  19.232  0.00  0.00    +0.000 C 
ATOM      9  O   UNL     1       1.715   7.773  20.374  0.00  0.00    +0.000 OA
ATOM     10  H   UNL     1       2.187   8.316  17.272  0.00  0.00    +0.000 HD
BRANCH   8  11
ATOM     11  C   UNL     1       3.130   6.641  18.903  0.00  0.00    +0.000 A 
ATOM     12  C   UNL     1       3.099   5.468  19.661  0.00  0.00    +0.000 A 
ATOM     13  C   UNL     1       3.986   4.444  19.355  0.00  0.00    +0.000 A 
ATOM     14  C   UNL     1       4.881   4.617  18.309  0.00  0.00    +0.000 A 
ATOM     15  C   UNL     1       4.839   5.823  17.619  0.00  0.00    +0.000 A 
ATOM     16  N   UNL     1       3.988   6.857  17.871  0.00  0.00    +0.000 NA
BRANCH  15  17
ATOM     17  S   UNL     1       5.973   6.083  16.273  0.00  0.00    +0.000 S 
ATOM     18  C   UNL     1       6.556   4.470  15.837  0.00  0.00    +0.000 C 
ATOM     19  O   UNL     1       5.194   6.594  15.158  0.00  0.00    +0.000 OA
ATOM     20  O   UNL     1       7.093   6.834  16.809  0.00  0.00    +0.000 OA
ENDBRANCH  15  17
ENDBRANCH   8  11
ENDBRANCH   5   7
BRANCH   1  22
ATOM     21  C   UNL     1      -2.899   9.801  16.074  0.00  0.00    +0.000 C 
ATOM     22  C   UNL     1      -2.785  10.351  17.510  0.00  0.00    +0.000 C 
BRANCH  22  23
ATOM     23  C   UNL     1      -3.606  11.652  17.683  0.00  0.00    +0.000 C 
BRANCH  23  24
ATOM     24  C   UNL     1      -4.846  11.447  18.489  0.00  0.00    +0.000 A 
ATOM     25  N   UNL     1      -5.871  10.683  18.167  0.00  0.00    +0.000 NA
ATOM     26  N   UNL     1      -6.842  10.839  19.128  0.00  0.00    +0.000 NA
ATOM     27  C   UNL     1      -6.384  11.681  20.024  0.00  0.00    +0.000 A 
ATOM     28  N   UNL     1      -5.122  12.058  19.686  0.00  0.00    +0.000 N 
ATOM     29  C   UNL     1      -4.258  12.916  20.450  0.00  0.00    +0.000 C 
ENDBRANCH  23  24
ENDBRANCH  22  23
ENDBRANCH   1  22
TORSDOF 6
ENDMDL
