MODEL 1
REMARK VINA RESULT:      -7.9      0.000      0.000
REMARK  Name = 
REMARK  7 active torsions:
REMARK  status: ('A' for Active; 'I' for Inactive)
REMARK    1  A    between atoms: C_1  and  C_2
REMARK    2  A    between atoms: C_2  and  C_3
REMARK    3  A    between atoms: C_2  and  C_10
REMARK    4  A    between atoms: C_3  and  C_4
REMARK    5  A    between atoms: N_8  and  C_9
REMARK    6  A    between atoms: C_14  and  N_15
REMARK    7  A    between atoms: C_16  and  C_18
REMARK                            x       y       z     vdW  Elec       q    Type
REMARK                         _______ _______ _______ _____ _____    ______ ____
ROOT
ATOM      1  C   UNL     1       4.186   5.455  17.155  0.00  0.00    +0.000 A 
ATOM      2  C   UNL     1       4.779   4.474  16.344  0.00  0.00    +0.000 A 
ATOM      3  C   UNL     1       6.094   4.607  15.917  0.00  0.00    +0.000 A 
ATOM      4  C   UNL     1       6.824   5.742  16.257  0.00  0.00    +0.000 A 
ATOM      5  C   UNL     1       6.248   6.769  17.011  0.00  0.00    +0.000 A 
ATOM      6  C   UNL     1       4.935   6.606  17.479  0.00  0.00    +0.000 A 
ENDROOT
BRANCH   5   7
ATOM      7  N   UNL     1       6.951   7.954  17.328  0.00  0.00    +0.000 N 
ATOM      8  C   UNL     1       7.980   8.042  18.243  0.00  0.00    +0.000 C 
ATOM      9  O   UNL     1       8.492   7.104  18.851  0.00  0.00    +0.000 OA
ATOM     10  H   UNL     1       6.748   8.800  16.805  0.00  0.00    +0.000 HD
BRANCH   8  11
ATOM     11  C   UNL     1       8.513   9.438  18.441  0.00  0.00    +0.000 A 
ATOM     12  C   UNL     1       7.908  10.386  17.693  0.00  0.00    +0.000 A 
ATOM     13  N   UNL     1       8.369  11.678  17.774  0.00  0.00    +0.000 N 
ATOM     14  C   UNL     1       7.986  12.830  17.151  0.00  0.00    +0.000 A 
ATOM     15  C   UNL     1       8.850  13.791  17.626  0.00  0.00    +0.000 A 
ATOM     16  N   UNL     1       9.741  13.258  18.534  0.00  0.00    +0.000 NA
ATOM     17  C   UNL     1       9.416  11.987  18.594  0.00  0.00    +0.000 A 
ATOM     18  C   UNL     1      10.005  10.930  19.375  0.00  0.00    +0.000 A 
ATOM     19  N   UNL     1       9.572   9.693  19.318  0.00  0.00    +0.000 NA
ENDBRANCH   8  11
ENDBRANCH   5   7
BRANCH   1  21
ATOM     20  C   UNL     1       2.484   6.110  18.947  0.00  0.00    +0.000 C 
ATOM     21  C   UNL     1       2.764   5.285  17.681  0.00  0.00    +0.000 C 
BRANCH  21  22
ATOM     22  C   UNL     1       2.325   3.812  17.830  0.00  0.00    +0.000 C 
BRANCH  22  23
ATOM     23  C   UNL     1       2.105   3.363  19.235  0.00  0.00    +0.000 A 
ATOM     24  N   UNL     1       0.956   3.324  19.881  0.00  0.00    +0.000 NA
ATOM     25  N   UNL     1       1.198   2.912  21.170  0.00  0.00    +0.000 NA
ATOM     26  C   UNL     1       2.485   2.680  21.276  0.00  0.00    +0.000 A 
ATOM     27  N   UNL     1       3.086   2.907  20.077  0.00  0.00    +0.000 N 
ATOM     28  C   UNL     1       4.470   2.677  19.766  0.00  0.00    +0.000 C 
ENDBRANCH  22  23
ENDBRANCH  21  22
ENDBRANCH   1  21
TORSDOF 5
ENDMDL
MODEL 2
REMARK VINA RESULT:      -7.8      4.993      7.461
REMARK  Name = 
REMARK  7 active torsions:
REMARK  status: ('A' for Active; 'I' for Inactive)
REMARK    1  A    between atoms: C_1  and  C_2
REMARK    2  A    between atoms: C_2  and  C_3
REMARK    3  A    between atoms: C_2  and  C_10
REMARK    4  A    between atoms: C_3  and  C_4
REMARK    5  A    between atoms: N_8  and  C_9
REMARK    6  A    between atoms: C_14  and  N_15
REMARK    7  A    between atoms: C_16  and  C_18
REMARK                            x       y       z     vdW  Elec       q    Type
REMARK                         _______ _______ _______ _____ _____    ______ ____
ROOT
ATOM      1  C   UNL     1       4.973   4.507  17.067  0.00  0.00    +0.000 A 
ATOM      2  C   UNL     1       4.189   3.352  16.922  0.00  0.00    +0.000 A 
ATOM      3  C   UNL     1       2.843   3.360  17.266  0.00  0.00    +0.000 A 
ATOM      4  C   UNL     1       2.269   4.510  17.800  0.00  0.00    +0.000 A 
ATOM      5  C   UNL     1       3.032   5.661  18.016  0.00  0.00    +0.000 A 
ATOM      6  C   UNL     1       4.379   5.660  17.623  0.00  0.00    +0.000 A 
ENDROOT
BRANCH   5   7
ATOM      7  N   UNL     1       2.486   6.825  18.603  0.00  0.00    +0.000 N 
ATOM      8  C   UNL     1       1.994   6.905  19.890  0.00  0.00    +0.000 C 
ATOM      9  O   UNL     1       2.033   6.015  20.738  0.00  0.00    +0.000 OA
ATOM     10  H   UNL     1       2.511   7.696  18.084  0.00  0.00    +0.000 HD
BRANCH   8  11
ATOM     11  C   UNL     1       1.407   8.247  20.246  0.00  0.00    +0.000 A 
ATOM     12  C   UNL     1       0.867   8.319  21.481  0.00  0.00    +0.000 A 
ATOM     13  N   UNL     1       0.264   9.492  21.866  0.00  0.00    +0.000 N 
ATOM     14  C   UNL     1      -0.368   9.865  23.017  0.00  0.00    +0.000 A 
ATOM     15  C   UNL     1      -0.788  11.156  22.784  0.00  0.00    +0.000 A 
ATOM     16  N   UNL     1      -0.416  11.585  21.528  0.00  0.00    +0.000 NA
ATOM     17  C   UNL     1       0.213  10.554  21.010  0.00  0.00    +0.000 A 
ATOM     18  C   UNL     1       0.821  10.415  19.713  0.00  0.00    +0.000 A 
ATOM     19  N   UNL     1       1.411   9.306  19.333  0.00  0.00    +0.000 NA
ENDBRANCH   8  11
ENDBRANCH   5   7
BRANCH   1  21
ATOM     20  C   UNL     1       7.405   4.843  17.780  0.00  0.00    +0.000 C 
ATOM     21  C   UNL     1       6.435   4.524  16.631  0.00  0.00    +0.000 C 
BRANCH  21  22
ATOM     22  C   UNL     1       6.704   5.384  15.377  0.00  0.00    +0.000 C 
BRANCH  22  23
ATOM     23  C   UNL     1       6.586   4.655  14.081  0.00  0.00    +0.000 A 
ATOM     24  N   UNL     1       5.684   3.746  13.766  0.00  0.00    +0.000 NA
ATOM     25  N   UNL     1       5.966   3.277  12.505  0.00  0.00    +0.000 NA
ATOM     26  C   UNL     1       7.016   3.929  12.065  0.00  0.00    +0.000 A 
ATOM     27  N   UNL     1       7.412   4.834  13.001  0.00  0.00    +0.000 N 
ATOM     28  C   UNL     1       8.467   5.798  12.856  0.00  0.00    +0.000 C 
ENDBRANCH  22  23
ENDBRANCH  21  22
ENDBRANCH   1  21
TORSDOF 5
ENDMDL
MODEL 3
REMARK VINA RESULT:      -7.7      4.688      7.625
REMARK  Name = 
REMARK  7 active torsions:
REMARK  status: ('A' for Active; 'I' for Inactive)
REMARK    1  A    between atoms: C_1  and  C_2
REMARK    2  A    between atoms: C_2  and  C_3
REMARK    3  A    between atoms: C_2  and  C_10
REMARK    4  A    between atoms: C_3  and  C_4
REMARK    5  A    between atoms: N_8  and  C_9
REMARK    6  A    between atoms: C_14  and  N_15
REMARK    7  A    between atoms: C_16  and  C_18
REMARK                            x       y       z     vdW  Elec       q    Type
REMARK                         _______ _______ _______ _____ _____    ______ ____
ROOT
ATOM      1  C   UNL     1       4.422   4.729  17.160  0.00  0.00    +0.000 A 
ATOM      2  C   UNL     1       3.605   3.590  17.082  0.00  0.00    +0.000 A 
ATOM      3  C   UNL     1       2.279   3.638  17.492  0.00  0.00    +0.000 A 
ATOM      4  C   UNL     1       1.758   4.814  18.025  0.00  0.00    +0.000 A 
ATOM      5  C   UNL     1       2.557   5.951  18.175  0.00  0.00    +0.000 A 
ATOM      6  C   UNL     1       3.883   5.909  17.716  0.00  0.00    +0.000 A 
ENDROOT
BRANCH   5   7
ATOM      7  N   UNL     1       2.068   7.142  18.760  0.00  0.00    +0.000 N 
ATOM      8  C   UNL     1       1.712   7.282  20.086  0.00  0.00    +0.000 C 
ATOM      9  O   UNL     1       1.844   6.434  20.966  0.00  0.00    +0.000 OA
ATOM     10  H   UNL     1       2.033   7.987  18.200  0.00  0.00    +0.000 HD
BRANCH   8  11
ATOM     11  C   UNL     1       1.156   8.639  20.436  0.00  0.00    +0.000 A 
ATOM     12  C   UNL     1       0.542   8.706  21.637  0.00  0.00    +0.000 A 
ATOM     13  N   UNL     1      -0.038   9.893  22.012  0.00  0.00    +0.000 N 
ATOM     14  C   UNL     1      -0.727  10.267  23.129  0.00  0.00    +0.000 A 
ATOM     15  C   UNL     1      -1.080  11.578  22.902  0.00  0.00    +0.000 A 
ATOM     16  N   UNL     1      -0.613  12.019  21.683  0.00  0.00    +0.000 NA
ATOM     17  C   UNL     1       0.008  10.976  21.180  0.00  0.00    +0.000 A 
ATOM     18  C   UNL     1       0.691  10.840  19.921  0.00  0.00    +0.000 A 
ATOM     19  N   UNL     1       1.260   9.716  19.551  0.00  0.00    +0.000 NA
ENDBRANCH   8  11
ENDBRANCH   5   7
BRANCH   1  21
ATOM     20  C   UNL     1       6.485   6.100  16.525  0.00  0.00    +0.000 C 
ATOM     21  C   UNL     1       5.860   4.701  16.652  0.00  0.00    +0.000 C 
BRANCH  21  22
ATOM     22  C   UNL     1       6.057   3.851  15.379  0.00  0.00    +0.000 C 
BRANCH  22  23
ATOM     23  C   UNL     1       6.882   4.496  14.317  0.00  0.00    +0.000 A 
ATOM     24  N   UNL     1       7.859   5.364  14.495  0.00  0.00    +0.000 NA
ATOM     25  N   UNL     1       8.315   5.760  13.260  0.00  0.00    +0.000 NA
ATOM     26  C   UNL     1       7.628   5.105  12.355  0.00  0.00    +0.000 A 
ATOM     27  N   UNL     1       6.749   4.269  12.971  0.00  0.00    +0.000 N 
ATOM     28  C   UNL     1       5.885   3.321  12.324  0.00  0.00    +0.000 C 
ENDBRANCH  22  23
ENDBRANCH  21  22
ENDBRANCH   1  21
TORSDOF 5
ENDMDL
MODEL 4
REMARK VINA RESULT:      -7.7      4.377      7.418
REMARK  Name = 
REMARK  7 active torsions:
REMARK  status: ('A' for Active; 'I' for Inactive)
REMARK    1  A    between atoms: C_1  and  C_2
REMARK    2  A    between atoms: C_2  and  C_3
REMARK    3  A    between atoms: C_2  and  C_10
REMARK    4  A    between atoms: C_3  and  C_4
REMARK    5  A    between atoms: N_8  and  C_9
REMARK    6  A    between atoms: C_14  and  N_15
REMARK    7  A    between atoms: C_16  and  C_18
REMARK                            x       y       z     vdW  Elec       q    Type
REMARK                         _______ _______ _______ _____ _____    ______ ____
ROOT
ATOM      1  C   UNL     1       5.266   4.880  19.032  0.00  0.00    +0.000 A 
ATOM      2  C   UNL     1       4.874   3.574  19.367  0.00  0.00    +0.000 A 
ATOM      3  C   UNL     1       3.620   3.327  19.911  0.00  0.00    +0.000 A 
ATOM      4  C   UNL     1       2.753   4.385  20.168  0.00  0.00    +0.000 A 
ATOM      5  C   UNL     1       3.131   5.705  19.905  0.00  0.00    +0.000 A 
ATOM      6  C   UNL     1       4.380   5.942  19.312  0.00  0.00    +0.000 A 
ENDROOT
BRANCH   5   7
ATOM      7  N   UNL     1       2.290   6.801  20.203  0.00  0.00    +0.000 N 
ATOM      8  C   UNL     1       2.047   7.864  19.357  0.00  0.00    +0.000 C 
ATOM      9  O   UNL     1       2.450   7.977  18.201  0.00  0.00    +0.000 OA
ATOM     10  H   UNL     1       1.760   6.793  21.068  0.00  0.00    +0.000 HD
BRANCH   8  11
ATOM     11  C   UNL     1       1.164   8.934  19.946  0.00  0.00    +0.000 A 
ATOM     12  C   UNL     1       0.906   8.793  21.264  0.00  0.00    +0.000 A 
ATOM     13  N   UNL     1       0.066   9.696  21.869  0.00  0.00    +0.000 N 
ATOM     14  C   UNL     1      -0.388   9.812  23.151  0.00  0.00    +0.000 A 
ATOM     15  C   UNL     1      -1.227  10.904  23.128  0.00  0.00    +0.000 A 
ATOM     16  N   UNL     1      -1.285  11.466  21.870  0.00  0.00    +0.000 NA
ATOM     17  C   UNL     1      -0.493  10.709  21.144  0.00  0.00    +0.000 A 
ATOM     18  C   UNL     1      -0.165  10.810  19.746  0.00  0.00    +0.000 A 
ATOM     19  N   UNL     1       0.644   9.963  19.155  0.00  0.00    +0.000 NA
ENDBRANCH   8  11
ENDBRANCH   5   7
BRANCH   1  21
ATOM     20  C   UNL     1       7.712   5.534  19.382  0.00  0.00    +0.000 C 
ATOM     21  C   UNL     1       6.615   5.151  18.375  0.00  0.00    +0.000 C 
BRANCH  21  22
ATOM     22  C   UNL     1       6.545   6.127  17.181  0.00  0.00    +0.000 C 
BRANCH  22  23
ATOM     23  C   UNL     1       6.672   5.487  15.840  0.00  0.00    +0.000 A 
ATOM     24  N   UNL     1       7.673   5.621  14.992  0.00  0.00    +0.000 NA
ATOM     25  N   UNL     1       7.369   4.919  13.850  0.00  0.00    +0.000 NA
ATOM     26  C   UNL     1       6.204   4.346  14.035  0.00  0.00    +0.000 A 
ATOM     27  N   UNL     1       5.749   4.638  15.284  0.00  0.00    +0.000 N 
ATOM     28  C   UNL     1       4.554   4.124  15.893  0.00  0.00    +0.000 C 
ENDBRANCH  22  23
ENDBRANCH  21  22
ENDBRANCH   1  21
TORSDOF 5
ENDMDL
MODEL 5
REMARK VINA RESULT:      -7.7      4.995      7.050
REMARK  Name = 
REMARK  7 active torsions:
REMARK  status: ('A' for Active; 'I' for Inactive)
REMARK    1  A    between atoms: C_1  and  C_2
REMARK    2  A    between atoms: C_2  and  C_3
REMARK    3  A    between atoms: C_2  and  C_10
REMARK    4  A    between atoms: C_3  and  C_4
REMARK    5  A    between atoms: N_8  and  C_9
REMARK    6  A    between atoms: C_14  and  N_15
REMARK    7  A    between atoms: C_16  and  C_18
REMARK                            x       y       z     vdW  Elec       q    Type
REMARK                         _______ _______ _______ _____ _____    ______ ____
ROOT
ATOM      1  C   UNL     1       4.905   4.450  17.052  0.00  0.00    +0.000 A 
ATOM      2  C   UNL     1       4.072   3.332  16.886  0.00  0.00    +0.000 A 
ATOM      3  C   UNL     1       2.733   3.384  17.254  0.00  0.00    +0.000 A 
ATOM      4  C   UNL     1       2.215   4.539  17.832  0.00  0.00    +0.000 A 
ATOM      5  C   UNL     1       3.028   5.651  18.070  0.00  0.00    +0.000 A 
ATOM      6  C   UNL     1       4.367   5.608  17.653  0.00  0.00    +0.000 A 
ENDROOT
BRANCH   5   7
ATOM      7  N   UNL     1       2.540   6.818  18.701  0.00  0.00    +0.000 N 
ATOM      8  C   UNL     1       2.024   6.867  19.981  0.00  0.00    +0.000 C 
ATOM      9  O   UNL     1       1.989   5.937  20.784  0.00  0.00    +0.000 OA
ATOM     10  H   UNL     1       2.629   7.709  18.225  0.00  0.00    +0.000 HD
BRANCH   8  11
ATOM     11  C   UNL     1       1.511   8.224  20.389  0.00  0.00    +0.000 A 
ATOM     12  C   UNL     1       1.394   9.112  19.378  0.00  0.00    +0.000 A 
ATOM     13  N   UNL     1       0.982  10.389  19.672  0.00  0.00    +0.000 N 
ATOM     14  C   UNL     1       0.784  11.492  18.892  0.00  0.00    +0.000 A 
ATOM     15  C   UNL     1       0.400  12.479  19.773  0.00  0.00    +0.000 A 
ATOM     16  N   UNL     1       0.345  12.004  21.066  0.00  0.00    +0.000 NA
ATOM     17  C   UNL     1       0.702  10.744  20.960  0.00  0.00    +0.000 A 
ATOM     18  C   UNL     1       0.833   9.744  21.987  0.00  0.00    +0.000 A 
ATOM     19  N   UNL     1       1.215   8.517  21.723  0.00  0.00    +0.000 NA
ENDBRANCH   8  11
ENDBRANCH   5   7
BRANCH   1  21
ATOM     20  C   UNL     1       7.360   4.668  17.731  0.00  0.00    +0.000 C 
ATOM     21  C   UNL     1       6.358   4.422  16.591  0.00  0.00    +0.000 C 
BRANCH  21  22
ATOM     22  C   UNL     1       6.641   5.306  15.358  0.00  0.00    +0.000 C 
BRANCH  22  23
ATOM     23  C   UNL     1       6.556   4.599  14.047  0.00  0.00    +0.000 A 
ATOM     24  N   UNL     1       5.676   3.680  13.701  0.00  0.00    +0.000 NA
ATOM     25  N   UNL     1       5.985   3.240  12.436  0.00  0.00    +0.000 NA
ATOM     26  C   UNL     1       7.029   3.918  12.025  0.00  0.00    +0.000 A 
ATOM     27  N   UNL     1       7.394   4.812  12.983  0.00  0.00    +0.000 N 
ATOM     28  C   UNL     1       8.435   5.798  12.871  0.00  0.00    +0.000 C 
ENDBRANCH  22  23
ENDBRANCH  21  22
ENDBRANCH   1  21
TORSDOF 5
ENDMDL
MODEL 6
REMARK VINA RESULT:      -7.6      5.677      8.321
REMARK  Name = 
REMARK  7 active torsions:
REMARK  status: ('A' for Active; 'I' for Inactive)
REMARK    1  A    between atoms: C_1  and  C_2
REMARK    2  A    between atoms: C_2  and  C_3
REMARK    3  A    between atoms: C_2  and  C_10
REMARK    4  A    between atoms: C_3  and  C_4
REMARK    5  A    between atoms: N_8  and  C_9
REMARK    6  A    between atoms: C_14  and  N_15
REMARK    7  A    between atoms: C_16  and  C_18
REMARK                            x       y       z     vdW  Elec       q    Type
REMARK                         _______ _______ _______ _____ _____    ______ ____
ROOT
ATOM      1  C   UNL     1       0.029  10.097  19.525  0.00  0.00    +0.000 A 
ATOM      2  C   UNL     1      -0.476   9.703  20.774  0.00  0.00    +0.000 A 
ATOM      3  C   UNL     1       0.140   8.693  21.502  0.00  0.00    +0.000 A 
ATOM      4  C   UNL     1       1.246   8.033  20.976  0.00  0.00    +0.000 A 
ATOM      5  C   UNL     1       1.741   8.355  19.708  0.00  0.00    +0.000 A 
ATOM      6  C   UNL     1       1.142   9.407  18.999  0.00  0.00    +0.000 A 
ENDROOT
BRANCH   5   7
ATOM      7  N   UNL     1       2.830   7.665  19.129  0.00  0.00    +0.000 N 
ATOM      8  C   UNL     1       2.922   6.293  19.007  0.00  0.00    +0.000 C 
ATOM      9  O   UNL     1       2.048   5.479  19.299  0.00  0.00    +0.000 OA
ATOM     10  H   UNL     1       3.579   8.199  18.702  0.00  0.00    +0.000 HD
BRANCH   8  11
ATOM     11  C   UNL     1       4.220   5.811  18.412  0.00  0.00    +0.000 A 
ATOM     12  C   UNL     1       4.275   5.855  17.063  0.00  0.00    +0.000 A 
ATOM     13  N   UNL     1       5.404   5.385  16.437  0.00  0.00    +0.000 N 
ATOM     14  C   UNL     1       5.750   5.285  15.120  0.00  0.00    +0.000 A 
ATOM     15  C   UNL     1       6.998   4.703  15.128  0.00  0.00    +0.000 A 
ATOM     16  N   UNL     1       7.429   4.458  16.415  0.00  0.00    +0.000 NA
ATOM     17  C   UNL     1       6.441   4.883  17.170  0.00  0.00    +0.000 A 
ATOM     18  C   UNL     1       6.323   4.879  18.605  0.00  0.00    +0.000 A 
ATOM     19  N   UNL     1       5.256   5.334  19.220  0.00  0.00    +0.000 NA
ENDBRANCH   8  11
ENDBRANCH   5   7
BRANCH   1  21
ATOM     20  C   UNL     1       0.273  12.510  18.716  0.00  0.00    +0.000 C 
ATOM     21  C   UNL     1      -0.604  11.248  18.749  0.00  0.00    +0.000 C 
BRANCH  21  22
ATOM     22  C   UNL     1      -2.060  11.554  19.162  0.00  0.00    +0.000 C 
BRANCH  22  23
ATOM     23  C   UNL     1      -3.055  11.471  18.054  0.00  0.00    +0.000 A 
ATOM     24  N   UNL     1      -2.829  11.073  16.817  0.00  0.00    +0.000 NA
ATOM     25  N   UNL     1      -3.993  11.209  16.099  0.00  0.00    +0.000 NA
ATOM     26  C   UNL     1      -4.914  11.659  16.918  0.00  0.00    +0.000 A 
ATOM     27  N   UNL     1      -4.383  11.797  18.163  0.00  0.00    +0.000 N 
ATOM     28  C   UNL     1      -5.096  12.178  19.352  0.00  0.00    +0.000 C 
ENDBRANCH  22  23
ENDBRANCH  21  22
ENDBRANCH   1  21
TORSDOF 5
ENDMDL
MODEL 7
REMARK VINA RESULT:      -7.5      6.508      8.227
REMARK  Name = 
REMARK  7 active torsions:
REMARK  status: ('A' for Active; 'I' for Inactive)
REMARK    1  A    between atoms: C_1  and  C_2
REMARK    2  A    between atoms: C_2  and  C_3
REMARK    3  A    between atoms: C_2  and  C_10
REMARK    4  A    between atoms: C_3  and  C_4
REMARK    5  A    between atoms: N_8  and  C_9
REMARK    6  A    between atoms: C_14  and  N_15
REMARK    7  A    between atoms: C_16  and  C_18
REMARK                            x       y       z     vdW  Elec       q    Type
REMARK                         _______ _______ _______ _____ _____    ______ ____
ROOT
ATOM      1  C   UNL     1       2.084   7.598  19.573  0.00  0.00    +0.000 A 
ATOM      2  C   UNL     1       2.269   7.898  18.214  0.00  0.00    +0.000 A 
ATOM      3  C   UNL     1       1.842   9.112  17.690  0.00  0.00    +0.000 A 
ATOM      4  C   UNL     1       1.186  10.028  18.506  0.00  0.00    +0.000 A 
ATOM      5  C   UNL     1       0.928   9.740  19.850  0.00  0.00    +0.000 A 
ATOM      6  C   UNL     1       1.403   8.532  20.383  0.00  0.00    +0.000 A 
ENDROOT
BRANCH   5   7
ATOM      7  N   UNL     1       0.218  10.631  20.687  0.00  0.00    +0.000 N 
ATOM      8  C   UNL     1       0.688  11.857  21.115  0.00  0.00    +0.000 C 
ATOM      9  O   UNL     1       1.740  12.390  20.771  0.00  0.00    +0.000 OA
ATOM     10  H   UNL     1      -0.735  10.406  20.948  0.00  0.00    +0.000 HD
BRANCH   8  11
ATOM     11  C   UNL     1      -0.241  12.580  22.056  0.00  0.00    +0.000 A 
ATOM     12  C   UNL     1      -1.352  11.891  22.395  0.00  0.00    +0.000 A 
ATOM     13  N   UNL     1      -2.278  12.498  23.208  0.00  0.00    +0.000 N 
ATOM     14  C   UNL     1      -3.478  12.080  23.706  0.00  0.00    +0.000 A 
ATOM     15  C   UNL     1      -3.949  13.151  24.432  0.00  0.00    +0.000 A 
ATOM     16  N   UNL     1      -3.063  14.206  24.403  0.00  0.00    +0.000 NA
ATOM     17  C   UNL     1      -2.072  13.771  23.656  0.00  0.00    +0.000 A 
ATOM     18  C   UNL     1      -0.859  14.444  23.269  0.00  0.00    +0.000 A 
ATOM     19  N   UNL     1       0.041  13.875  22.502  0.00  0.00    +0.000 NA
ENDBRANCH   8  11
ENDBRANCH   5   7
BRANCH   1  21
ATOM     20  C   UNL     1       3.789   5.702  19.383  0.00  0.00    +0.000 C 
ATOM     21  C   UNL     1       2.607   6.296  20.168  0.00  0.00    +0.000 C 
BRANCH  21  22
ATOM     22  C   UNL     1       1.506   5.251  20.453  0.00  0.00    +0.000 C 
BRANCH  22  23
ATOM     23  C   UNL     1       1.611   3.997  19.652  0.00  0.00    +0.000 A 
ATOM     24  N   UNL     1       1.277   3.838  18.386  0.00  0.00    +0.000 NA
ATOM     25  N   UNL     1       1.468   2.518  18.052  0.00  0.00    +0.000 NA
ATOM     26  C   UNL     1       1.941   1.905  19.110  0.00  0.00    +0.000 A 
ATOM     27  N   UNL     1       2.089   2.801  20.123  0.00  0.00    +0.000 N 
ATOM     28  C   UNL     1       2.664   2.535  21.414  0.00  0.00    +0.000 C 
ENDBRANCH  22  23
ENDBRANCH  21  22
ENDBRANCH   1  21
TORSDOF 5
ENDMDL
MODEL 8
REMARK VINA RESULT:      -7.5      4.075      7.068
REMARK  Name = 
REMARK  7 active torsions:
REMARK  status: ('A' for Active; 'I' for Inactive)
REMARK    1  A    between atoms: C_1  and  C_2
REMARK    2  A    between atoms: C_2  and  C_3
REMARK    3  A    between atoms: C_2  and  C_10
REMARK    4  A    between atoms: C_3  and  C_4
REMARK    5  A    between atoms: N_8  and  C_9
REMARK    6  A    between atoms: C_14  and  N_15
REMARK    7  A    between atoms: C_16  and  C_18
REMARK                            x       y       z     vdW  Elec       q    Type
REMARK                         _______ _______ _______ _____ _____    ______ ____
ROOT
ATOM      1  C   UNL     1       4.453   4.658  17.868  0.00  0.00    +0.000 A 
ATOM      2  C   UNL     1       4.353   3.356  18.382  0.00  0.00    +0.000 A 
ATOM      3  C   UNL     1       3.519   3.079  19.458  0.00  0.00    +0.000 A 
ATOM      4  C   UNL     1       2.804   4.108  20.064  0.00  0.00    +0.000 A 
ATOM      5  C   UNL     1       2.924   5.428  19.620  0.00  0.00    +0.000 A 
ATOM      6  C   UNL     1       3.733   5.691  18.503  0.00  0.00    +0.000 A 
ENDROOT
BRANCH   5   7
ATOM      7  N   UNL     1       2.249   6.498  20.250  0.00  0.00    +0.000 N 
ATOM      8  C   UNL     1       1.907   7.686  19.637  0.00  0.00    +0.000 C 
ATOM      9  O   UNL     1       2.057   7.958  18.448  0.00  0.00    +0.000 OA
ATOM     10  H   UNL     1       1.921   6.379  21.202  0.00  0.00    +0.000 HD
BRANCH   8  11
ATOM     11  C   UNL     1       1.251   8.688  20.554  0.00  0.00    +0.000 A 
ATOM     12  C   UNL     1       0.909   9.854  19.965  0.00  0.00    +0.000 A 
ATOM     13  N   UNL     1       0.354  10.842  20.742  0.00  0.00    +0.000 N 
ATOM     14  C   UNL     1      -0.076  12.105  20.452  0.00  0.00    +0.000 A 
ATOM     15  C   UNL     1      -0.505  12.615  21.658  0.00  0.00    +0.000 A 
ATOM     16  N   UNL     1      -0.361  11.692  22.672  0.00  0.00    +0.000 NA
ATOM     17  C   UNL     1       0.158  10.641  22.078  0.00  0.00    +0.000 A 
ATOM     18  C   UNL     1       0.531   9.368  22.638  0.00  0.00    +0.000 A 
ATOM     19  N   UNL     1       1.053   8.410  21.910  0.00  0.00    +0.000 NA
ENDBRANCH   8  11
ENDBRANCH   5   7
BRANCH   1  21
ATOM     20  C   UNL     1       4.989   4.062  15.440  0.00  0.00    +0.000 C 
ATOM     21  C   UNL     1       5.317   4.956  16.647  0.00  0.00    +0.000 C 
BRANCH  21  22
ATOM     22  C   UNL     1       6.831   5.004  16.948  0.00  0.00    +0.000 C 
BRANCH  22  23
ATOM     23  C   UNL     1       7.336   6.330  17.408  0.00  0.00    +0.000 A 
ATOM     24  N   UNL     1       7.297   7.465  16.738  0.00  0.00    +0.000 NA
ATOM     25  N   UNL     1       7.923   8.432  17.489  0.00  0.00    +0.000 NA
ATOM     26  C   UNL     1       8.305   7.875  18.614  0.00  0.00    +0.000 A 
ATOM     27  N   UNL     1       7.919   6.570  18.626  0.00  0.00    +0.000 N 
ATOM     28  C   UNL     1       8.074   5.650  19.719  0.00  0.00    +0.000 C 
ENDBRANCH  22  23
ENDBRANCH  21  22
ENDBRANCH   1  21
TORSDOF 5
ENDMDL
MODEL 9
REMARK VINA RESULT:      -7.5      4.781      6.930
REMARK  Name = 
REMARK  7 active torsions:
REMARK  status: ('A' for Active; 'I' for Inactive)
REMARK    1  A    between atoms: C_1  and  C_2
REMARK    2  A    between atoms: C_2  and  C_3
REMARK    3  A    between atoms: C_2  and  C_10
REMARK    4  A    between atoms: C_3  and  C_4
REMARK    5  A    between atoms: N_8  and  C_9
REMARK    6  A    between atoms: C_14  and  N_15
REMARK    7  A    between atoms: C_16  and  C_18
REMARK                            x       y       z     vdW  Elec       q    Type
REMARK                         _______ _______ _______ _____ _____    ______ ____
ROOT
ATOM      1  C   UNL     1       2.829   3.461  19.041  0.00  0.00    +0.000 A 
ATOM      2  C   UNL     1       3.036   2.538  20.078  0.00  0.00    +0.000 A 
ATOM      3  C   UNL     1       2.641   2.828  21.377  0.00  0.00    +0.000 A 
ATOM      4  C   UNL     1       2.071   4.064  21.670  0.00  0.00    +0.000 A 
ATOM      5  C   UNL     1       1.905   5.033  20.676  0.00  0.00    +0.000 A 
ATOM      6  C   UNL     1       2.263   4.715  19.358  0.00  0.00    +0.000 A 
ENDROOT
BRANCH   5   7
ATOM      7  N   UNL     1       1.376   6.314  20.957  0.00  0.00    +0.000 N 
ATOM      8  C   UNL     1       1.739   7.478  20.310  0.00  0.00    +0.000 C 
ATOM      9  O   UNL     1       2.501   7.566  19.349  0.00  0.00    +0.000 OA
ATOM     10  H   UNL     1       0.623   6.398  21.631  0.00  0.00    +0.000 HD
BRANCH   8  11
ATOM     11  C   UNL     1       1.072   8.718  20.847  0.00  0.00    +0.000 A 
ATOM     12  C   UNL     1       0.851   9.684  19.930  0.00  0.00    +0.000 A 
ATOM     13  N   UNL     1       0.293  10.869  20.347  0.00  0.00    +0.000 N 
ATOM     14  C   UNL     1      -0.034  12.014  19.681  0.00  0.00    +0.000 A 
ATOM     15  C   UNL     1      -0.529  12.856  20.653  0.00  0.00    +0.000 A 
ATOM     16  N   UNL     1      -0.525  12.250  21.891  0.00  0.00    +0.000 NA
ATOM     17  C   UNL     1      -0.023  11.057  21.662  0.00  0.00    +0.000 A 
ATOM     18  C   UNL     1       0.226   9.980  22.585  0.00  0.00    +0.000 A 
ATOM     19  N   UNL     1       0.747   8.838  22.202  0.00  0.00    +0.000 NA
ENDBRANCH   8  11
ENDBRANCH   5   7
BRANCH   1  21
ATOM     20  C   UNL     1       3.830   1.728  17.451  0.00  0.00    +0.000 C 
ATOM     21  C   UNL     1       3.202   3.123  17.602  0.00  0.00    +0.000 C 
BRANCH  21  22
ATOM     22  C   UNL     1       4.028   4.219  16.895  0.00  0.00    +0.000 C 
BRANCH  22  23
ATOM     23  C   UNL     1       5.442   4.333  17.355  0.00  0.00    +0.000 A 
ATOM     24  N   UNL     1       5.863   4.401  18.603  0.00  0.00    +0.000 NA
ATOM     25  N   UNL     1       7.228   4.562  18.590  0.00  0.00    +0.000 NA
ATOM     26  C   UNL     1       7.616   4.560  17.337  0.00  0.00    +0.000 A 
ATOM     27  N   UNL     1       6.536   4.374  16.530  0.00  0.00    +0.000 N 
ATOM     28  C   UNL     1       6.562   4.223  15.101  0.00  0.00    +0.000 C 
ENDBRANCH  22  23
ENDBRANCH  21  22
ENDBRANCH   1  21
TORSDOF 5
ENDMDL
