MODEL 1
REMARK VINA RESULT:      -9.9      0.000      0.000
REMARK  Name = 
REMARK  8 active torsions:
REMARK  status: ('A' for Active; 'I' for Inactive)
REMARK    1  A    between atoms: C_1  and  N_2
REMARK    2  A    between atoms: C_5  and  C_6
REMARK    3  A    between atoms: C_6  and  C_7
REMARK    4  A    between atoms: C_6  and  S_8
REMARK    5  A    between atoms: S_8  and  C_9
REMARK    6  A    between atoms: N_13  and  C_14
REMARK    7  A    between atoms: C_16  and  N_17
REMARK    8  A    between atoms: C_24  and  C_25
REMARK                            x       y       z     vdW  Elec       q    Type
REMARK                         _______ _______ _______ _____ _____    ______ ____
ROOT
ATOM      1  C   UNL     1       1.292   3.232  20.913  0.00  0.00    +0.000 C 
ATOM      2  N   UNL     1       2.430   3.039  20.021  0.00  0.00    +0.000 N 
ATOM      3  C   UNL     1       2.902   4.240  19.454  0.00  0.00    +0.000 A 
ATOM      4  C   UNL     1       4.006   4.176  18.614  0.00  0.00    +0.000 A 
ATOM      5  C   UNL     1       4.484   5.342  18.010  0.00  0.00    +0.000 A 
ATOM      6  C   UNL     1       3.799   6.535  18.264  0.00  0.00    +0.000 A 
ATOM      7  C   UNL     1       2.712   6.540  19.137  0.00  0.00    +0.000 A 
ATOM      8  N   UNL     1       2.296   5.407  19.728  0.00  0.00    +0.000 NA
ATOM      9  H   UNL     1       2.201   2.404  19.264  0.00  0.00    +0.000 HD
ENDROOT
BRANCH   7  10
ATOM     10  N   UNL     1       2.022   7.738  19.417  0.00  0.00    +0.000 N 
ATOM     11  C   UNL     1       1.357   7.987  20.680  0.00  0.00    +0.000 C 
ATOM     12  C   UNL     1       0.813   9.370  20.519  0.00  0.00    +0.000 A 
ATOM     13  C   UNL     1       1.136   9.844  19.249  0.00  0.00    +0.000 A 
ATOM     14  C   UNL     1       0.745  11.089  18.793  0.00  0.00    +0.000 A 
ATOM     15  C   UNL     1       0.001  11.887  19.661  0.00  0.00    +0.000 A 
ATOM     16  C   UNL     1      -0.319  11.429  20.953  0.00  0.00    +0.000 A 
ATOM     17  C   UNL     1       0.087  10.159  21.407  0.00  0.00    +0.000 A 
ATOM     18  C   UNL     1       1.925   8.821  18.547  0.00  0.00    +0.000 C 
ATOM     19  O   UNL     1       2.348   9.009  17.422  0.00  0.00    +0.000 OA
BRANCH  17  20
ATOM     20  C   UNL     1      -0.255   9.713  22.804  0.00  0.00    +0.000 C 
ATOM     21  F   UNL     1       0.831   9.561  23.612  0.00  0.00    +0.000 F 
ATOM     22  F   UNL     1      -1.074  10.592  23.442  0.00  0.00    +0.000 F 
ATOM     23  F   UNL     1      -0.900   8.515  22.824  0.00  0.00    +0.000 F 
ENDBRANCH  17  20
ENDBRANCH   7  10
BRANCH   5  24
ATOM     24  C   UNL     1       5.722   5.357  17.134  0.00  0.00    +0.000 C 
ATOM     25  C   UNL     1       6.989   5.341  17.995  0.00  0.00    +0.000 C 
BRANCH  24  26
ATOM     26  S   UNL     1       5.800   3.949  15.974  0.00  0.00    +0.000 S 
BRANCH  26  27
ATOM     27  C   UNL     1       6.749   4.593  14.684  0.00  0.00    +0.000 A 
ATOM     28  N   UNL     1       7.742   5.449  14.768  0.00  0.00    +0.000 NA
ATOM     29  N   UNL     1       8.210   5.669  13.489  0.00  0.00    +0.000 NA
ATOM     30  C   UNL     1       7.491   4.935  12.669  0.00  0.00    +0.000 A 
ATOM     31  N   UNL     1       6.559   4.240  13.379  0.00  0.00    +0.000 N 
ATOM     32  C   UNL     1       5.584   3.331  12.839  0.00  0.00    +0.000 C 
ENDBRANCH  26  27
ENDBRANCH  24  26
ENDBRANCH   5  24
TORSDOF 5
ENDMDL
MODEL 2
REMARK VINA RESULT:      -9.7      1.633      2.539
REMARK  Name = 
REMARK  8 active torsions:
REMARK  status: ('A' for Active; 'I' for Inactive)
REMARK    1  A    between atoms: C_1  and  N_2
REMARK    2  A    between atoms: C_5  and  C_6
REMARK    3  A    between atoms: C_6  and  C_7
REMARK    4  A    between atoms: C_6  and  S_8
REMARK    5  A    between atoms: S_8  and  C_9
REMARK    6  A    between atoms: N_13  and  C_14
REMARK    7  A    between atoms: C_16  and  N_17
REMARK    8  A    between atoms: C_24  and  C_25
REMARK                            x       y       z     vdW  Elec       q    Type
REMARK                         _______ _______ _______ _____ _____    ______ ____
ROOT
ATOM      1  C   UNL     1       2.127   3.380  21.654  0.00  0.00    +0.000 C 
ATOM      2  N   UNL     1       2.958   3.053  20.501  0.00  0.00    +0.000 N 
ATOM      3  C   UNL     1       3.156   4.143  19.630  0.00  0.00    +0.000 A 
ATOM      4  C   UNL     1       3.962   3.952  18.516  0.00  0.00    +0.000 A 
ATOM      5  C   UNL     1       4.156   5.001  17.614  0.00  0.00    +0.000 A 
ATOM      6  C   UNL     1       3.496   6.209  17.868  0.00  0.00    +0.000 A 
ATOM      7  C   UNL     1       2.721   6.349  19.017  0.00  0.00    +0.000 A 
ATOM      8  N   UNL     1       2.579   5.330  19.883  0.00  0.00    +0.000 NA
ATOM      9  H   UNL     1       2.560   2.291  19.963  0.00  0.00    +0.000 HD
ENDROOT
BRANCH   7  10
ATOM     10  N   UNL     1       2.064   7.565  19.297  0.00  0.00    +0.000 N 
ATOM     11  C   UNL     1       1.415   7.837  20.563  0.00  0.00    +0.000 C 
ATOM     12  C   UNL     1       0.905   9.233  20.399  0.00  0.00    +0.000 A 
ATOM     13  C   UNL     1       1.231   9.692  19.124  0.00  0.00    +0.000 A 
ATOM     14  C   UNL     1       0.868  10.945  18.666  0.00  0.00    +0.000 A 
ATOM     15  C   UNL     1       0.152  11.766  19.535  0.00  0.00    +0.000 A 
ATOM     16  C   UNL     1      -0.170  11.323  20.832  0.00  0.00    +0.000 A 
ATOM     17  C   UNL     1       0.207  10.044  21.289  0.00  0.00    +0.000 A 
ATOM     18  C   UNL     1       1.988   8.646  18.422  0.00  0.00    +0.000 C 
ATOM     19  O   UNL     1       2.407   8.818  17.293  0.00  0.00    +0.000 OA
BRANCH  17  20
ATOM     20  C   UNL     1      -0.136   9.614  22.691  0.00  0.00    +0.000 C 
ATOM     21  F   UNL     1      -0.819  10.555  23.401  0.00  0.00    +0.000 F 
ATOM     22  F   UNL     1      -0.910   8.495  22.715  0.00  0.00    +0.000 F 
ATOM     23  F   UNL     1       0.969   9.323  23.430  0.00  0.00    +0.000 F 
ENDBRANCH  17  20
ENDBRANCH   7  10
BRANCH   5  24
ATOM     24  C   UNL     1       5.073   4.883  16.411  0.00  0.00    +0.000 C 
ATOM     25  C   UNL     1       5.048   6.175  15.588  0.00  0.00    +0.000 C 
BRANCH  24  26
ATOM     26  S   UNL     1       6.805   4.522  16.860  0.00  0.00    +0.000 S 
BRANCH  26  27
ATOM     27  C   UNL     1       7.395   6.079  17.313  0.00  0.00    +0.000 A 
ATOM     28  N   UNL     1       7.555   7.133  16.544  0.00  0.00    +0.000 NA
ATOM     29  N   UNL     1       8.039   8.155  17.334  0.00  0.00    +0.000 NA
ATOM     30  C   UNL     1       8.152   7.692  18.560  0.00  0.00    +0.000 A 
ATOM     31  N   UNL     1       7.756   6.389  18.592  0.00  0.00    +0.000 N 
ATOM     32  C   UNL     1       7.738   5.536  19.750  0.00  0.00    +0.000 C 
ENDBRANCH  26  27
ENDBRANCH  24  26
ENDBRANCH   5  24
TORSDOF 5
ENDMDL
MODEL 3
REMARK VINA RESULT:      -8.9      1.898      2.827
REMARK  Name = 
REMARK  8 active torsions:
REMARK  status: ('A' for Active; 'I' for Inactive)
REMARK    1  A    between atoms: C_1  and  N_2
REMARK    2  A    between atoms: C_5  and  C_6
REMARK    3  A    between atoms: C_6  and  C_7
REMARK    4  A    between atoms: C_6  and  S_8
REMARK    5  A    between atoms: S_8  and  C_9
REMARK    6  A    between atoms: N_13  and  C_14
REMARK    7  A    between atoms: C_16  and  N_17
REMARK    8  A    between atoms: C_24  and  C_25
REMARK                            x       y       z     vdW  Elec       q    Type
REMARK                         _______ _______ _______ _____ _____    ______ ____
ROOT
ATOM      1  C   UNL     1       1.894   3.006  21.457  0.00  0.00    +0.000 C 
ATOM      2  N   UNL     1       2.783   2.609  20.371  0.00  0.00    +0.000 N 
ATOM      3  C   UNL     1       3.122   3.673  19.512  0.00  0.00    +0.000 A 
ATOM      4  C   UNL     1       3.991   3.413  18.460  0.00  0.00    +0.000 A 
ATOM      5  C   UNL     1       4.327   4.436  17.570  0.00  0.00    +0.000 A 
ATOM      6  C   UNL     1       3.739   5.690  17.769  0.00  0.00    +0.000 A 
ATOM      7  C   UNL     1       2.893   5.897  18.857  0.00  0.00    +0.000 A 
ATOM      8  N   UNL     1       2.615   4.900  19.715  0.00  0.00    +0.000 NA
ATOM      9  H   UNL     1       2.371   1.871  19.808  0.00  0.00    +0.000 HD
ENDROOT
BRANCH   7  10
ATOM     10  N   UNL     1       2.306   7.160  19.080  0.00  0.00    +0.000 N 
ATOM     11  C   UNL     1       1.631   7.507  20.314  0.00  0.00    +0.000 C 
ATOM     12  C   UNL     1       1.219   8.928  20.096  0.00  0.00    +0.000 A 
ATOM     13  C   UNL     1       1.620   9.331  18.823  0.00  0.00    +0.000 A 
ATOM     14  C   UNL     1       1.356  10.591  18.320  0.00  0.00    +0.000 A 
ATOM     15  C   UNL     1       0.664  11.479  19.140  0.00  0.00    +0.000 A 
ATOM     16  C   UNL     1       0.266  11.094  20.435  0.00  0.00    +0.000 A 
ATOM     17  C   UNL     1       0.543   9.807  20.938  0.00  0.00    +0.000 A 
ATOM     18  C   UNL     1       2.333   8.220  18.177  0.00  0.00    +0.000 C 
ATOM     19  O   UNL     1       2.803   8.333  17.060  0.00  0.00    +0.000 OA
BRANCH  17  20
ATOM     20  C   UNL     1       0.122   9.438  22.336  0.00  0.00    +0.000 C 
ATOM     21  F   UNL     1      -0.731   8.377  22.389  0.00  0.00    +0.000 F 
ATOM     22  F   UNL     1       1.180   9.106  23.125  0.00  0.00    +0.000 F 
ATOM     23  F   UNL     1      -0.517  10.458  22.972  0.00  0.00    +0.000 F 
ENDBRANCH  17  20
ENDBRANCH   7  10
BRANCH   5  24
ATOM     24  C   UNL     1       5.318   4.240  16.440  0.00  0.00    +0.000 C 
ATOM     25  C   UNL     1       4.583   4.016  15.114  0.00  0.00    +0.000 C 
BRANCH  24  26
ATOM     26  S   UNL     1       6.460   5.649  16.231  0.00  0.00    +0.000 S 
BRANCH  26  27
ATOM     27  C   UNL     1       7.268   5.691  17.755  0.00  0.00    +0.000 A 
ATOM     28  N   UNL     1       7.492   4.687  18.573  0.00  0.00    +0.000 NA
ATOM     29  N   UNL     1       8.178   5.184  19.662  0.00  0.00    +0.000 NA
ATOM     30  C   UNL     1       8.355   6.473  19.469  0.00  0.00    +0.000 A 
ATOM     31  N   UNL     1       7.799   6.834  18.279  0.00  0.00    +0.000 N 
ATOM     32  C   UNL     1       7.783   8.158  17.716  0.00  0.00    +0.000 C 
ENDBRANCH  26  27
ENDBRANCH  24  26
ENDBRANCH   5  24
TORSDOF 5
ENDMDL
MODEL 4
REMARK VINA RESULT:      -8.9      2.180      2.655
REMARK  Name = 
REMARK  8 active torsions:
REMARK  status: ('A' for Active; 'I' for Inactive)
REMARK    1  A    between atoms: C_1  and  N_2
REMARK    2  A    between atoms: C_5  and  C_6
REMARK    3  A    between atoms: C_6  and  C_7
REMARK    4  A    between atoms: C_6  and  S_8
REMARK    5  A    between atoms: S_8  and  C_9
REMARK    6  A    between atoms: N_13  and  C_14
REMARK    7  A    between atoms: C_16  and  N_17
REMARK    8  A    between atoms: C_24  and  C_25
REMARK                            x       y       z     vdW  Elec       q    Type
REMARK                         _______ _______ _______ _____ _____    ______ ____
ROOT
ATOM      1  C   UNL     1       0.917   2.549  18.683  0.00  0.00    +0.000 C 
ATOM      2  N   UNL     1       2.090   2.638  17.821  0.00  0.00    +0.000 N 
ATOM      3  C   UNL     1       2.699   3.909  17.839  0.00  0.00    +0.000 A 
ATOM      4  C   UNL     1       3.846   4.095  17.079  0.00  0.00    +0.000 A 
ATOM      5  C   UNL     1       4.460   5.350  17.048  0.00  0.00    +0.000 A 
ATOM      6  C   UNL     1       3.864   6.385  17.777  0.00  0.00    +0.000 A 
ATOM      7  C   UNL     1       2.727   6.130  18.542  0.00  0.00    +0.000 A 
ATOM      8  N   UNL     1       2.177   4.904  18.576  0.00  0.00    +0.000 NA
ATOM      9  H   UNL     1       1.858   2.416  16.859  0.00  0.00    +0.000 HD
ENDROOT
BRANCH   7  10
ATOM     10  N   UNL     1       2.124   7.158  19.296  0.00  0.00    +0.000 N 
ATOM     11  C   UNL     1       1.906   8.493  18.775  0.00  0.00    +0.000 C 
ATOM     12  C   UNL     1       1.222   9.198  19.903  0.00  0.00    +0.000 A 
ATOM     13  C   UNL     1       1.091   8.321  20.978  0.00  0.00    +0.000 A 
ATOM     14  C   UNL     1       0.520   8.693  22.181  0.00  0.00    +0.000 A 
ATOM     15  C   UNL     1       0.059  10.003  22.296  0.00  0.00    +0.000 A 
ATOM     16  C   UNL     1       0.169  10.896  21.214  0.00  0.00    +0.000 A 
ATOM     17  C   UNL     1       0.751  10.505  19.991  0.00  0.00    +0.000 A 
ATOM     18  C   UNL     1       1.641   7.013  20.594  0.00  0.00    +0.000 C 
ATOM     19  O   UNL     1       1.623   6.069  21.361  0.00  0.00    +0.000 OA
BRANCH  17  20
ATOM     20  C   UNL     1       0.831  11.481  18.848  0.00  0.00    +0.000 C 
ATOM     21  F   UNL     1       2.028  11.469  18.200  0.00  0.00    +0.000 F 
ATOM     22  F   UNL     1      -0.111  11.242  17.895  0.00  0.00    +0.000 F 
ATOM     23  F   UNL     1       0.641  12.768  19.250  0.00  0.00    +0.000 F 
ENDBRANCH  17  20
ENDBRANCH   7  10
BRANCH   5  24
ATOM     24  C   UNL     1       5.749   5.607  16.291  0.00  0.00    +0.000 C 
ATOM     25  C   UNL     1       6.801   6.223  17.220  0.00  0.00    +0.000 C 
BRANCH  24  26
ATOM     26  S   UNL     1       6.457   4.101  15.542  0.00  0.00    +0.000 S 
BRANCH  26  27
ATOM     27  C   UNL     1       7.124   4.707  14.070  0.00  0.00    +0.000 A 
ATOM     28  N   UNL     1       8.058   5.620  13.927  0.00  0.00    +0.000 NA
ATOM     29  N   UNL     1       8.281   5.779  12.575  0.00  0.00    +0.000 NA
ATOM     30  C   UNL     1       7.480   4.952  11.938  0.00  0.00    +0.000 A 
ATOM     31  N   UNL     1       6.734   4.256  12.841  0.00  0.00    +0.000 N 
ATOM     32  C   UNL     1       5.742   3.261  12.536  0.00  0.00    +0.000 C 
ENDBRANCH  26  27
ENDBRANCH  24  26
ENDBRANCH   5  24
TORSDOF 5
ENDMDL
MODEL 5
REMARK VINA RESULT:      -8.9      1.966      2.940
REMARK  Name = 
REMARK  8 active torsions:
REMARK  status: ('A' for Active; 'I' for Inactive)
REMARK    1  A    between atoms: C_1  and  N_2
REMARK    2  A    between atoms: C_5  and  C_6
REMARK    3  A    between atoms: C_6  and  C_7
REMARK    4  A    between atoms: C_6  and  S_8
REMARK    5  A    between atoms: S_8  and  C_9
REMARK    6  A    between atoms: N_13  and  C_14
REMARK    7  A    between atoms: C_16  and  N_17
REMARK    8  A    between atoms: C_24  and  C_25
REMARK                            x       y       z     vdW  Elec       q    Type
REMARK                         _______ _______ _______ _____ _____    ______ ____
ROOT
ATOM      1  C   UNL     1       0.931   2.618  19.750  0.00  0.00    +0.000 C 
ATOM      2  N   UNL     1       2.026   2.284  18.845  0.00  0.00    +0.000 N 
ATOM      3  C   UNL     1       2.700   3.417  18.347  0.00  0.00    +0.000 A 
ATOM      4  C   UNL     1       3.783   3.213  17.502  0.00  0.00    +0.000 A 
ATOM      5  C   UNL     1       4.458   4.312  16.964  0.00  0.00    +0.000 A 
ATOM      6  C   UNL     1       3.985   5.589  17.288  0.00  0.00    +0.000 A 
ATOM      7  C   UNL     1       2.909   5.730  18.162  0.00  0.00    +0.000 A 
ATOM      8  N   UNL     1       2.300   4.653  18.689  0.00  0.00    +0.000 NA
ATOM      9  H   UNL     1       1.697   1.742  18.053  0.00  0.00    +0.000 HD
ENDROOT
BRANCH   7  10
ATOM     10  N   UNL     1       2.432   7.010  18.513  0.00  0.00    +0.000 N 
ATOM     11  C   UNL     1       1.764   7.285  19.769  0.00  0.00    +0.000 C 
ATOM     12  C   UNL     1       1.484   8.753  19.699  0.00  0.00    +0.000 A 
ATOM     13  C   UNL     1       1.945   9.248  18.480  0.00  0.00    +0.000 A 
ATOM     14  C   UNL     1       1.804  10.573  18.111  0.00  0.00    +0.000 A 
ATOM     15  C   UNL     1       1.176  11.429  19.014  0.00  0.00    +0.000 A 
ATOM     16  C   UNL     1       0.720  10.947  20.255  0.00  0.00    +0.000 A 
ATOM     17  C   UNL     1       0.871   9.595  20.622  0.00  0.00    +0.000 A 
ATOM     18  C   UNL     1       2.570   8.152  17.727  0.00  0.00    +0.000 C 
ATOM     19  O   UNL     1       3.071   8.339  16.634  0.00  0.00    +0.000 OA
BRANCH  17  20
ATOM     20  C   UNL     1       0.391   9.121  21.968  0.00  0.00    +0.000 C 
ATOM     21  F   UNL     1      -0.134  10.111  22.741  0.00  0.00    +0.000 F 
ATOM     22  F   UNL     1      -0.579   8.172  21.867  0.00  0.00    +0.000 F 
ATOM     23  F   UNL     1       1.388   8.563  22.708  0.00  0.00    +0.000 F 
ENDBRANCH  17  20
ENDBRANCH   7  10
BRANCH   5  24
ATOM     24  C   UNL     1       5.686   4.165  16.087  0.00  0.00    +0.000 C 
ATOM     25  C   UNL     1       5.280   3.828  14.648  0.00  0.00    +0.000 C 
BRANCH  24  26
ATOM     26  S   UNL     1       6.731   5.661  16.052  0.00  0.00    +0.000 S 
BRANCH  26  27
ATOM     27  C   UNL     1       7.388   5.682  17.648  0.00  0.00    +0.000 A 
ATOM     28  N   UNL     1       7.557   4.663  18.461  0.00  0.00    +0.000 NA
ATOM     29  N   UNL     1       8.123   5.148  19.622  0.00  0.00    +0.000 NA
ATOM     30  C   UNL     1       8.286   6.445  19.476  0.00  0.00    +0.000 A 
ATOM     31  N   UNL     1       7.837   6.824  18.247  0.00  0.00    +0.000 N 
ATOM     32  C   UNL     1       7.843   8.161  17.716  0.00  0.00    +0.000 C 
ENDBRANCH  26  27
ENDBRANCH  24  26
ENDBRANCH   5  24
TORSDOF 5
ENDMDL
MODEL 6
REMARK VINA RESULT:      -8.8      1.826      2.652
REMARK  Name = 
REMARK  8 active torsions:
REMARK  status: ('A' for Active; 'I' for Inactive)
REMARK    1  A    between atoms: C_1  and  N_2
REMARK    2  A    between atoms: C_5  and  C_6
REMARK    3  A    between atoms: C_6  and  C_7
REMARK    4  A    between atoms: C_6  and  S_8
REMARK    5  A    between atoms: S_8  and  C_9
REMARK    6  A    between atoms: N_13  and  C_14
REMARK    7  A    between atoms: C_16  and  N_17
REMARK    8  A    between atoms: C_24  and  C_25
REMARK                            x       y       z     vdW  Elec       q    Type
REMARK                         _______ _______ _______ _____ _____    ______ ____
ROOT
ATOM      1  C   UNL     1       2.353   3.445  21.432  0.00  0.00    +0.000 C 
ATOM      2  N   UNL     1       3.112   3.164  20.218  0.00  0.00    +0.000 N 
ATOM      3  C   UNL     1       3.235   4.281  19.368  0.00  0.00    +0.000 A 
ATOM      4  C   UNL     1       3.968   4.135  18.198  0.00  0.00    +0.000 A 
ATOM      5  C   UNL     1       4.087   5.212  17.315  0.00  0.00    +0.000 A 
ATOM      6  C   UNL     1       3.427   6.401  17.647  0.00  0.00    +0.000 A 
ATOM      7  C   UNL     1       2.727   6.495  18.848  0.00  0.00    +0.000 A 
ATOM      8  N   UNL     1       2.658   5.451  19.692  0.00  0.00    +0.000 NA
ATOM      9  H   UNL     1       2.690   2.411  19.686  0.00  0.00    +0.000 HD
ENDROOT
BRANCH   7  10
ATOM     10  N   UNL     1       2.071   7.692  19.205  0.00  0.00    +0.000 N 
ATOM     11  C   UNL     1       1.446   7.893  20.496  0.00  0.00    +0.000 C 
ATOM     12  C   UNL     1       0.929   9.294  20.417  0.00  0.00    +0.000 A 
ATOM     13  C   UNL     1       1.228   9.822  19.163  0.00  0.00    +0.000 A 
ATOM     14  C   UNL     1       0.852  11.095  18.779  0.00  0.00    +0.000 A 
ATOM     15  C   UNL     1       0.150  11.865  19.705  0.00  0.00    +0.000 A 
ATOM     16  C   UNL     1      -0.145  11.352  20.982  0.00  0.00    +0.000 A 
ATOM     17  C   UNL     1       0.245  10.053  21.363  0.00  0.00    +0.000 A 
ATOM     18  C   UNL     1       1.975   8.818  18.391  0.00  0.00    +0.000 C 
ATOM     19  O   UNL     1       2.371   9.052  17.265  0.00  0.00    +0.000 OA
BRANCH  17  20
ATOM     20  C   UNL     1      -0.069   9.547  22.746  0.00  0.00    +0.000 C 
ATOM     21  F   UNL     1      -0.758  10.438  23.511  0.00  0.00    +0.000 F 
ATOM     22  F   UNL     1      -0.822   8.414  22.724  0.00  0.00    +0.000 F 
ATOM     23  F   UNL     1       1.052   9.241  23.454  0.00  0.00    +0.000 F 
ENDBRANCH  17  20
ENDBRANCH   7  10
BRANCH   5  24
ATOM     24  C   UNL     1       4.924   5.142  16.053  0.00  0.00    +0.000 C 
ATOM     25  C   UNL     1       5.107   6.541  15.453  0.00  0.00    +0.000 C 
BRANCH  24  26
ATOM     26  S   UNL     1       6.576   4.414  16.323  0.00  0.00    +0.000 S 
BRANCH  26  27
ATOM     27  C   UNL     1       6.997   5.037  17.877  0.00  0.00    +0.000 A 
ATOM     28  N   UNL     1       6.942   4.415  19.034  0.00  0.00    +0.000 NA
ATOM     29  N   UNL     1       7.384   5.296  19.999  0.00  0.00    +0.000 NA
ATOM     30  C   UNL     1       7.700   6.423  19.399  0.00  0.00    +0.000 A 
ATOM     31  N   UNL     1       7.473   6.303  18.061  0.00  0.00    +0.000 N 
ATOM     32  C   UNL     1       7.693   7.321  17.068  0.00  0.00    +0.000 C 
ENDBRANCH  26  27
ENDBRANCH  24  26
ENDBRANCH   5  24
TORSDOF 5
ENDMDL
MODEL 7
REMARK VINA RESULT:      -8.4      4.509      9.611
REMARK  Name = 
REMARK  8 active torsions:
REMARK  status: ('A' for Active; 'I' for Inactive)
REMARK    1  A    between atoms: C_1  and  N_2
REMARK    2  A    between atoms: C_5  and  C_6
REMARK    3  A    between atoms: C_6  and  C_7
REMARK    4  A    between atoms: C_6  and  S_8
REMARK    5  A    between atoms: S_8  and  C_9
REMARK    6  A    between atoms: N_13  and  C_14
REMARK    7  A    between atoms: C_16  and  N_17
REMARK    8  A    between atoms: C_24  and  C_25
REMARK                            x       y       z     vdW  Elec       q    Type
REMARK                         _______ _______ _______ _____ _____    ______ ____
ROOT
ATOM      1  C   UNL     1       2.537  12.192  17.494  0.00  0.00    +0.000 C 
ATOM      2  N   UNL     1       1.563  12.476  18.541  0.00  0.00    +0.000 N 
ATOM      3  C   UNL     1       1.229  11.345  19.312  0.00  0.00    +0.000 A 
ATOM      4  C   UNL     1       0.333  11.509  20.360  0.00  0.00    +0.000 A 
ATOM      5  C   UNL     1      -0.045  10.404  21.128  0.00  0.00    +0.000 A 
ATOM      6  C   UNL     1       0.487   9.158  20.780  0.00  0.00    +0.000 A 
ATOM      7  C   UNL     1       1.401   9.060  19.733  0.00  0.00    +0.000 A 
ATOM      8  N   UNL     1       1.770  10.147  19.034  0.00  0.00    +0.000 NA
ATOM      9  H   UNL     1       0.705  12.855  18.153  0.00  0.00    +0.000 HD
ENDROOT
BRANCH   7  10
ATOM     10  N   UNL     1       1.959   7.813  19.382  0.00  0.00    +0.000 N 
ATOM     11  C   UNL     1       1.819   6.628  20.203  0.00  0.00    +0.000 C 
ATOM     12  C   UNL     1       2.531   5.574  19.416  0.00  0.00    +0.000 A 
ATOM     13  C   UNL     1       3.047   6.142  18.253  0.00  0.00    +0.000 A 
ATOM     14  C   UNL     1       3.783   5.421  17.332  0.00  0.00    +0.000 A 
ATOM     15  C   UNL     1       4.001   4.071  17.598  0.00  0.00    +0.000 A 
ATOM     16  C   UNL     1       3.473   3.478  18.760  0.00  0.00    +0.000 A 
ATOM     17  C   UNL     1       2.721   4.223  19.691  0.00  0.00    +0.000 A 
ATOM     18  C   UNL     1       2.669   7.562  18.210  0.00  0.00    +0.000 C 
ATOM     19  O   UNL     1       2.986   8.274  17.275  0.00  0.00    +0.000 OA
BRANCH  17  20
ATOM     20  C   UNL     1       2.152   3.549  20.911  0.00  0.00    +0.000 C 
ATOM     21  F   UNL     1       2.546   2.253  21.055  0.00  0.00    +0.000 F 
ATOM     22  F   UNL     1       2.510   4.177  22.064  0.00  0.00    +0.000 F 
ATOM     23  F   UNL     1       0.792   3.523  20.904  0.00  0.00    +0.000 F 
ENDBRANCH  17  20
ENDBRANCH   7  10
BRANCH   5  24
ATOM     24  C   UNL     1      -0.968  10.522  22.325  0.00  0.00    +0.000 C 
ATOM     25  C   UNL     1      -0.411   9.728  23.512  0.00  0.00    +0.000 C 
BRANCH  24  26
ATOM     26  S   UNL     1      -1.232  12.246  22.864  0.00  0.00    +0.000 S 
BRANCH  26  27
ATOM     27  C   UNL     1      -2.954  12.368  22.861  0.00  0.00    +0.000 A 
ATOM     28  N   UNL     1      -3.775  12.180  23.870  0.00  0.00    +0.000 NA
ATOM     29  N   UNL     1      -5.057  12.394  23.407  0.00  0.00    +0.000 NA
ATOM     30  C   UNL     1      -4.975  12.712  22.134  0.00  0.00    +0.000 A 
ATOM     31  N   UNL     1      -3.668  12.708  21.748  0.00  0.00    +0.000 N 
ATOM     32  C   UNL     1      -3.171  13.001  20.430  0.00  0.00    +0.000 C 
ENDBRANCH  26  27
ENDBRANCH  24  26
ENDBRANCH   5  24
TORSDOF 5
ENDMDL
MODEL 8
REMARK VINA RESULT:      -8.4      2.717      3.756
REMARK  Name = 
REMARK  8 active torsions:
REMARK  status: ('A' for Active; 'I' for Inactive)
REMARK    1  A    between atoms: C_1  and  N_2
REMARK    2  A    between atoms: C_5  and  C_6
REMARK    3  A    between atoms: C_6  and  C_7
REMARK    4  A    between atoms: C_6  and  S_8
REMARK    5  A    between atoms: S_8  and  C_9
REMARK    6  A    between atoms: N_13  and  C_14
REMARK    7  A    between atoms: C_16  and  N_17
REMARK    8  A    between atoms: C_24  and  C_25
REMARK                            x       y       z     vdW  Elec       q    Type
REMARK                         _______ _______ _______ _____ _____    ______ ____
ROOT
ATOM      1  C   UNL     1       1.809   1.802  19.083  0.00  0.00    +0.000 C 
ATOM      2  N   UNL     1       2.741   1.953  17.970  0.00  0.00    +0.000 N 
ATOM      3  C   UNL     1       3.128   3.289  17.746  0.00  0.00    +0.000 A 
ATOM      4  C   UNL     1       4.041   3.544  16.731  0.00  0.00    +0.000 A 
ATOM      5  C   UNL     1       4.425   4.860  16.459  0.00  0.00    +0.000 A 
ATOM      6  C   UNL     1       3.842   5.879  17.220  0.00  0.00    +0.000 A 
ATOM      7  C   UNL     1       2.951   5.559  18.243  0.00  0.00    +0.000 A 
ATOM      8  N   UNL     1       2.625   4.280  18.501  0.00  0.00    +0.000 NA
ATOM      9  H   UNL     1       2.347   1.593  17.108  0.00  0.00    +0.000 HD
ENDROOT
BRANCH   7  10
ATOM     10  N   UNL     1       2.368   6.573  19.030  0.00  0.00    +0.000 N 
ATOM     11  C   UNL     1       2.059   7.891  18.514  0.00  0.00    +0.000 C 
ATOM     12  C   UNL     1       1.435   8.585  19.683  0.00  0.00    +0.000 A 
ATOM     13  C   UNL     1       1.420   7.717  20.774  0.00  0.00    +0.000 A 
ATOM     14  C   UNL     1       0.927   8.083  22.013  0.00  0.00    +0.000 A 
ATOM     15  C   UNL     1       0.426   9.377  22.150  0.00  0.00    +0.000 A 
ATOM     16  C   UNL     1       0.420  10.259  21.053  0.00  0.00    +0.000 A 
ATOM     17  C   UNL     1       0.923   9.874  19.794  0.00  0.00    +0.000 A 
ATOM     18  C   UNL     1       1.990   6.427  20.363  0.00  0.00    +0.000 C 
ATOM     19  O   UNL     1       2.066   5.492  21.139  0.00  0.00    +0.000 OA
BRANCH  17  20
ATOM     20  C   UNL     1       0.878  10.838  18.638  0.00  0.00    +0.000 C 
ATOM     21  F   UNL     1       2.107  11.179  18.162  0.00  0.00    +0.000 F 
ATOM     22  F   UNL     1       0.191  10.340  17.574  0.00  0.00    +0.000 F 
ATOM     23  F   UNL     1       0.269  12.011  18.963  0.00  0.00    +0.000 F 
ENDBRANCH  17  20
ENDBRANCH   7  10
BRANCH   5  24
ATOM     24  C   UNL     1       5.464   5.204  15.410  0.00  0.00    +0.000 C 
ATOM     25  C   UNL     1       5.429   6.703  15.093  0.00  0.00    +0.000 C 
BRANCH  24  26
ATOM     26  S   UNL     1       7.165   4.764  15.907  0.00  0.00    +0.000 S 
BRANCH  26  27
ATOM     27  C   UNL     1       7.159   5.138  17.592  0.00  0.00    +0.000 A 
ATOM     28  N   UNL     1       6.908   4.326  18.595  0.00  0.00    +0.000 NA
ATOM     29  N   UNL     1       7.028   5.055  19.759  0.00  0.00    +0.000 NA
ATOM     30  C   UNL     1       7.354   6.285  19.429  0.00  0.00    +0.000 A 
ATOM     31  N   UNL     1       7.449   6.382  18.073  0.00  0.00    +0.000 N 
ATOM     32  C   UNL     1       7.782   7.566  17.328  0.00  0.00    +0.000 C 
ENDBRANCH  26  27
ENDBRANCH  24  26
ENDBRANCH   5  24
TORSDOF 5
ENDMDL
MODEL 9
REMARK VINA RESULT:      -8.4      0.796      1.435
REMARK  Name = 
REMARK  8 active torsions:
REMARK  status: ('A' for Active; 'I' for Inactive)
REMARK    1  A    between atoms: C_1  and  N_2
REMARK    2  A    between atoms: C_5  and  C_6
REMARK    3  A    between atoms: C_6  and  C_7
REMARK    4  A    between atoms: C_6  and  S_8
REMARK    5  A    between atoms: S_8  and  C_9
REMARK    6  A    between atoms: N_13  and  C_14
REMARK    7  A    between atoms: C_16  and  N_17
REMARK    8  A    between atoms: C_24  and  C_25
REMARK                            x       y       z     vdW  Elec       q    Type
REMARK                         _______ _______ _______ _____ _____    ______ ____
ROOT
ATOM      1  C   UNL     1       1.504   3.462  20.553  0.00  0.00    +0.000 C 
ATOM      2  N   UNL     1       2.538   3.344  19.530  0.00  0.00    +0.000 N 
ATOM      3  C   UNL     1       2.907   4.581  18.966  0.00  0.00    +0.000 A 
ATOM      4  C   UNL     1       3.909   4.588  18.004  0.00  0.00    +0.000 A 
ATOM      5  C   UNL     1       4.280   5.792  17.400  0.00  0.00    +0.000 A 
ATOM      6  C   UNL     1       3.593   6.950  17.781  0.00  0.00    +0.000 A 
ATOM      7  C   UNL     1       2.614   6.884  18.770  0.00  0.00    +0.000 A 
ATOM      8  N   UNL     1       2.301   5.715  19.356  0.00  0.00    +0.000 NA
ATOM      9  H   UNL     1       2.243   2.731  18.777  0.00  0.00    +0.000 HD
ENDROOT
BRANCH   7  10
ATOM     10  N   UNL     1       1.925   8.045  19.177  0.00  0.00    +0.000 N 
ATOM     11  C   UNL     1       1.303   8.176  20.479  0.00  0.00    +0.000 C 
ATOM     12  C   UNL     1       0.743   9.563  20.458  0.00  0.00    +0.000 A 
ATOM     13  C   UNL     1       1.019  10.149  19.224  0.00  0.00    +0.000 A 
ATOM     14  C   UNL     1       0.602  11.425  18.893  0.00  0.00    +0.000 A 
ATOM     15  C   UNL     1      -0.116  12.136  19.852  0.00  0.00    +0.000 A 
ATOM     16  C   UNL     1      -0.388  11.565  21.110  0.00  0.00    +0.000 A 
ATOM     17  C   UNL     1       0.044  10.264  21.437  0.00  0.00    +0.000 A 
ATOM     18  C   UNL     1       1.790   9.199  18.410  0.00  0.00    +0.000 C 
ATOM     19  O   UNL     1       2.172   9.489  17.291  0.00  0.00    +0.000 OA
BRANCH  17  20
ATOM     20  C   UNL     1      -0.246   9.695  22.800  0.00  0.00    +0.000 C 
ATOM     21  F   UNL     1      -0.927   8.516  22.768  0.00  0.00    +0.000 F 
ATOM     22  F   UNL     1       0.888   9.451  23.512  0.00  0.00    +0.000 F 
ATOM     23  F   UNL     1      -0.997  10.534  23.565  0.00  0.00    +0.000 F 
ENDBRANCH  17  20
ENDBRANCH   7  10
BRANCH   5  24
ATOM     24  C   UNL     1       5.408   5.883  16.391  0.00  0.00    +0.000 C 
ATOM     25  C   UNL     1       6.419   6.956  16.812  0.00  0.00    +0.000 C 
BRANCH  24  26
ATOM     26  S   UNL     1       6.304   4.308  16.168  0.00  0.00    +0.000 S 
BRANCH  26  27
ATOM     27  C   UNL     1       6.172   4.053  14.466  0.00  0.00    +0.000 A 
ATOM     28  N   UNL     1       5.261   3.354  13.827  0.00  0.00    +0.000 NA
ATOM     29  N   UNL     1       5.545   3.436  12.479  0.00  0.00    +0.000 NA
ATOM     30  C   UNL     1       6.615   4.188  12.341  0.00  0.00    +0.000 A 
ATOM     31  N   UNL     1       7.043   4.599  13.568  0.00  0.00    +0.000 N 
ATOM     32  C   UNL     1       8.185   5.432  13.833  0.00  0.00    +0.000 C 
ENDBRANCH  26  27
ENDBRANCH  24  26
ENDBRANCH   5  24
TORSDOF 5
ENDMDL
