MODEL 1
REMARK VINA RESULT:      -8.6      0.000      0.000
REMARK  Name = 
REMARK  8 active torsions:
REMARK  status: ('A' for Active; 'I' for Inactive)
REMARK    1  A    between atoms: C_1  and  C_2
REMARK    2  A    between atoms: C_4  and  C_5
REMARK    3  A    between atoms: N_7  and  C_8
REMARK    4  A    between atoms: C_12  and  C_13
REMARK    5  A    between atoms: C_13  and  C_14
REMARK    6  A    between atoms: C_13  and  S_15
REMARK    7  A    between atoms: S_15  and  C_16
REMARK    8  A    between atoms: N_20  and  C_21
REMARK                            x       y       z     vdW  Elec       q    Type
REMARK                         _______ _______ _______ _____ _____    ______ ____
ROOT
ATOM      1  C   UNL     1       8.041   8.285  18.240  0.00  0.00    +0.000 C 
ATOM      2  O   UNL     1       8.593   7.423  18.918  0.00  0.00    +0.000 OA
ATOM      3  N   UNL     1       6.984   8.088  17.358  0.00  0.00    +0.000 N 
ATOM      4  H   UNL     1       6.759   8.885  16.768  0.00  0.00    +0.000 HD
ENDROOT
BRANCH   1   8
ATOM      5  C   UNL     1       7.588  13.098  17.025  0.00  0.00    +0.000 C 
ATOM      6  C   UNL     1       8.357  12.001  17.713  0.00  0.00    +0.000 A 
ATOM      7  C   UNL     1       7.868  10.697  17.654  0.00  0.00    +0.000 A 
ATOM      8  C   UNL     1       8.570   9.684  18.295  0.00  0.00    +0.000 A 
ATOM      9  N   UNL     1       9.718   9.881  18.990  0.00  0.00    +0.000 NA
ATOM     10  C   UNL     1      10.198  11.135  19.037  0.00  0.00    +0.000 A 
ATOM     11  C   UNL     1      11.382  11.353  19.726  0.00  0.00    +0.000 A 
ATOM     12  C   UNL     1      11.951  12.623  19.837  0.00  0.00    +0.000 A 
ATOM     13  C   UNL     1      11.328  13.712  19.244  0.00  0.00    +0.000 A 
ATOM     14  C   UNL     1      10.141  13.525  18.540  0.00  0.00    +0.000 A 
ATOM     15  C   UNL     1       9.557  12.242  18.421  0.00  0.00    +0.000 A 
ENDBRANCH   1   8
BRANCH   3  16
ATOM     16  C   UNL     1       6.356   6.848  17.103  0.00  0.00    +0.000 A 
ATOM     17  C   UNL     1       6.970   5.856  16.335  0.00  0.00    +0.000 A 
ATOM     18  C   UNL     1       6.312   4.664  16.047  0.00  0.00    +0.000 A 
ATOM     19  C   UNL     1       5.016   4.460  16.506  0.00  0.00    +0.000 A 
ATOM     20  C   UNL     1       4.359   5.439  17.273  0.00  0.00    +0.000 A 
ATOM     21  C   UNL     1       5.065   6.614  17.611  0.00  0.00    +0.000 A 
BRANCH  20  22
ATOM     22  C   UNL     1       2.887   5.253  17.660  0.00  0.00    +0.000 C 
ATOM     23  C   UNL     1       2.601   5.918  19.011  0.00  0.00    +0.000 C 
BRANCH  22  24
ATOM     24  S   UNL     1       2.503   3.437  17.658  0.00  0.00    +0.000 S 
BRANCH  24  25
ATOM     25  C   UNL     1       2.151   3.089  19.310  0.00  0.00    +0.000 A 
ATOM     26  N   UNL     1       0.982   3.145  19.899  0.00  0.00    +0.000 NA
ATOM     27  N   UNL     1       1.167   2.879  21.237  0.00  0.00    +0.000 NA
ATOM     28  C   UNL     1       2.445   2.636  21.419  0.00  0.00    +0.000 A 
ATOM     29  N   UNL     1       3.101   2.722  20.225  0.00  0.00    +0.000 N 
ATOM     30  C   UNL     1       4.498   2.446  20.025  0.00  0.00    +0.000 C 
ENDBRANCH  24  25
ENDBRANCH  22  24
ENDBRANCH  20  22
ENDBRANCH   3  16
TORSDOF 5
ENDMDL
MODEL 2
REMARK VINA RESULT:      -8.4      0.649      1.205
REMARK  Name = 
REMARK  8 active torsions:
REMARK  status: ('A' for Active; 'I' for Inactive)
REMARK    1  A    between atoms: C_1  and  C_2
REMARK    2  A    between atoms: C_4  and  C_5
REMARK    3  A    between atoms: N_7  and  C_8
REMARK    4  A    between atoms: C_12  and  C_13
REMARK    5  A    between atoms: C_13  and  C_14
REMARK    6  A    between atoms: C_13  and  S_15
REMARK    7  A    between atoms: S_15  and  C_16
REMARK    8  A    between atoms: N_20  and  C_21
REMARK                            x       y       z     vdW  Elec       q    Type
REMARK                         _______ _______ _______ _____ _____    ______ ____
ROOT
ATOM      1  C   UNL     1       8.152   8.346  18.245  0.00  0.00    +0.000 C 
ATOM      2  O   UNL     1       8.647   7.513  18.999  0.00  0.00    +0.000 OA
ATOM      3  N   UNL     1       7.186   8.109  17.274  0.00  0.00    +0.000 N 
ATOM      4  H   UNL     1       7.010   8.885  16.641  0.00  0.00    +0.000 HD
ENDROOT
BRANCH   1   8
ATOM      5  C   UNL     1       7.602  13.163  17.087  0.00  0.00    +0.000 C 
ATOM      6  C   UNL     1       8.399  12.073  17.752  0.00  0.00    +0.000 A 
ATOM      7  C   UNL     1       7.930  10.761  17.687  0.00  0.00    +0.000 A 
ATOM      8  C   UNL     1       8.660   9.754  18.306  0.00  0.00    +0.000 A 
ATOM      9  N   UNL     1       9.816   9.963  18.985  0.00  0.00    +0.000 NA
ATOM     10  C   UNL     1      10.276  11.223  19.037  0.00  0.00    +0.000 A 
ATOM     11  C   UNL     1      11.467  11.454  19.709  0.00  0.00    +0.000 A 
ATOM     12  C   UNL     1      12.017  12.733  19.824  0.00  0.00    +0.000 A 
ATOM     13  C   UNL     1      11.366  13.817  19.252  0.00  0.00    +0.000 A 
ATOM     14  C   UNL     1      10.171  13.617  18.565  0.00  0.00    +0.000 A 
ATOM     15  C   UNL     1       9.607  12.326  18.442  0.00  0.00    +0.000 A 
ENDBRANCH   1   8
BRANCH   3  16
ATOM     16  C   UNL     1       6.598   6.853  17.000  0.00  0.00    +0.000 A 
ATOM     17  C   UNL     1       7.234   5.901  16.201  0.00  0.00    +0.000 A 
ATOM     18  C   UNL     1       6.614   4.693  15.896  0.00  0.00    +0.000 A 
ATOM     19  C   UNL     1       5.333   4.434  16.369  0.00  0.00    +0.000 A 
ATOM     20  C   UNL     1       4.653   5.372  17.167  0.00  0.00    +0.000 A 
ATOM     21  C   UNL     1       5.324   6.564  17.522  0.00  0.00    +0.000 A 
BRANCH  20  22
ATOM     22  C   UNL     1       3.195   5.126  17.571  0.00  0.00    +0.000 C 
ATOM     23  C   UNL     1       2.883   5.823  18.900  0.00  0.00    +0.000 C 
BRANCH  22  24
ATOM     24  S   UNL     1       2.903   3.294  17.634  0.00  0.00    +0.000 S 
BRANCH  24  25
ATOM     25  C   UNL     1       3.433   2.848  19.214  0.00  0.00    +0.000 A 
ATOM     26  N   UNL     1       4.665   2.617  19.599  0.00  0.00    +0.000 NA
ATOM     27  N   UNL     1       4.628   2.204  20.912  0.00  0.00    +0.000 NA
ATOM     28  C   UNL     1       3.373   2.225  21.298  0.00  0.00    +0.000 A 
ATOM     29  N   UNL     1       2.586   2.659  20.272  0.00  0.00    +0.000 N 
ATOM     30  C   UNL     1       1.167   2.881  20.350  0.00  0.00    +0.000 C 
ENDBRANCH  24  25
ENDBRANCH  22  24
ENDBRANCH  20  22
ENDBRANCH   3  16
TORSDOF 5
ENDMDL
MODEL 3
REMARK VINA RESULT:      -8.3      5.495      7.827
REMARK  Name = 
REMARK  8 active torsions:
REMARK  status: ('A' for Active; 'I' for Inactive)
REMARK    1  A    between atoms: C_1  and  C_2
REMARK    2  A    between atoms: C_4  and  C_5
REMARK    3  A    between atoms: N_7  and  C_8
REMARK    4  A    between atoms: C_12  and  C_13
REMARK    5  A    between atoms: C_13  and  C_14
REMARK    6  A    between atoms: C_13  and  S_15
REMARK    7  A    between atoms: S_15  and  C_16
REMARK    8  A    between atoms: N_20  and  C_21
REMARK                            x       y       z     vdW  Elec       q    Type
REMARK                         _______ _______ _______ _____ _____    ______ ____
ROOT
ATOM      1  C   UNL     1       2.213   8.052  18.225  0.00  0.00    +0.000 C 
ATOM      2  O   UNL     1       2.595   8.372  17.103  0.00  0.00    +0.000 OA
ATOM      3  N   UNL     1       2.298   6.787  18.796  0.00  0.00    +0.000 N 
ATOM      4  H   UNL     1       1.791   6.671  19.669  0.00  0.00    +0.000 HD
ENDROOT
BRANCH   1   8
ATOM      5  C   UNL     1       0.599  12.731  18.814  0.00  0.00    +0.000 C 
ATOM      6  C   UNL     1       0.748  11.334  19.354  0.00  0.00    +0.000 A 
ATOM      7  C   UNL     1       1.395  10.376  18.574  0.00  0.00    +0.000 A 
ATOM      8  C   UNL     1       1.526   9.084  19.067  0.00  0.00    +0.000 A 
ATOM      9  N   UNL     1       1.057   8.681  20.274  0.00  0.00    +0.000 NA
ATOM     10  C   UNL     1       0.446   9.605  21.032  0.00  0.00    +0.000 A 
ATOM     11  C   UNL     1      -0.023   9.217  22.279  0.00  0.00    +0.000 A 
ATOM     12  C   UNL     1      -0.681  10.106  23.132  0.00  0.00    +0.000 A 
ATOM     13  C   UNL     1      -0.878  11.422  22.738  0.00  0.00    +0.000 A 
ATOM     14  C   UNL     1      -0.413  11.844  21.494  0.00  0.00    +0.000 A 
ATOM     15  C   UNL     1       0.255  10.952  20.624  0.00  0.00    +0.000 A 
ENDBRANCH   1   8
BRANCH   3  16
ATOM     16  C   UNL     1       2.858   5.649  18.171  0.00  0.00    +0.000 A 
ATOM     17  C   UNL     1       2.130   4.470  18.002  0.00  0.00    +0.000 A 
ATOM     18  C   UNL     1       2.717   3.341  17.437  0.00  0.00    +0.000 A 
ATOM     19  C   UNL     1       4.053   3.373  17.056  0.00  0.00    +0.000 A 
ATOM     20  C   UNL     1       4.824   4.538  17.222  0.00  0.00    +0.000 A 
ATOM     21  C   UNL     1       4.194   5.694  17.735  0.00  0.00    +0.000 A 
BRANCH  20  22
ATOM     22  C   UNL     1       6.327   4.516  16.918  0.00  0.00    +0.000 C 
ATOM     23  C   UNL     1       7.134   4.807  18.188  0.00  0.00    +0.000 C 
BRANCH  22  24
ATOM     24  S   UNL     1       6.670   5.729  15.555  0.00  0.00    +0.000 S 
BRANCH  24  25
ATOM     25  C   UNL     1       6.514   4.788  14.118  0.00  0.00    +0.000 A 
ATOM     26  N   UNL     1       5.587   3.901  13.850  0.00  0.00    +0.000 NA
ATOM     27  N   UNL     1       5.891   3.324  12.637  0.00  0.00    +0.000 NA
ATOM     28  C   UNL     1       6.980   3.901  12.186  0.00  0.00    +0.000 A 
ATOM     29  N   UNL     1       7.391   4.857  13.069  0.00  0.00    +0.000 N 
ATOM     30  C   UNL     1       8.506   5.743  12.874  0.00  0.00    +0.000 C 
ENDBRANCH  24  25
ENDBRANCH  22  24
ENDBRANCH  20  22
ENDBRANCH   3  16
TORSDOF 5
ENDMDL
MODEL 4
REMARK VINA RESULT:      -8.3      5.373      8.424
REMARK  Name = 
REMARK  8 active torsions:
REMARK  status: ('A' for Active; 'I' for Inactive)
REMARK    1  A    between atoms: C_1  and  C_2
REMARK    2  A    between atoms: C_4  and  C_5
REMARK    3  A    between atoms: N_7  and  C_8
REMARK    4  A    between atoms: C_12  and  C_13
REMARK    5  A    between atoms: C_13  and  C_14
REMARK    6  A    between atoms: C_13  and  S_15
REMARK    7  A    between atoms: S_15  and  C_16
REMARK    8  A    between atoms: N_20  and  C_21
REMARK                            x       y       z     vdW  Elec       q    Type
REMARK                         _______ _______ _______ _____ _____    ______ ____
ROOT
ATOM      1  C   UNL     1       1.962   8.189  19.234  0.00  0.00    +0.000 C 
ATOM      2  O   UNL     1       2.274   8.513  18.091  0.00  0.00    +0.000 OA
ATOM      3  N   UNL     1       2.309   7.007  19.879  0.00  0.00    +0.000 N 
ATOM      4  H   UNL     1       1.833   6.840  20.762  0.00  0.00    +0.000 HD
ENDROOT
BRANCH   1   8
ATOM      5  C   UNL     1      -0.040   9.535  23.595  0.00  0.00    +0.000 C 
ATOM      6  C   UNL     1       0.103   9.753  22.112  0.00  0.00    +0.000 A 
ATOM      7  C   UNL     1       0.928   8.897  21.383  0.00  0.00    +0.000 A 
ATOM      8  C   UNL     1       1.069   9.101  20.016  0.00  0.00    +0.000 A 
ATOM      9  N   UNL     1       0.451  10.095  19.330  0.00  0.00    +0.000 NA
ATOM     10  C   UNL     1      -0.354  10.912  20.029  0.00  0.00    +0.000 A 
ATOM     11  C   UNL     1      -1.010  11.922  19.341  0.00  0.00    +0.000 A 
ATOM     12  C   UNL     1      -1.859  12.825  19.985  0.00  0.00    +0.000 A 
ATOM     13  C   UNL     1      -2.066  12.722  21.353  0.00  0.00    +0.000 A 
ATOM     14  C   UNL     1      -1.426  11.714  22.071  0.00  0.00    +0.000 A 
ATOM     15  C   UNL     1      -0.565  10.794  21.428  0.00  0.00    +0.000 A 
ENDBRANCH   1   8
BRANCH   3  16
ATOM     16  C   UNL     1       3.100   5.977  19.321  0.00  0.00    +0.000 A 
ATOM     17  C   UNL     1       3.197   4.718  19.917  0.00  0.00    +0.000 A 
ATOM     18  C   UNL     1       4.026   3.735  19.383  0.00  0.00    +0.000 A 
ATOM     19  C   UNL     1       4.790   4.012  18.256  0.00  0.00    +0.000 A 
ATOM     20  C   UNL     1       4.730   5.272  17.633  0.00  0.00    +0.000 A 
ATOM     21  C   UNL     1       3.834   6.234  18.149  0.00  0.00    +0.000 A 
BRANCH  20  22
ATOM     22  C   UNL     1       5.675   5.601  16.471  0.00  0.00    +0.000 C 
ATOM     23  C   UNL     1       5.104   6.746  15.627  0.00  0.00    +0.000 C 
BRANCH  22  24
ATOM     24  S   UNL     1       5.958   4.054  15.486  0.00  0.00    +0.000 S 
BRANCH  24  25
ATOM     25  C   UNL     1       6.875   4.594  14.129  0.00  0.00    +0.000 A 
ATOM     26  N   UNL     1       7.860   5.459  14.132  0.00  0.00    +0.000 NA
ATOM     27  N   UNL     1       8.247   5.666  12.827  0.00  0.00    +0.000 NA
ATOM     28  C   UNL     1       7.504   4.894  12.067  0.00  0.00    +0.000 A 
ATOM     29  N   UNL     1       6.648   4.172  12.846  0.00  0.00    +0.000 N 
ATOM     30  C   UNL     1       5.737   3.169  12.367  0.00  0.00    +0.000 C 
ENDBRANCH  24  25
ENDBRANCH  22  24
ENDBRANCH  20  22
ENDBRANCH   3  16
TORSDOF 5
ENDMDL
MODEL 5
REMARK VINA RESULT:      -8.3      6.477      9.389
REMARK  Name = 
REMARK  8 active torsions:
REMARK  status: ('A' for Active; 'I' for Inactive)
REMARK    1  A    between atoms: C_1  and  C_2
REMARK    2  A    between atoms: C_4  and  C_5
REMARK    3  A    between atoms: N_7  and  C_8
REMARK    4  A    between atoms: C_12  and  C_13
REMARK    5  A    between atoms: C_13  and  C_14
REMARK    6  A    between atoms: C_13  and  S_15
REMARK    7  A    between atoms: S_15  and  C_16
REMARK    8  A    between atoms: N_20  and  C_21
REMARK                            x       y       z     vdW  Elec       q    Type
REMARK                         _______ _______ _______ _____ _____    ______ ____
ROOT
ATOM      1  C   UNL     1       2.115   8.205  18.890  0.00  0.00    +0.000 C 
ATOM      2  O   UNL     1       1.882   8.192  20.095  0.00  0.00    +0.000 OA
ATOM      3  N   UNL     1       1.798   9.225  17.999  0.00  0.00    +0.000 N 
ATOM      4  H   UNL     1       1.925   8.997  17.017  0.00  0.00    +0.000 HD
ENDROOT
BRANCH   1   8
ATOM      5  C   UNL     1       2.039   3.298  18.016  0.00  0.00    +0.000 C 
ATOM      6  C   UNL     1       2.713   4.634  17.848  0.00  0.00    +0.000 A 
ATOM      7  C   UNL     1       2.130   5.759  18.432  0.00  0.00    +0.000 A 
ATOM      8  C   UNL     1       2.745   6.995  18.272  0.00  0.00    +0.000 A 
ATOM      9  N   UNL     1       3.891   7.187  17.572  0.00  0.00    +0.000 NA
ATOM     10  C   UNL     1       4.460   6.102  17.020  0.00  0.00    +0.000 A 
ATOM     11  C   UNL     1       5.643   6.275  16.318  0.00  0.00    +0.000 A 
ATOM     12  C   UNL     1       6.302   5.208  15.702  0.00  0.00    +0.000 A 
ATOM     13  C   UNL     1       5.771   3.929  15.788  0.00  0.00    +0.000 A 
ATOM     14  C   UNL     1       4.587   3.722  16.492  0.00  0.00    +0.000 A 
ATOM     15  C   UNL     1       3.914   4.795  17.119  0.00  0.00    +0.000 A 
ENDBRANCH   1   8
BRANCH   3  16
ATOM     16  C   UNL     1       1.157  10.436  18.345  0.00  0.00    +0.000 A 
ATOM     17  C   UNL     1       1.870  11.623  18.521  0.00  0.00    +0.000 A 
ATOM     18  C   UNL     1       1.228  12.792  18.918  0.00  0.00    +0.000 A 
ATOM     19  C   UNL     1      -0.139  12.780  19.168  0.00  0.00    +0.000 A 
ATOM     20  C   UNL     1      -0.891  11.602  19.015  0.00  0.00    +0.000 A 
ATOM     21  C   UNL     1      -0.235  10.442  18.547  0.00  0.00    +0.000 A 
BRANCH  20  22
ATOM     22  C   UNL     1      -2.370  11.575  19.420  0.00  0.00    +0.000 C 
ATOM     23  C   UNL     1      -3.251  11.252  18.207  0.00  0.00    +0.000 C 
BRANCH  22  24
ATOM     24  S   UNL     1      -2.795  13.202  20.203  0.00  0.00    +0.000 S 
BRANCH  24  25
ATOM     25  C   UNL     1      -3.415  12.764  21.752  0.00  0.00    +0.000 A 
ATOM     26  N   UNL     1      -4.654  12.456  22.051  0.00  0.00    +0.000 NA
ATOM     27  N   UNL     1      -4.726  12.260  23.412  0.00  0.00    +0.000 NA
ATOM     28  C   UNL     1      -3.517  12.423  23.899  0.00  0.00    +0.000 A 
ATOM     29  N   UNL     1      -2.650  12.707  22.885  0.00  0.00    +0.000 N 
ATOM     30  C   UNL     1      -1.229  12.876  23.032  0.00  0.00    +0.000 C 
ENDBRANCH  24  25
ENDBRANCH  22  24
ENDBRANCH  20  22
ENDBRANCH   3  16
TORSDOF 5
ENDMDL
MODEL 6
REMARK VINA RESULT:      -8.2      5.830      9.268
REMARK  Name = 
REMARK  8 active torsions:
REMARK  status: ('A' for Active; 'I' for Inactive)
REMARK    1  A    between atoms: C_1  and  C_2
REMARK    2  A    between atoms: C_4  and  C_5
REMARK    3  A    between atoms: N_7  and  C_8
REMARK    4  A    between atoms: C_12  and  C_13
REMARK    5  A    between atoms: C_13  and  C_14
REMARK    6  A    between atoms: C_13  and  S_15
REMARK    7  A    between atoms: S_15  and  C_16
REMARK    8  A    between atoms: N_20  and  C_21
REMARK                            x       y       z     vdW  Elec       q    Type
REMARK                         _______ _______ _______ _____ _____    ______ ____
ROOT
ATOM      1  C   UNL     1       2.085   6.878  19.717  0.00  0.00    +0.000 C 
ATOM      2  O   UNL     1       1.643   6.411  20.763  0.00  0.00    +0.000 OA
ATOM      3  N   UNL     1       1.920   8.182  19.261  0.00  0.00    +0.000 N 
ATOM      4  H   UNL     1       2.220   8.347  18.304  0.00  0.00    +0.000 HD
ENDROOT
BRANCH   1   8
ATOM      5  C   UNL     1       2.759   2.333  17.786  0.00  0.00    +0.000 C 
ATOM      6  C   UNL     1       3.155   3.784  17.854  0.00  0.00    +0.000 A 
ATOM      7  C   UNL     1       2.470   4.628  18.728  0.00  0.00    +0.000 A 
ATOM      8  C   UNL     1       2.827   5.969  18.786  0.00  0.00    +0.000 A 
ATOM      9  N   UNL     1       3.812   6.525  18.037  0.00  0.00    +0.000 NA
ATOM     10  C   UNL     1       4.481   5.711  17.205  0.00  0.00    +0.000 A 
ATOM     11  C   UNL     1       5.505   6.256  16.445  0.00  0.00    +0.000 A 
ATOM     12  C   UNL     1       6.250   5.489  15.546  0.00  0.00    +0.000 A 
ATOM     13  C   UNL     1       5.972   4.138  15.398  0.00  0.00    +0.000 A 
ATOM     14  C   UNL     1       4.954   3.559  16.151  0.00  0.00    +0.000 A 
ATOM     15  C   UNL     1       4.195   4.327  17.065  0.00  0.00    +0.000 A 
ENDBRANCH   1   8
BRANCH   3  16
ATOM     16  C   UNL     1       1.214   9.199  19.943  0.00  0.00    +0.000 A 
ATOM     17  C   UNL     1       1.022   9.161  21.326  0.00  0.00    +0.000 A 
ATOM     18  C   UNL     1       0.276  10.142  21.972  0.00  0.00    +0.000 A 
ATOM     19  C   UNL     1      -0.312  11.163  21.234  0.00  0.00    +0.000 A 
ATOM     20  C   UNL     1      -0.153  11.229  19.838  0.00  0.00    +0.000 A 
ATOM     21  C   UNL     1       0.663  10.264  19.208  0.00  0.00    +0.000 A 
BRANCH  20  22
ATOM     22  C   UNL     1      -0.913  12.285  19.026  0.00  0.00    +0.000 C 
ATOM     23  C   UNL     1      -0.669  13.683  19.607  0.00  0.00    +0.000 C 
BRANCH  22  24
ATOM     24  S   UNL     1      -2.710  11.824  18.996  0.00  0.00    +0.000 S 
BRANCH  24  25
ATOM     25  C   UNL     1      -2.926  11.112  17.440  0.00  0.00    +0.000 A 
ATOM     26  N   UNL     1      -2.086  10.336  16.801  0.00  0.00    +0.000 NA
ATOM     27  N   UNL     1      -2.615  10.069  15.559  0.00  0.00    +0.000 NA
ATOM     28  C   UNL     1      -3.783  10.667  15.489  0.00  0.00    +0.000 A 
ATOM     29  N   UNL     1      -4.038  11.308  16.666  0.00  0.00    +0.000 N 
ATOM     30  C   UNL     1      -5.254  12.008  16.982  0.00  0.00    +0.000 C 
ENDBRANCH  24  25
ENDBRANCH  22  24
ENDBRANCH  20  22
ENDBRANCH   3  16
TORSDOF 5
ENDMDL
MODEL 7
REMARK VINA RESULT:      -8.2      4.401      7.513
REMARK  Name = 
REMARK  8 active torsions:
REMARK  status: ('A' for Active; 'I' for Inactive)
REMARK    1  A    between atoms: C_1  and  C_2
REMARK    2  A    between atoms: C_4  and  C_5
REMARK    3  A    between atoms: N_7  and  C_8
REMARK    4  A    between atoms: C_12  and  C_13
REMARK    5  A    between atoms: C_13  and  C_14
REMARK    6  A    between atoms: C_13  and  S_15
REMARK    7  A    between atoms: S_15  and  C_16
REMARK    8  A    between atoms: N_20  and  C_21
REMARK                            x       y       z     vdW  Elec       q    Type
REMARK                         _______ _______ _______ _____ _____    ______ ____
ROOT
ATOM      1  C   UNL     1       2.011   8.255  18.446  0.00  0.00    +0.000 C 
ATOM      2  O   UNL     1       2.242   8.575  17.283  0.00  0.00    +0.000 OA
ATOM      3  N   UNL     1       2.179   6.992  19.003  0.00  0.00    +0.000 N 
ATOM      4  H   UNL     1       1.790   6.875  19.934  0.00  0.00    +0.000 HD
ENDROOT
BRANCH   1   8
ATOM      5  C   UNL     1       0.060   9.438  22.878  0.00  0.00    +0.000 C 
ATOM      6  C   UNL     1       0.492   9.858  21.498  0.00  0.00    +0.000 A 
ATOM      7  C   UNL     1       1.024   8.897  20.637  0.00  0.00    +0.000 A 
ATOM      8  C   UNL     1       1.431   9.284  19.367  0.00  0.00    +0.000 A 
ATOM      9  N   UNL     1       1.348  10.554  18.897  0.00  0.00    +0.000 NA
ATOM     10  C   UNL     1       0.824  11.477  19.720  0.00  0.00    +0.000 A 
ATOM     11  C   UNL     1       0.712  12.777  19.251  0.00  0.00    +0.000 A 
ATOM     12  C   UNL     1       0.189  13.806  20.037  0.00  0.00    +0.000 A 
ATOM     13  C   UNL     1      -0.239  13.536  21.329  0.00  0.00    +0.000 A 
ATOM     14  C   UNL     1      -0.146  12.239  21.827  0.00  0.00    +0.000 A 
ATOM     15  C   UNL     1       0.381  11.190  21.038  0.00  0.00    +0.000 A 
ENDBRANCH   1   8
BRANCH   3  16
ATOM     16  C   UNL     1       2.662   5.856  18.314  0.00  0.00    +0.000 A 
ATOM     17  C   UNL     1       2.161   4.577  18.561  0.00  0.00    +0.000 A 
ATOM     18  C   UNL     1       2.690   3.464  17.914  0.00  0.00    +0.000 A 
ATOM     19  C   UNL     1       3.748   3.617  17.026  0.00  0.00    +0.000 A 
ATOM     20  C   UNL     1       4.290   4.888  16.759  0.00  0.00    +0.000 A 
ATOM     21  C   UNL     1       3.697   6.013  17.374  0.00  0.00    +0.000 A 
BRANCH  20  22
ATOM     22  C   UNL     1       5.538   5.023  15.879  0.00  0.00    +0.000 C 
ATOM     23  C   UNL     1       5.453   4.070  14.682  0.00  0.00    +0.000 C 
BRANCH  22  24
ATOM     24  S   UNL     1       7.036   4.722  16.933  0.00  0.00    +0.000 S 
BRANCH  24  25
ATOM     25  C   UNL     1       7.491   6.299  17.462  0.00  0.00    +0.000 A 
ATOM     26  N   UNL     1       7.452   7.409  16.767  0.00  0.00    +0.000 NA
ATOM     27  N   UNL     1       7.986   8.414  17.541  0.00  0.00    +0.000 NA
ATOM     28  C   UNL     1       8.307   7.891  18.702  0.00  0.00    +0.000 A 
ATOM     29  N   UNL     1       7.980   6.566  18.712  0.00  0.00    +0.000 N 
ATOM     30  C   UNL     1       8.119   5.687  19.841  0.00  0.00    +0.000 C 
ENDBRANCH  24  25
ENDBRANCH  22  24
ENDBRANCH  20  22
ENDBRANCH   3  16
TORSDOF 5
ENDMDL
MODEL 8
REMARK VINA RESULT:      -8.2      4.895      8.191
REMARK  Name = 
REMARK  8 active torsions:
REMARK  status: ('A' for Active; 'I' for Inactive)
REMARK    1  A    between atoms: C_1  and  C_2
REMARK    2  A    between atoms: C_4  and  C_5
REMARK    3  A    between atoms: N_7  and  C_8
REMARK    4  A    between atoms: C_12  and  C_13
REMARK    5  A    between atoms: C_13  and  C_14
REMARK    6  A    between atoms: C_13  and  S_15
REMARK    7  A    between atoms: S_15  and  C_16
REMARK    8  A    between atoms: N_20  and  C_21
REMARK                            x       y       z     vdW  Elec       q    Type
REMARK                         _______ _______ _______ _____ _____    ______ ____
ROOT
ATOM      1  C   UNL     1       1.933   8.276  18.908  0.00  0.00    +0.000 C 
ATOM      2  O   UNL     1       2.312   8.399  17.747  0.00  0.00    +0.000 OA
ATOM      3  N   UNL     1       2.187   7.198  19.749  0.00  0.00    +0.000 N 
ATOM      4  H   UNL     1       1.664   7.196  20.620  0.00  0.00    +0.000 HD
ENDROOT
BRANCH   1   8
ATOM      5  C   UNL     1      -0.543  12.568  18.364  0.00  0.00    +0.000 C 
ATOM      6  C   UNL     1      -0.138  11.406  19.232  0.00  0.00    +0.000 A 
ATOM      7  C   UNL     1       0.687  10.419  18.693  0.00  0.00    +0.000 A 
ATOM      8  C   UNL     1       1.055   9.341  19.489  0.00  0.00    +0.000 A 
ATOM      9  N   UNL     1       0.660   9.179  20.776  0.00  0.00    +0.000 NA
ATOM     10  C   UNL     1      -0.123  10.136  21.301  0.00  0.00    +0.000 A 
ATOM     11  C   UNL     1      -0.522   9.998  22.622  0.00  0.00    +0.000 A 
ATOM     12  C   UNL     1      -1.344  10.937  23.250  0.00  0.00    +0.000 A 
ATOM     13  C   UNL     1      -1.782  12.049  22.545  0.00  0.00    +0.000 A 
ATOM     14  C   UNL     1      -1.394  12.219  21.219  0.00  0.00    +0.000 A 
ATOM     15  C   UNL     1      -0.561  11.275  20.575  0.00  0.00    +0.000 A 
ENDBRANCH   1   8
BRANCH   3  16
ATOM     16  C   UNL     1       2.946   6.056  19.402  0.00  0.00    +0.000 A 
ATOM     17  C   UNL     1       2.790   4.839  20.067  0.00  0.00    +0.000 A 
ATOM     18  C   UNL     1       3.587   3.743  19.749  0.00  0.00    +0.000 A 
ATOM     19  C   UNL     1       4.570   3.861  18.774  0.00  0.00    +0.000 A 
ATOM     20  C   UNL     1       4.767   5.074  18.089  0.00  0.00    +0.000 A 
ATOM     21  C   UNL     1       3.905   6.156  18.378  0.00  0.00    +0.000 A 
BRANCH  20  22
ATOM     22  C   UNL     1       5.938   5.225  17.112  0.00  0.00    +0.000 C 
ATOM     23  C   UNL     1       6.099   6.691  16.692  0.00  0.00    +0.000 C 
BRANCH  22  24
ATOM     24  S   UNL     1       5.651   4.092  15.670  0.00  0.00    +0.000 S 
BRANCH  24  25
ATOM     25  C   UNL     1       6.768   4.650  14.480  0.00  0.00    +0.000 A 
ATOM     26  N   UNL     1       7.777   5.466  14.663  0.00  0.00    +0.000 NA
ATOM     27  N   UNL     1       8.349   5.715  13.435  0.00  0.00    +0.000 NA
ATOM     28  C   UNL     1       7.687   5.016  12.541  0.00  0.00    +0.000 A 
ATOM     29  N   UNL     1       6.703   4.300  13.158  0.00  0.00    +0.000 N 
ATOM     30  C   UNL     1       5.826   3.364  12.508  0.00  0.00    +0.000 C 
ENDBRANCH  24  25
ENDBRANCH  22  24
ENDBRANCH  20  22
ENDBRANCH   3  16
TORSDOF 5
ENDMDL
MODEL 9
REMARK VINA RESULT:      -8.2      6.707     10.299
REMARK  Name = 
REMARK  8 active torsions:
REMARK  status: ('A' for Active; 'I' for Inactive)
REMARK    1  A    between atoms: C_1  and  C_2
REMARK    2  A    between atoms: C_4  and  C_5
REMARK    3  A    between atoms: N_7  and  C_8
REMARK    4  A    between atoms: C_12  and  C_13
REMARK    5  A    between atoms: C_13  and  C_14
REMARK    6  A    between atoms: C_13  and  S_15
REMARK    7  A    between atoms: S_15  and  C_16
REMARK    8  A    between atoms: N_20  and  C_21
REMARK                            x       y       z     vdW  Elec       q    Type
REMARK                         _______ _______ _______ _____ _____    ______ ____
ROOT
ATOM      1  C   UNL     1       1.584   7.576  20.243  0.00  0.00    +0.000 C 
ATOM      2  O   UNL     1       2.337   8.440  19.803  0.00  0.00    +0.000 OA
ATOM      3  N   UNL     1       0.451   7.788  21.020  0.00  0.00    +0.000 N 
ATOM      4  H   UNL     1       0.040   6.950  21.423  0.00  0.00    +0.000 HD
ENDROOT
BRANCH   1   8
ATOM      5  C   UNL     1       1.425   2.810  21.695  0.00  0.00    +0.000 C 
ATOM      6  C   UNL     1       1.848   3.844  20.686  0.00  0.00    +0.000 A 
ATOM      7  C   UNL     1       1.541   5.183  20.925  0.00  0.00    +0.000 A 
ATOM      8  C   UNL     1       1.923   6.139  19.992  0.00  0.00    +0.000 A 
ATOM      9  N   UNL     1       2.583   5.854  18.842  0.00  0.00    +0.000 NA
ATOM     10  C   UNL     1       2.892   4.566  18.616  0.00  0.00    +0.000 A 
ATOM     11  C   UNL     1       3.585   4.257  17.455  0.00  0.00    +0.000 A 
ATOM     12  C   UNL     1       3.940   2.946  17.132  0.00  0.00    +0.000 A 
ATOM     13  C   UNL     1       3.600   1.908  17.987  0.00  0.00    +0.000 A 
ATOM     14  C   UNL     1       2.909   2.187  19.165  0.00  0.00    +0.000 A 
ATOM     15  C   UNL     1       2.546   3.511  19.502  0.00  0.00    +0.000 A 
ENDBRANCH   1   8
BRANCH   3  16
ATOM     16  C   UNL     1      -0.033   9.053  21.425  0.00  0.00    +0.000 A 
ATOM     17  C   UNL     1      -0.337   9.331  22.759  0.00  0.00    +0.000 A 
ATOM     18  C   UNL     1      -0.866  10.564  23.130  0.00  0.00    +0.000 A 
ATOM     19  C   UNL     1      -1.122  11.527  22.161  0.00  0.00    +0.000 A 
ATOM     20  C   UNL     1      -0.842  11.280  20.805  0.00  0.00    +0.000 A 
ATOM     21  C   UNL     1      -0.243  10.050  20.456  0.00  0.00    +0.000 A 
BRANCH  20  22
ATOM     22  C   UNL     1      -1.250  12.302  19.737  0.00  0.00    +0.000 C 
ATOM     23  C   UNL     1      -0.919  13.724  20.204  0.00  0.00    +0.000 C 
BRANCH  22  24
ATOM     24  S   UNL     1      -3.052  12.070  19.359  0.00  0.00    +0.000 S 
BRANCH  24  25
ATOM     25  C   UNL     1      -3.056  11.404  17.769  0.00  0.00    +0.000 A 
ATOM     26  N   UNL     1      -2.086  10.745  17.184  0.00  0.00    +0.000 NA
ATOM     27  N   UNL     1      -2.475  10.474  15.891  0.00  0.00    +0.000 NA
ATOM     28  C   UNL     1      -3.689  10.951  15.736  0.00  0.00    +0.000 A 
ATOM     29  N   UNL     1      -4.112  11.515  16.904  0.00  0.00    +0.000 N 
ATOM     30  C   UNL     1      -5.418  12.072  17.131  0.00  0.00    +0.000 C 
ENDBRANCH  24  25
ENDBRANCH  22  24
ENDBRANCH  20  22
ENDBRANCH   3  16
TORSDOF 5
ENDMDL
