MODEL 1
REMARK VINA RESULT:      -8.2      0.000      0.000
REMARK  Name = 
REMARK  8 active torsions:
REMARK  status: ('A' for Active; 'I' for Inactive)
REMARK    1  A    between atoms: C_1  and  C_2
REMARK    2  A    between atoms: C_2  and  C_3
REMARK    3  A    between atoms: C_2  and  C_10
REMARK    4  A    between atoms: C_3  and  C_4
REMARK    5  A    between atoms: N_8  and  C_9
REMARK    6  A    between atoms: C_12  and  N_13
REMARK    7  A    between atoms: N_13  and  C_14
REMARK    8  A    between atoms: C_28  and  C_29
REMARK                            x       y       z     vdW  Elec       q    Type
REMARK                         _______ _______ _______ _____ _____    ______ ____
ROOT
ATOM      1  C   UNL     1      -0.256  10.754  18.674  0.00  0.00    +0.000 A 
ATOM      2  C   UNL     1       0.495  11.862  18.301  0.00  0.00    +0.000 A 
ATOM      3  C   UNL     1       1.870  11.753  18.092  0.00  0.00    +0.000 A 
ATOM      4  N   UNL     1       2.503  10.564  18.187  0.00  0.00    +0.000 NA
ATOM      5  C   UNL     1       1.788   9.475  18.514  0.00  0.00    +0.000 A 
ATOM      6  N   UNL     1       2.392   8.227  18.500  0.00  0.00    +0.000 N 
ATOM      7  C   UNL     1       3.220   7.793  17.397  0.00  0.00    +0.000 C 
ATOM      8  C   UNL     1       3.665   6.429  17.847  0.00  0.00    +0.000 A 
ATOM      9  C   UNL     1       3.128   6.165  19.112  0.00  0.00    +0.000 A 
ATOM     10  C   UNL     1       3.343   4.979  19.793  0.00  0.00    +0.000 A 
ATOM     11  C   UNL     1       4.133   4.020  19.171  0.00  0.00    +0.000 A 
ATOM     12  C   UNL     1       4.704   4.273  17.908  0.00  0.00    +0.000 A 
ATOM     13  C   UNL     1       4.480   5.496  17.228  0.00  0.00    +0.000 A 
ATOM     14  C   UNL     1       2.348   7.326  19.535  0.00  0.00    +0.000 C 
ATOM     15  O   UNL     1       1.820   7.428  20.639  0.00  0.00    +0.000 OA
ATOM     16  C   UNL     1       0.418   9.531  18.757  0.00  0.00    +0.000 A 
ENDROOT
BRANCH  13  17
ATOM     17  C   UNL     1       5.147   5.741  15.897  0.00  0.00    +0.000 C 
ATOM     18  F   UNL     1       4.706   6.875  15.279  0.00  0.00    +0.000 F 
ATOM     19  F   UNL     1       6.493   5.876  16.007  0.00  0.00    +0.000 F 
ATOM     20  F   UNL     1       4.938   4.731  15.012  0.00  0.00    +0.000 F 
ENDBRANCH  13  17
BRANCH   1  22
ATOM     21  C   UNL     1      -2.249  12.283  18.583  0.00  0.00    +0.000 C 
ATOM     22  C   UNL     1      -1.753  10.880  18.957  0.00  0.00    +0.000 C 
BRANCH  22  23
ATOM     23  C   UNL     1      -2.556   9.772  18.229  0.00  0.00    +0.000 C 
BRANCH  23  24
ATOM     24  C   UNL     1      -2.874  10.123  16.816  0.00  0.00    +0.000 A 
ATOM     25  N   UNL     1      -2.129   9.868  15.755  0.00  0.00    +0.000 NA
ATOM     26  N   UNL     1      -2.787  10.342  14.645  0.00  0.00    +0.000 NA
ATOM     27  C   UNL     1      -3.907  10.890  15.050  0.00  0.00    +0.000 A 
ATOM     28  N   UNL     1      -4.005  10.774  16.401  0.00  0.00    +0.000 N 
ATOM     29  C   UNL     1      -5.095  11.238  17.218  0.00  0.00    +0.000 C 
ENDBRANCH  23  24
ENDBRANCH  22  23
ENDBRANCH   1  22
BRANCH   3  30
ATOM     30  N   UNL     1       2.623  12.912  17.829  0.00  0.00    +0.000 N 
ATOM     31  H   UNL     1       3.618  12.715  17.786  0.00  0.00    +0.000 HD
BRANCH  30  32
ATOM     32  C   UNL     1       2.274  14.078  18.651  0.00  0.00    +0.000 C 
ATOM     33  C   UNL     1       2.931  14.012  20.020  0.00  0.00    +0.000 C 
ATOM     34  C   UNL     1       2.752  15.436  20.499  0.00  0.00    +0.000 C 
ATOM     35  O   UNL     1       2.919  16.269  19.344  0.00  0.00    +0.000 OA
ATOM     36  C   UNL     1       2.813  15.429  18.173  0.00  0.00    +0.000 C 
ENDBRANCH  30  32
ENDBRANCH   3  30
TORSDOF 6
ENDMDL
MODEL 2
REMARK VINA RESULT:      -8.0      2.117      3.046
REMARK  Name = 
REMARK  8 active torsions:
REMARK  status: ('A' for Active; 'I' for Inactive)
REMARK    1  A    between atoms: C_1  and  C_2
REMARK    2  A    between atoms: C_2  and  C_3
REMARK    3  A    between atoms: C_2  and  C_10
REMARK    4  A    between atoms: C_3  and  C_4
REMARK    5  A    between atoms: N_8  and  C_9
REMARK    6  A    between atoms: C_12  and  N_13
REMARK    7  A    between atoms: N_13  and  C_14
REMARK    8  A    between atoms: C_28  and  C_29
REMARK                            x       y       z     vdW  Elec       q    Type
REMARK                         _______ _______ _______ _____ _____    ______ ____
ROOT
ATOM      1  C   UNL     1      -0.083  11.741  18.520  0.00  0.00    +0.000 A 
ATOM      2  C   UNL     1       0.850  12.737  18.264  0.00  0.00    +0.000 A 
ATOM      3  C   UNL     1       2.213  12.440  18.218  0.00  0.00    +0.000 A 
ATOM      4  N   UNL     1       2.662  11.175  18.361  0.00  0.00    +0.000 NA
ATOM      5  C   UNL     1       1.771  10.194  18.576  0.00  0.00    +0.000 A 
ATOM      6  N   UNL     1       2.198   8.874  18.605  0.00  0.00    +0.000 N 
ATOM      7  C   UNL     1       3.086   8.337  17.599  0.00  0.00    +0.000 C 
ATOM      8  C   UNL     1       3.284   6.922  18.068  0.00  0.00    +0.000 A 
ATOM      9  C   UNL     1       2.566   6.727  19.254  0.00  0.00    +0.000 A 
ATOM     10  C   UNL     1       2.534   5.518  19.928  0.00  0.00    +0.000 A 
ATOM     11  C   UNL     1       3.255   4.463  19.383  0.00  0.00    +0.000 A 
ATOM     12  C   UNL     1       4.005   4.643  18.204  0.00  0.00    +0.000 A 
ATOM     13  C   UNL     1       4.034   5.889  17.530  0.00  0.00    +0.000 A 
ATOM     14  C   UNL     1       1.906   7.981  19.607  0.00  0.00    +0.000 C 
ATOM     15  O   UNL     1       1.267   8.149  20.642  0.00  0.00    +0.000 OA
ATOM     16  C   UNL     1       0.402  10.436  18.655  0.00  0.00    +0.000 A 
ENDROOT
BRANCH  13  17
ATOM     17  C   UNL     1       4.884   6.048  16.294  0.00  0.00    +0.000 C 
ATOM     18  F   UNL     1       4.869   4.947  15.488  0.00  0.00    +0.000 F 
ATOM     19  F   UNL     1       4.482   7.085  15.516  0.00  0.00    +0.000 F 
ATOM     20  F   UNL     1       6.193   6.276  16.584  0.00  0.00    +0.000 F 
ENDBRANCH  13  17
BRANCH   1  22
ATOM     21  C   UNL     1      -2.385  10.789  18.857  0.00  0.00    +0.000 C 
ATOM     22  C   UNL     1      -1.573  12.070  18.625  0.00  0.00    +0.000 C 
BRANCH  22  23
ATOM     23  C   UNL     1      -1.837  13.127  19.727  0.00  0.00    +0.000 C 
BRANCH  23  24
ATOM     24  C   UNL     1      -1.719  12.567  21.104  0.00  0.00    +0.000 A 
ATOM     25  N   UNL     1      -0.611  12.155  21.693  0.00  0.00    +0.000 NA
ATOM     26  N   UNL     1      -0.932  11.727  22.959  0.00  0.00    +0.000 NA
ATOM     27  C   UNL     1      -2.227  11.870  23.111  0.00  0.00    +0.000 A 
ATOM     28  N   UNL     1      -2.760  12.394  21.976  0.00  0.00    +0.000 N 
ATOM     29  C   UNL     1      -4.146  12.713  21.756  0.00  0.00    +0.000 C 
ENDBRANCH  23  24
ENDBRANCH  22  23
ENDBRANCH   1  22
BRANCH   3  30
ATOM     30  N   UNL     1       3.143  13.486  18.073  0.00  0.00    +0.000 N 
ATOM     31  H   UNL     1       4.005  13.299  18.576  0.00  0.00    +0.000 HD
BRANCH  30  32
ATOM     32  C   UNL     1       2.600  14.834  18.289  0.00  0.00    +0.000 C 
ATOM     33  C   UNL     1       2.869  15.322  19.703  0.00  0.00    +0.000 C 
ATOM     34  C   UNL     1       2.583  16.801  19.560  0.00  0.00    +0.000 C 
ATOM     35  O   UNL     1       3.060  17.175  18.261  0.00  0.00    +0.000 OA
ATOM     36  C   UNL     1       3.260  15.965  17.498  0.00  0.00    +0.000 C 
ENDBRANCH  30  32
ENDBRANCH   3  30
TORSDOF 6
ENDMDL
MODEL 3
REMARK VINA RESULT:      -8.0      3.832      8.530
REMARK  Name = 
REMARK  8 active torsions:
REMARK  status: ('A' for Active; 'I' for Inactive)
REMARK    1  A    between atoms: C_1  and  C_2
REMARK    2  A    between atoms: C_2  and  C_3
REMARK    3  A    between atoms: C_2  and  C_10
REMARK    4  A    between atoms: C_3  and  C_4
REMARK    5  A    between atoms: N_8  and  C_9
REMARK    6  A    between atoms: C_12  and  N_13
REMARK    7  A    between atoms: N_13  and  C_14
REMARK    8  A    between atoms: C_28  and  C_29
REMARK                            x       y       z     vdW  Elec       q    Type
REMARK                         _______ _______ _______ _____ _____    ______ ____
ROOT
ATOM      1  C   UNL     1       2.508   6.607  19.027  0.00  0.00    +0.000 A 
ATOM      2  C   UNL     1       3.501   6.439  18.070  0.00  0.00    +0.000 A 
ATOM      3  C   UNL     1       3.806   7.464  17.173  0.00  0.00    +0.000 A 
ATOM      4  N   UNL     1       3.192   8.664  17.243  0.00  0.00    +0.000 NA
ATOM      5  C   UNL     1       2.253   8.856  18.184  0.00  0.00    +0.000 A 
ATOM      6  N   UNL     1       1.697  10.116  18.351  0.00  0.00    +0.000 N 
ATOM      7  C   UNL     1       2.513  11.308  18.412  0.00  0.00    +0.000 C 
ATOM      8  C   UNL     1       1.484  12.394  18.559  0.00  0.00    +0.000 A 
ATOM      9  C   UNL     1       0.208  11.821  18.556  0.00  0.00    +0.000 A 
ATOM     10  C   UNL     1      -0.955  12.561  18.690  0.00  0.00    +0.000 A 
ATOM     11  C   UNL     1      -0.823  13.937  18.834  0.00  0.00    +0.000 A 
ATOM     12  C   UNL     1       0.451  14.538  18.816  0.00  0.00    +0.000 A 
ATOM     13  C   UNL     1       1.630  13.768  18.670  0.00  0.00    +0.000 A 
ATOM     14  C   UNL     1       0.350  10.376  18.390  0.00  0.00    +0.000 C 
ATOM     15  O   UNL     1      -0.599   9.607  18.267  0.00  0.00    +0.000 OA
ATOM     16  C   UNL     1       1.892   7.861  19.088  0.00  0.00    +0.000 A 
ENDROOT
BRANCH  13  17
ATOM     17  C   UNL     1       2.970  14.458  18.612  0.00  0.00    +0.000 C 
ATOM     18  F   UNL     1       2.873  15.819  18.652  0.00  0.00    +0.000 F 
ATOM     19  F   UNL     1       3.779  14.111  19.644  0.00  0.00    +0.000 F 
ATOM     20  F   UNL     1       3.660  14.170  17.476  0.00  0.00    +0.000 F 
ENDBRANCH  13  17
BRANCH   1  22
ATOM     21  C   UNL     1       1.283   6.002  21.137  0.00  0.00    +0.000 C 
ATOM     22  C   UNL     1       2.132   5.468  19.976  0.00  0.00    +0.000 C 
BRANCH  22  23
ATOM     23  C   UNL     1       1.418   4.320  19.219  0.00  0.00    +0.000 C 
BRANCH  23  24
ATOM     24  C   UNL     1       2.337   3.199  18.870  0.00  0.00    +0.000 A 
ATOM     25  N   UNL     1       2.675   2.809  17.654  0.00  0.00    +0.000 NA
ATOM     26  N   UNL     1       3.551   1.756  17.770  0.00  0.00    +0.000 NA
ATOM     27  C   UNL     1       3.716   1.515  19.048  0.00  0.00    +0.000 A 
ATOM     28  N   UNL     1       2.977   2.395  19.774  0.00  0.00    +0.000 N 
ATOM     29  C   UNL     1       2.905   2.463  21.209  0.00  0.00    +0.000 C 
ENDBRANCH  23  24
ENDBRANCH  22  23
ENDBRANCH   1  22
BRANCH   3  30
ATOM     30  N   UNL     1       4.732   7.225  16.142  0.00  0.00    +0.000 N 
ATOM     31  H   UNL     1       4.334   7.408  15.225  0.00  0.00    +0.000 HD
BRANCH  30  32
ATOM     32  C   UNL     1       5.458   5.952  16.241  0.00  0.00    +0.000 C 
ATOM     33  C   UNL     1       5.633   5.304  14.877  0.00  0.00    +0.000 C 
ATOM     34  C   UNL     1       6.695   4.270  15.180  0.00  0.00    +0.000 C 
ATOM     35  O   UNL     1       7.586   4.879  16.124  0.00  0.00    +0.000 OA
ATOM     36  C   UNL     1       6.923   6.039  16.673  0.00  0.00    +0.000 C 
ENDBRANCH  30  32
ENDBRANCH   3  30
TORSDOF 6
ENDMDL
MODEL 4
REMARK VINA RESULT:      -8.0      0.681      1.211
REMARK  Name = 
REMARK  8 active torsions:
REMARK  status: ('A' for Active; 'I' for Inactive)
REMARK    1  A    between atoms: C_1  and  C_2
REMARK    2  A    between atoms: C_2  and  C_3
REMARK    3  A    between atoms: C_2  and  C_10
REMARK    4  A    between atoms: C_3  and  C_4
REMARK    5  A    between atoms: N_8  and  C_9
REMARK    6  A    between atoms: C_12  and  N_13
REMARK    7  A    between atoms: N_13  and  C_14
REMARK    8  A    between atoms: C_28  and  C_29
REMARK                            x       y       z     vdW  Elec       q    Type
REMARK                         _______ _______ _______ _____ _____    ______ ____
ROOT
ATOM      1  C   UNL     1      -0.011  10.651  18.724  0.00  0.00    +0.000 A 
ATOM      2  C   UNL     1       0.775  11.754  18.418  0.00  0.00    +0.000 A 
ATOM      3  C   UNL     1       2.147  11.615  18.208  0.00  0.00    +0.000 A 
ATOM      4  N   UNL     1       2.743  10.403  18.237  0.00  0.00    +0.000 NA
ATOM      5  C   UNL     1       1.992   9.320  18.498  0.00  0.00    +0.000 A 
ATOM      6  N   UNL     1       2.558   8.057  18.413  0.00  0.00    +0.000 N 
ATOM      7  C   UNL     1       3.378   7.661  17.290  0.00  0.00    +0.000 C 
ATOM      8  C   UNL     1       3.778   6.261  17.662  0.00  0.00    +0.000 A 
ATOM      9  C   UNL     1       3.226   5.941  18.907  0.00  0.00    +0.000 A 
ATOM     10  C   UNL     1       3.401   4.711  19.519  0.00  0.00    +0.000 A 
ATOM     11  C   UNL     1       4.163   3.765  18.845  0.00  0.00    +0.000 A 
ATOM     12  C   UNL     1       4.749   4.073  17.601  0.00  0.00    +0.000 A 
ATOM     13  C   UNL     1       4.567   5.339  16.992  0.00  0.00    +0.000 A 
ATOM     14  C   UNL     1       2.480   7.099  19.394  0.00  0.00    +0.000 C 
ATOM     15  O   UNL     1       1.950   7.154  20.500  0.00  0.00    +0.000 OA
ATOM     16  C   UNL     1       0.623   9.404  18.739  0.00  0.00    +0.000 A 
ENDROOT
BRANCH  13  17
ATOM     17  C   UNL     1       5.249   5.641  15.681  0.00  0.00    +0.000 C 
ATOM     18  F   UNL     1       4.823   6.806  15.112  0.00  0.00    +0.000 F 
ATOM     19  F   UNL     1       6.594   5.757  15.808  0.00  0.00    +0.000 F 
ATOM     20  F   UNL     1       5.038   4.675  14.746  0.00  0.00    +0.000 F 
ENDBRANCH  13  17
BRANCH   1  22
ATOM     21  C   UNL     1      -1.891  12.291  19.030  0.00  0.00    +0.000 C 
ATOM     22  C   UNL     1      -1.506  10.806  19.008  0.00  0.00    +0.000 C 
BRANCH  22  23
ATOM     23  C   UNL     1      -2.357  10.005  17.990  0.00  0.00    +0.000 C 
BRANCH  23  24
ATOM     24  C   UNL     1      -3.652  10.670  17.670  0.00  0.00    +0.000 A 
ATOM     25  N   UNL     1      -4.613  10.972  18.524  0.00  0.00    +0.000 NA
ATOM     26  N   UNL     1      -5.626  11.588  17.829  0.00  0.00    +0.000 NA
ATOM     27  C   UNL     1      -5.272  11.635  16.567  0.00  0.00    +0.000 A 
ATOM     28  N   UNL     1      -4.042  11.074  16.421  0.00  0.00    +0.000 N 
ATOM     29  C   UNL     1      -3.304  10.950  15.192  0.00  0.00    +0.000 C 
ENDBRANCH  23  24
ENDBRANCH  22  23
ENDBRANCH   1  22
BRANCH   3  30
ATOM     30  N   UNL     1       2.937  12.763  18.016  0.00  0.00    +0.000 N 
ATOM     31  H   UNL     1       3.921  12.578  18.182  0.00  0.00    +0.000 HD
BRANCH  30  32
ATOM     32  C   UNL     1       2.434  13.978  18.669  0.00  0.00    +0.000 C 
ATOM     33  C   UNL     1       2.995  14.127  20.074  0.00  0.00    +0.000 C 
ATOM     34  C   UNL     1       2.664  15.575  20.368  0.00  0.00    +0.000 C 
ATOM     35  O   UNL     1       2.845  16.283  19.135  0.00  0.00    +0.000 OA
ATOM     36  C   UNL     1       2.893  15.309  18.068  0.00  0.00    +0.000 C 
ENDBRANCH  30  32
ENDBRANCH   3  30
TORSDOF 6
ENDMDL
MODEL 5
REMARK VINA RESULT:      -7.9      2.326      3.343
REMARK  Name = 
REMARK  8 active torsions:
REMARK  status: ('A' for Active; 'I' for Inactive)
REMARK    1  A    between atoms: C_1  and  C_2
REMARK    2  A    between atoms: C_2  and  C_3
REMARK    3  A    between atoms: C_2  and  C_10
REMARK    4  A    between atoms: C_3  and  C_4
REMARK    5  A    between atoms: N_8  and  C_9
REMARK    6  A    between atoms: C_12  and  N_13
REMARK    7  A    between atoms: N_13  and  C_14
REMARK    8  A    between atoms: C_28  and  C_29
REMARK                            x       y       z     vdW  Elec       q    Type
REMARK                         _______ _______ _______ _____ _____    ______ ____
ROOT
ATOM      1  C   UNL     1      -0.708  11.855  18.681  0.00  0.00    +0.000 A 
ATOM      2  C   UNL     1       0.170  12.908  18.455  0.00  0.00    +0.000 A 
ATOM      3  C   UNL     1       1.550  12.699  18.468  0.00  0.00    +0.000 A 
ATOM      4  N   UNL     1       2.072  11.466  18.641  0.00  0.00    +0.000 NA
ATOM      5  C   UNL     1       1.237  10.430  18.827  0.00  0.00    +0.000 A 
ATOM      6  N   UNL     1       1.745   9.141  18.886  0.00  0.00    +0.000 N 
ATOM      7  C   UNL     1       2.707   8.655  17.922  0.00  0.00    +0.000 C 
ATOM      8  C   UNL     1       2.975   7.259  18.411  0.00  0.00    +0.000 A 
ATOM      9  C   UNL     1       2.222   7.026  19.567  0.00  0.00    +0.000 A 
ATOM     10  C   UNL     1       2.238   5.821  20.251  0.00  0.00    +0.000 A 
ATOM     11  C   UNL     1       3.047   4.811  19.745  0.00  0.00    +0.000 A 
ATOM     12  C   UNL     1       3.833   5.032  18.596  0.00  0.00    +0.000 A 
ATOM     13  C   UNL     1       3.810   6.272  17.913  0.00  0.00    +0.000 A 
ATOM     14  C   UNL     1       1.469   8.238  19.882  0.00  0.00    +0.000 C 
ATOM     15  O   UNL     1       0.778   8.370  20.888  0.00  0.00    +0.000 OA
ATOM     16  C   UNL     1      -0.147  10.585  18.847  0.00  0.00    +0.000 A 
ENDROOT
BRANCH  13  17
ATOM     17  C   UNL     1       4.700   6.479  16.712  0.00  0.00    +0.000 C 
ATOM     18  F   UNL     1       4.158   7.318  15.783  0.00  0.00    +0.000 F 
ATOM     19  F   UNL     1       5.903   7.013  17.041  0.00  0.00    +0.000 F 
ATOM     20  F   UNL     1       4.967   5.320  16.053  0.00  0.00    +0.000 F 
ENDBRANCH  13  17
BRANCH   1  22
ATOM     21  C   UNL     1      -2.938  11.076  17.821  0.00  0.00    +0.000 C 
ATOM     22  C   UNL     1      -2.219  12.089  18.721  0.00  0.00    +0.000 C 
BRANCH  22  23
ATOM     23  C   UNL     1      -2.753  12.049  20.176  0.00  0.00    +0.000 C 
BRANCH  23  24
ATOM     24  C   UNL     1      -2.038  12.995  21.080  0.00  0.00    +0.000 A 
ATOM     25  N   UNL     1      -2.064  14.314  21.017  0.00  0.00    +0.000 NA
ATOM     26  N   UNL     1      -1.286  14.806  22.038  0.00  0.00    +0.000 NA
ATOM     27  C   UNL     1      -0.789  13.783  22.689  0.00  0.00    +0.000 A 
ATOM     28  N   UNL     1      -1.235  12.629  22.126  0.00  0.00    +0.000 N 
ATOM     29  C   UNL     1      -0.926  11.293  22.565  0.00  0.00    +0.000 C 
ENDBRANCH  23  24
ENDBRANCH  22  23
ENDBRANCH   1  22
BRANCH   3  30
ATOM     30  N   UNL     1       2.416  13.801  18.353  0.00  0.00    +0.000 N 
ATOM     31  H   UNL     1       3.194  13.608  17.728  0.00  0.00    +0.000 HD
BRANCH  30  32
ATOM     32  C   UNL     1       2.806  14.420  19.626  0.00  0.00    +0.000 C 
ATOM     33  C   UNL     1       1.832  15.514  20.034  0.00  0.00    +0.000 C 
ATOM     34  C   UNL     1       2.205  15.709  21.488  0.00  0.00    +0.000 C 
ATOM     35  O   UNL     1       2.524  14.406  21.996  0.00  0.00    +0.000 OA
ATOM     36  C   UNL     1       2.724  13.528  20.866  0.00  0.00    +0.000 C 
ENDBRANCH  30  32
ENDBRANCH   3  30
TORSDOF 6
ENDMDL
MODEL 6
REMARK VINA RESULT:      -7.9      2.263      3.347
REMARK  Name = 
REMARK  8 active torsions:
REMARK  status: ('A' for Active; 'I' for Inactive)
REMARK    1  A    between atoms: C_1  and  C_2
REMARK    2  A    between atoms: C_2  and  C_3
REMARK    3  A    between atoms: C_2  and  C_10
REMARK    4  A    between atoms: C_3  and  C_4
REMARK    5  A    between atoms: N_8  and  C_9
REMARK    6  A    between atoms: C_12  and  N_13
REMARK    7  A    between atoms: N_13  and  C_14
REMARK    8  A    between atoms: C_28  and  C_29
REMARK                            x       y       z     vdW  Elec       q    Type
REMARK                         _______ _______ _______ _____ _____    ______ ____
ROOT
ATOM      1  C   UNL     1      -0.342  12.043  18.584  0.00  0.00    +0.000 A 
ATOM      2  C   UNL     1       0.599  13.058  18.463  0.00  0.00    +0.000 A 
ATOM      3  C   UNL     1       1.963  12.774  18.526  0.00  0.00    +0.000 A 
ATOM      4  N   UNL     1       2.413  11.507  18.645  0.00  0.00    +0.000 NA
ATOM      5  C   UNL     1       1.518  10.509  18.730  0.00  0.00    +0.000 A 
ATOM      6  N   UNL     1       1.957   9.193  18.732  0.00  0.00    +0.000 N 
ATOM      7  C   UNL     1       2.938   8.714  17.784  0.00  0.00    +0.000 C 
ATOM      8  C   UNL     1       3.110   7.279  18.197  0.00  0.00    +0.000 A 
ATOM      9  C   UNL     1       2.292   7.018  19.302  0.00  0.00    +0.000 A 
ATOM     10  C   UNL     1       2.214   5.777  19.910  0.00  0.00    +0.000 A 
ATOM     11  C   UNL     1       2.994   4.756  19.380  0.00  0.00    +0.000 A 
ATOM     12  C   UNL     1       3.844   5.002  18.283  0.00  0.00    +0.000 A 
ATOM     13  C   UNL     1       3.917   6.280  17.677  0.00  0.00    +0.000 A 
ATOM     14  C   UNL     1       1.587   8.248  19.657  0.00  0.00    +0.000 C 
ATOM     15  O   UNL     1       0.856   8.358  20.637  0.00  0.00    +0.000 OA
ATOM     16  C   UNL     1       0.145  10.737  18.697  0.00  0.00    +0.000 A 
ENDROOT
BRANCH  13  17
ATOM     17  C   UNL     1       4.873   6.509  16.533  0.00  0.00    +0.000 C 
ATOM     18  F   UNL     1       5.992   7.198  16.900  0.00  0.00    +0.000 F 
ATOM     19  F   UNL     1       5.312   5.349  15.982  0.00  0.00    +0.000 F 
ATOM     20  F   UNL     1       4.315   7.223  15.519  0.00  0.00    +0.000 F 
ENDBRANCH  13  17
BRANCH   1  22
ATOM     21  C   UNL     1      -2.555  11.482  17.532  0.00  0.00    +0.000 C 
ATOM     22  C   UNL     1      -1.839  12.355  18.571  0.00  0.00    +0.000 C 
BRANCH  22  23
ATOM     23  C   UNL     1      -2.458  12.194  19.984  0.00  0.00    +0.000 C 
BRANCH  23  24
ATOM     24  C   UNL     1      -1.810  13.070  21.001  0.00  0.00    +0.000 A 
ATOM     25  N   UNL     1      -1.841  14.390  21.036  0.00  0.00    +0.000 NA
ATOM     26  N   UNL     1      -1.135  14.806  22.139  0.00  0.00    +0.000 NA
ATOM     27  C   UNL     1      -0.674  13.738  22.743  0.00  0.00    +0.000 A 
ATOM     28  N   UNL     1      -1.073  12.628  22.067  0.00  0.00    +0.000 N 
ATOM     29  C   UNL     1      -0.783  11.264  22.423  0.00  0.00    +0.000 C 
ENDBRANCH  23  24
ENDBRANCH  22  23
ENDBRANCH   1  22
BRANCH   3  30
ATOM     30  N   UNL     1       2.890  13.833  18.518  0.00  0.00    +0.000 N 
ATOM     31  H   UNL     1       3.494  13.814  19.334  0.00  0.00    +0.000 HD
BRANCH  30  32
ATOM     32  C   UNL     1       2.320  15.154  18.221  0.00  0.00    +0.000 C 
ATOM     33  C   UNL     1       2.253  16.024  19.466  0.00  0.00    +0.000 C 
ATOM     34  C   UNL     1       2.018  17.389  18.856  0.00  0.00    +0.000 C 
ATOM     35  O   UNL     1       2.789  17.423  17.647  0.00  0.00    +0.000 OA
ATOM     36  C   UNL     1       3.155  16.065  17.318  0.00  0.00    +0.000 C 
ENDBRANCH  30  32
ENDBRANCH   3  30
TORSDOF 6
ENDMDL
MODEL 7
REMARK VINA RESULT:      -7.8      2.110      2.767
REMARK  Name = 
REMARK  8 active torsions:
REMARK  status: ('A' for Active; 'I' for Inactive)
REMARK    1  A    between atoms: C_1  and  C_2
REMARK    2  A    between atoms: C_2  and  C_3
REMARK    3  A    between atoms: C_2  and  C_10
REMARK    4  A    between atoms: C_3  and  C_4
REMARK    5  A    between atoms: N_8  and  C_9
REMARK    6  A    between atoms: C_12  and  N_13
REMARK    7  A    between atoms: N_13  and  C_14
REMARK    8  A    between atoms: C_28  and  C_29
REMARK                            x       y       z     vdW  Elec       q    Type
REMARK                         _______ _______ _______ _____ _____    ______ ____
ROOT
ATOM      1  C   UNL     1      -0.204  11.741  18.494  0.00  0.00    +0.000 A 
ATOM      2  C   UNL     1       0.710  12.757  18.241  0.00  0.00    +0.000 A 
ATOM      3  C   UNL     1       2.079  12.490  18.205  0.00  0.00    +0.000 A 
ATOM      4  N   UNL     1       2.554  11.236  18.354  0.00  0.00    +0.000 NA
ATOM      5  C   UNL     1       1.683  10.235  18.566  0.00  0.00    +0.000 A 
ATOM      6  N   UNL     1       2.138   8.925  18.602  0.00  0.00    +0.000 N 
ATOM      7  C   UNL     1       3.045   8.405  17.604  0.00  0.00    +0.000 C 
ATOM      8  C   UNL     1       3.270   6.996  18.078  0.00  0.00    +0.000 A 
ATOM      9  C   UNL     1       2.549   6.789  19.259  0.00  0.00    +0.000 A 
ATOM     10  C   UNL     1       2.539   5.581  19.937  0.00  0.00    +0.000 A 
ATOM     11  C   UNL     1       3.286   4.541  19.400  0.00  0.00    +0.000 A 
ATOM     12  C   UNL     1       4.040   4.734  18.225  0.00  0.00    +0.000 A 
ATOM     13  C   UNL     1       4.046   5.978  17.547  0.00  0.00    +0.000 A 
ATOM     14  C   UNL     1       1.860   8.030  19.604  0.00  0.00    +0.000 C 
ATOM     15  O   UNL     1       1.210   8.186  20.635  0.00  0.00    +0.000 OA
ATOM     16  C   UNL     1       0.309  10.448  18.636  0.00  0.00    +0.000 A 
ENDROOT
BRANCH  13  17
ATOM     17  C   UNL     1       4.900   6.152  16.317  0.00  0.00    +0.000 C 
ATOM     18  F   UNL     1       4.922   5.046  15.519  0.00  0.00    +0.000 F 
ATOM     19  F   UNL     1       4.476   7.173  15.529  0.00  0.00    +0.000 F 
ATOM     20  F   UNL     1       6.200   6.418  16.615  0.00  0.00    +0.000 F 
ENDBRANCH  13  17
BRANCH   1  22
ATOM     21  C   UNL     1      -2.495  11.045  17.730  0.00  0.00    +0.000 C 
ATOM     22  C   UNL     1      -1.701  12.038  18.588  0.00  0.00    +0.000 C 
BRANCH  22  23
ATOM     23  C   UNL     1      -2.181  12.038  20.062  0.00  0.00    +0.000 C 
BRANCH  23  24
ATOM     24  C   UNL     1      -2.877  13.300  20.443  0.00  0.00    +0.000 A 
ATOM     25  N   UNL     1      -2.305  14.431  20.816  0.00  0.00    +0.000 NA
ATOM     26  N   UNL     1      -3.297  15.350  21.064  0.00  0.00    +0.000 NA
ATOM     27  C   UNL     1      -4.449  14.760  20.856  0.00  0.00    +0.000 A 
ATOM     28  N   UNL     1      -4.234  13.476  20.463  0.00  0.00    +0.000 N 
ATOM     29  C   UNL     1      -5.245  12.510  20.125  0.00  0.00    +0.000 C 
ENDBRANCH  23  24
ENDBRANCH  22  23
ENDBRANCH   1  22
BRANCH   3  30
ATOM     30  N   UNL     1       2.986  13.556  18.063  0.00  0.00    +0.000 N 
ATOM     31  H   UNL     1       3.880  13.353  18.500  0.00  0.00    +0.000 HD
BRANCH  30  32
ATOM     32  C   UNL     1       2.443  14.881  18.388  0.00  0.00    +0.000 C 
ATOM     33  C   UNL     1       2.759  15.275  19.822  0.00  0.00    +0.000 C 
ATOM     34  C   UNL     1       2.460  16.758  19.790  0.00  0.00    +0.000 C 
ATOM     35  O   UNL     1       2.889  17.223  18.503  0.00  0.00    +0.000 OA
ATOM     36  C   UNL     1       3.069  16.069  17.653  0.00  0.00    +0.000 C 
ENDBRANCH  30  32
ENDBRANCH   3  30
TORSDOF 6
ENDMDL
MODEL 8
REMARK VINA RESULT:      -7.8      3.099      6.119
REMARK  Name = 
REMARK  8 active torsions:
REMARK  status: ('A' for Active; 'I' for Inactive)
REMARK    1  A    between atoms: C_1  and  C_2
REMARK    2  A    between atoms: C_2  and  C_3
REMARK    3  A    between atoms: C_2  and  C_10
REMARK    4  A    between atoms: C_3  and  C_4
REMARK    5  A    between atoms: N_8  and  C_9
REMARK    6  A    between atoms: C_12  and  N_13
REMARK    7  A    between atoms: N_13  and  C_14
REMARK    8  A    between atoms: C_28  and  C_29
REMARK                            x       y       z     vdW  Elec       q    Type
REMARK                         _______ _______ _______ _____ _____    ______ ____
ROOT
ATOM      1  C   UNL     1       1.131  12.041  19.232  0.00  0.00    +0.000 A 
ATOM      2  C   UNL     1      -0.252  11.967  19.335  0.00  0.00    +0.000 A 
ATOM      3  C   UNL     1      -0.915  10.751  19.164  0.00  0.00    +0.000 A 
ATOM      4  N   UNL     1      -0.235   9.604  18.952  0.00  0.00    +0.000 NA
ATOM      5  C   UNL     1       1.106   9.651  18.883  0.00  0.00    +0.000 A 
ATOM      6  N   UNL     1       1.829   8.471  18.787  0.00  0.00    +0.000 N 
ATOM      7  C   UNL     1       1.554   7.336  19.640  0.00  0.00    +0.000 C 
ATOM      8  C   UNL     1       2.544   6.317  19.147  0.00  0.00    +0.000 A 
ATOM      9  C   UNL     1       3.280   6.866  18.091  0.00  0.00    +0.000 A 
ATOM     10  C   UNL     1       4.285   6.179  17.432  0.00  0.00    +0.000 A 
ATOM     11  C   UNL     1       4.558   4.884  17.856  0.00  0.00    +0.000 A 
ATOM     12  C   UNL     1       3.813   4.302  18.900  0.00  0.00    +0.000 A 
ATOM     13  C   UNL     1       2.782   5.017  19.560  0.00  0.00    +0.000 A 
ATOM     14  C   UNL     1       2.797   8.223  17.846  0.00  0.00    +0.000 C 
ATOM     15  O   UNL     1       3.194   8.933  16.926  0.00  0.00    +0.000 OA
ATOM     16  C   UNL     1       1.817  10.840  19.023  0.00  0.00    +0.000 A 
ENDROOT
BRANCH  13  17
ATOM     17  C   UNL     1       1.982   4.339  20.644  0.00  0.00    +0.000 C 
ATOM     18  F   UNL     1       2.135   2.983  20.655  0.00  0.00    +0.000 F 
ATOM     19  F   UNL     1       2.325   4.763  21.887  0.00  0.00    +0.000 F 
ATOM     20  F   UNL     1       0.645   4.560  20.524  0.00  0.00    +0.000 F 
ENDBRANCH  13  17
BRANCH   1  22
ATOM     21  C   UNL     1       2.615  13.444  20.699  0.00  0.00    +0.000 C 
ATOM     22  C   UNL     1       1.858  13.380  19.366  0.00  0.00    +0.000 C 
BRANCH  22  23
ATOM     23  C   UNL     1       2.796  13.631  18.158  0.00  0.00    +0.000 C 
BRANCH  23  24
ATOM     24  C   UNL     1       3.347  15.016  18.133  0.00  0.00    +0.000 A 
ATOM     25  N   UNL     1       2.657  16.139  18.220  0.00  0.00    +0.000 NA
ATOM     26  N   UNL     1       3.541  17.191  18.174  0.00  0.00    +0.000 NA
ATOM     27  C   UNL     1       4.746  16.692  18.043  0.00  0.00    +0.000 A 
ATOM     28  N   UNL     1       4.673  15.335  18.015  0.00  0.00    +0.000 N 
ATOM     29  C   UNL     1       5.783  14.426  17.899  0.00  0.00    +0.000 C 
ENDBRANCH  23  24
ENDBRANCH  22  23
ENDBRANCH   1  22
BRANCH   3  30
ATOM     30  N   UNL     1      -2.321  10.727  19.157  0.00  0.00    +0.000 N 
ATOM     31  H   UNL     1      -2.685   9.812  19.406  0.00  0.00    +0.000 HD
BRANCH  30  32
ATOM     32  C   UNL     1      -2.947  11.321  17.969  0.00  0.00    +0.000 C 
ATOM     33  C   UNL     1      -2.988  10.338  16.811  0.00  0.00    +0.000 C 
ATOM     34  C   UNL     1      -3.981  11.013  15.890  0.00  0.00    +0.000 C 
ATOM     35  O   UNL     1      -4.973  11.606  16.739  0.00  0.00    +0.000 OA
ATOM     36  C   UNL     1      -4.438  11.647  18.081  0.00  0.00    +0.000 C 
ENDBRANCH  30  32
ENDBRANCH   3  30
TORSDOF 6
ENDMDL
MODEL 9
REMARK VINA RESULT:      -7.8      2.392      3.452
REMARK  Name = 
REMARK  8 active torsions:
REMARK  status: ('A' for Active; 'I' for Inactive)
REMARK    1  A    between atoms: C_1  and  C_2
REMARK    2  A    between atoms: C_2  and  C_3
REMARK    3  A    between atoms: C_2  and  C_10
REMARK    4  A    between atoms: C_3  and  C_4
REMARK    5  A    between atoms: N_8  and  C_9
REMARK    6  A    between atoms: C_12  and  N_13
REMARK    7  A    between atoms: N_13  and  C_14
REMARK    8  A    between atoms: C_28  and  C_29
REMARK                            x       y       z     vdW  Elec       q    Type
REMARK                         _______ _______ _______ _____ _____    ______ ____
ROOT
ATOM      1  C   UNL     1      -0.777  11.984  18.726  0.00  0.00    +0.000 A 
ATOM      2  C   UNL     1       0.108  13.016  18.442  0.00  0.00    +0.000 A 
ATOM      3  C   UNL     1       1.485  12.792  18.439  0.00  0.00    +0.000 A 
ATOM      4  N   UNL     1       1.998  11.561  18.652  0.00  0.00    +0.000 NA
ATOM      5  C   UNL     1       1.155  10.544  18.895  0.00  0.00    +0.000 A 
ATOM      6  N   UNL     1       1.651   9.252  18.997  0.00  0.00    +0.000 N 
ATOM      7  C   UNL     1       2.589   8.717  18.037  0.00  0.00    +0.000 C 
ATOM      8  C   UNL     1       2.851   7.339  18.578  0.00  0.00    +0.000 A 
ATOM      9  C   UNL     1       2.117   7.161  19.756  0.00  0.00    +0.000 A 
ATOM     10  C   UNL     1       2.134   5.985  20.487  0.00  0.00    +0.000 A 
ATOM     11  C   UNL     1       2.922   4.947  20.009  0.00  0.00    +0.000 A 
ATOM     12  C   UNL     1       3.689   5.112  18.838  0.00  0.00    +0.000 A 
ATOM     13  C   UNL     1       3.667   6.324  18.105  0.00  0.00    +0.000 A 
ATOM     14  C   UNL     1       1.383   8.393  20.034  0.00  0.00    +0.000 C 
ATOM     15  O   UNL     1       0.712   8.574  21.047  0.00  0.00    +0.000 OA
ATOM     16  C   UNL     1      -0.226  10.715  18.934  0.00  0.00    +0.000 A 
ENDROOT
BRANCH  13  17
ATOM     17  C   UNL     1       4.537   6.471  16.882  0.00  0.00    +0.000 C 
ATOM     18  F   UNL     1       5.792   6.923  17.168  0.00  0.00    +0.000 F 
ATOM     19  F   UNL     1       4.704   5.299  16.218  0.00  0.00    +0.000 F 
ATOM     20  F   UNL     1       4.025   7.349  15.978  0.00  0.00    +0.000 F 
ENDBRANCH  13  17
BRANCH   1  22
ATOM     21  C   UNL     1      -3.024  11.250  17.871  0.00  0.00    +0.000 C 
ATOM     22  C   UNL     1      -2.285  12.236  18.784  0.00  0.00    +0.000 C 
BRANCH  22  23
ATOM     23  C   UNL     1      -2.807  12.175  20.242  0.00  0.00    +0.000 C 
BRANCH  23  24
ATOM     24  C   UNL     1      -2.083  13.106  21.154  0.00  0.00    +0.000 A 
ATOM     25  N   UNL     1      -2.064  14.425  21.078  0.00  0.00    +0.000 NA
ATOM     26  N   UNL     1      -1.295  14.902  22.113  0.00  0.00    +0.000 NA
ATOM     27  C   UNL     1      -0.849  13.870  22.787  0.00  0.00    +0.000 A 
ATOM     28  N   UNL     1      -1.319  12.725  22.224  0.00  0.00    +0.000 N 
ATOM     29  C   UNL     1      -1.065  11.385  22.683  0.00  0.00    +0.000 C 
ENDBRANCH  23  24
ENDBRANCH  22  23
ENDBRANCH   1  22
BRANCH   3  30
ATOM     30  N   UNL     1       2.361  13.879  18.263  0.00  0.00    +0.000 N 
ATOM     31  H   UNL     1       2.746  13.907  17.324  0.00  0.00    +0.000 HD
BRANCH  30  32
ATOM     32  C   UNL     1       3.358  14.052  19.328  0.00  0.00    +0.000 C 
ATOM     33  C   UNL     1       4.324  15.180  19.009  0.00  0.00    +0.000 C 
ATOM     34  C   UNL     1       4.964  15.408  20.361  0.00  0.00    +0.000 C 
ATOM     35  O   UNL     1       3.925  15.220  21.330  0.00  0.00    +0.000 OA
ATOM     36  C   UNL     1       2.829  14.542  20.678  0.00  0.00    +0.000 C 
ENDBRANCH  30  32
ENDBRANCH   3  30
TORSDOF 6
ENDMDL
