MODEL 1
REMARK VINA RESULT:      -8.8      0.000      0.000
REMARK  Name = 
REMARK  8 active torsions:
REMARK  status: ('A' for Active; 'I' for Inactive)
REMARK    1  A    between atoms: C_1  and  C_2
REMARK    2  A    between atoms: C_6  and  C_7
REMARK    3  A    between atoms: C_9  and  C_10
REMARK    4  A    between atoms: C_14  and  C_15
REMARK    5  A    between atoms: C_15  and  C_16
REMARK    6  A    between atoms: C_15  and  S_17
REMARK    7  A    between atoms: S_17  and  C_18
REMARK    8  A    between atoms: N_22  and  C_23
REMARK                            x       y       z     vdW  Elec       q    Type
REMARK                         _______ _______ _______ _____ _____    ______ ____
ROOT
ATOM      1  C   UNL     1       6.725   6.237  17.570  0.00  0.00    +0.000 A 
ATOM      2  C   UNL     1       7.314   5.236  16.790  0.00  0.00    +0.000 A 
ATOM      3  C   UNL     1       6.583   4.117  16.410  0.00  0.00    +0.000 A 
ATOM      4  C   UNL     1       5.234   4.027  16.745  0.00  0.00    +0.000 A 
ATOM      5  C   UNL     1       4.607   5.013  17.527  0.00  0.00    +0.000 A 
ATOM      6  C   UNL     1       5.411   6.047  18.049  0.00  0.00    +0.000 A 
ENDROOT
BRANCH   1   9
ATOM      7  C   UNL     1       8.454   9.421  18.181  0.00  0.00    +0.000 A 
ATOM      8  C   UNL     1       8.351   8.043  18.496  0.00  0.00    +0.000 A 
ATOM      9  C   UNL     1       7.368   7.547  17.696  0.00  0.00    +0.000 A 
ATOM     10  O   UNL     1       6.867   8.570  16.945  0.00  0.00    +0.000 OA
ATOM     11  N   UNL     1       7.546   9.740  17.240  0.00  0.00    +0.000 NA
BRANCH   7  17
ATOM     12  C   UNL     1      12.111  12.823  17.674  0.00  0.00    +0.000 C 
ATOM     13  C   UNL     1      11.167  12.039  18.539  0.00  0.00    +0.000 A 
ATOM     14  C   UNL     1      11.178  12.203  19.929  0.00  0.00    +0.000 A 
ATOM     15  C   UNL     1      10.291  11.485  20.730  0.00  0.00    +0.000 A 
ATOM     16  C   UNL     1       9.385  10.595  20.152  0.00  0.00    +0.000 A 
ATOM     17  C   UNL     1       9.362  10.400  18.768  0.00  0.00    +0.000 A 
ATOM     18  C   UNL     1      10.259  11.132  17.965  0.00  0.00    +0.000 A 
ENDBRANCH   7  17
ENDBRANCH   1   9
BRANCH   5  19
ATOM     19  C   UNL     1       3.070   5.052  17.659  0.00  0.00    +0.000 C 
ATOM     20  C   UNL     1       2.697   5.830  18.919  0.00  0.00    +0.000 C 
BRANCH  19  21
ATOM     21  S   UNL     1       2.372   3.296  17.747  0.00  0.00    +0.000 S 
BRANCH  21  22
ATOM     22  C   UNL     1       2.100   2.926  19.437  0.00  0.00    +0.000 A 
ATOM     23  N   UNL     1       0.973   3.014  20.080  0.00  0.00    +0.000 NA
ATOM     24  N   UNL     1       1.220   2.806  21.436  0.00  0.00    +0.000 NA
ATOM     25  C   UNL     1       2.494   2.570  21.563  0.00  0.00    +0.000 A 
ATOM     26  N   UNL     1       3.096   2.596  20.341  0.00  0.00    +0.000 N 
ATOM     27  C   UNL     1       4.482   2.331  20.149  0.00  0.00    +0.000 C 
ENDBRANCH  21  22
ENDBRANCH  19  21
ENDBRANCH   5  19
TORSDOF 5
ENDMDL
MODEL 2
REMARK VINA RESULT:      -8.4      1.878      2.500
REMARK  Name = 
REMARK  8 active torsions:
REMARK  status: ('A' for Active; 'I' for Inactive)
REMARK    1  A    between atoms: C_1  and  C_2
REMARK    2  A    between atoms: C_6  and  C_7
REMARK    3  A    between atoms: C_9  and  C_10
REMARK    4  A    between atoms: C_14  and  C_15
REMARK    5  A    between atoms: C_15  and  C_16
REMARK    6  A    between atoms: C_15  and  S_17
REMARK    7  A    between atoms: S_17  and  C_18
REMARK    8  A    between atoms: N_22  and  C_23
REMARK                            x       y       z     vdW  Elec       q    Type
REMARK                         _______ _______ _______ _____ _____    ______ ____
ROOT
ATOM      1  C   UNL     1       6.842   5.518  16.747  0.00  0.00    +0.000 A 
ATOM      2  C   UNL     1       6.797   5.512  15.349  0.00  0.00    +0.000 A 
ATOM      3  C   UNL     1       5.988   4.605  14.673  0.00  0.00    +0.000 A 
ATOM      4  C   UNL     1       5.161   3.747  15.394  0.00  0.00    +0.000 A 
ATOM      5  C   UNL     1       5.178   3.723  16.800  0.00  0.00    +0.000 A 
ATOM      6  C   UNL     1       6.134   4.525  17.458  0.00  0.00    +0.000 A 
ENDROOT
BRANCH   1   9
ATOM      7  C   UNL     1       8.294   8.540  18.249  0.00  0.00    +0.000 A 
ATOM      8  C   UNL     1       7.561   7.980  17.173  0.00  0.00    +0.000 A 
ATOM      9  C   UNL     1       7.421   6.657  17.461  0.00  0.00    +0.000 A 
ATOM     10  O   UNL     1       8.058   6.404  18.641  0.00  0.00    +0.000 OA
ATOM     11  N   UNL     1       8.598   7.578  19.139  0.00  0.00    +0.000 NA
BRANCH   7  17
ATOM     12  C   UNL     1      10.790  12.071  20.800  0.00  0.00    +0.000 C 
ATOM     13  C   UNL     1       9.895  11.667  19.665  0.00  0.00    +0.000 A 
ATOM     14  C   UNL     1       9.405  12.627  18.772  0.00  0.00    +0.000 A 
ATOM     15  C   UNL     1       8.585  12.249  17.710  0.00  0.00    +0.000 A 
ATOM     16  C   UNL     1       8.245  10.908  17.528  0.00  0.00    +0.000 A 
ATOM     17  C   UNL     1       8.707   9.930  18.413  0.00  0.00    +0.000 A 
ATOM     18  C   UNL     1       9.538  10.319  19.482  0.00  0.00    +0.000 A 
ENDBRANCH   7  17
ENDBRANCH   1   9
BRANCH   5  19
ATOM     19  C   UNL     1       4.078   2.982  17.587  0.00  0.00    +0.000 C 
ATOM     20  C   UNL     1       2.711   3.424  17.071  0.00  0.00    +0.000 C 
BRANCH  19  21
ATOM     21  S   UNL     1       4.228   3.353  19.436  0.00  0.00    +0.000 S 
BRANCH  21  22
ATOM     22  C   UNL     1       3.134   4.674  19.793  0.00  0.00    +0.000 A 
ATOM     23  N   UNL     1       3.312   5.929  19.505  0.00  0.00    +0.000 NA
ATOM     24  N   UNL     1       2.302   6.670  20.116  0.00  0.00    +0.000 NA
ATOM     25  C   UNL     1       1.527   5.827  20.736  0.00  0.00    +0.000 A 
ATOM     26  N   UNL     1       1.975   4.554  20.541  0.00  0.00    +0.000 N 
ATOM     27  C   UNL     1       1.311   3.407  21.060  0.00  0.00    +0.000 C 
ENDBRANCH  21  22
ENDBRANCH  19  21
ENDBRANCH   5  19
TORSDOF 5
ENDMDL
MODEL 3
REMARK VINA RESULT:      -8.3      6.521      9.272
REMARK  Name = 
REMARK  8 active torsions:
REMARK  status: ('A' for Active; 'I' for Inactive)
REMARK    1  A    between atoms: C_1  and  C_2
REMARK    2  A    between atoms: C_6  and  C_7
REMARK    3  A    between atoms: C_9  and  C_10
REMARK    4  A    between atoms: C_14  and  C_15
REMARK    5  A    between atoms: C_15  and  C_16
REMARK    6  A    between atoms: C_15  and  S_17
REMARK    7  A    between atoms: S_17  and  C_18
REMARK    8  A    between atoms: N_22  and  C_23
REMARK                            x       y       z     vdW  Elec       q    Type
REMARK                         _______ _______ _______ _____ _____    ______ ____
ROOT
ATOM      1  C   UNL     1       1.318   9.275  20.086  0.00  0.00    +0.000 A 
ATOM      2  C   UNL     1       1.329   9.816  18.796  0.00  0.00    +0.000 A 
ATOM      3  C   UNL     1       1.817   9.075  17.725  0.00  0.00    +0.000 A 
ATOM      4  C   UNL     1       2.228   7.759  17.926  0.00  0.00    +0.000 A 
ATOM      5  C   UNL     1       2.231   7.182  19.208  0.00  0.00    +0.000 A 
ATOM      6  C   UNL     1       1.901   8.008  20.302  0.00  0.00    +0.000 A 
ENDROOT
BRANCH   1   9
ATOM      7  C   UNL     1      -0.694  11.124  22.543  0.00  0.00    +0.000 A 
ATOM      8  C   UNL     1      -0.274  11.007  21.194  0.00  0.00    +0.000 A 
ATOM      9  C   UNL     1       0.521   9.904  21.141  0.00  0.00    +0.000 A 
ATOM     10  O   UNL     1       0.613   9.379  22.398  0.00  0.00    +0.000 OA
ATOM     11  N   UNL     1      -0.149  10.134  23.274  0.00  0.00    +0.000 NA
BRANCH   7  17
ATOM     12  C   UNL     1      -5.098  12.496  24.524  0.00  0.00    +0.000 C 
ATOM     13  C   UNL     1      -3.713  12.838  24.056  0.00  0.00    +0.000 A 
ATOM     14  C   UNL     1      -3.248  14.156  24.122  0.00  0.00    +0.000 A 
ATOM     15  C   UNL     1      -1.956  14.470  23.701  0.00  0.00    +0.000 A 
ATOM     16  C   UNL     1      -1.116  13.471  23.209  0.00  0.00    +0.000 A 
ATOM     17  C   UNL     1      -1.559  12.148  23.118  0.00  0.00    +0.000 A 
ATOM     18  C   UNL     1      -2.865  11.838  23.548  0.00  0.00    +0.000 A 
ENDBRANCH   7  17
ENDBRANCH   1   9
BRANCH   5  19
ATOM     19  C   UNL     1       2.419   5.660  19.385  0.00  0.00    +0.000 C 
ATOM     20  C   UNL     1       1.814   5.234  20.720  0.00  0.00    +0.000 C 
BRANCH  19  21
ATOM     21  S   UNL     1       4.257   5.214  19.330  0.00  0.00    +0.000 S 
BRANCH  21  22
ATOM     22  C   UNL     1       4.685   4.973  17.648  0.00  0.00    +0.000 A 
ATOM     23  N   UNL     1       4.373   3.953  16.905  0.00  0.00    +0.000 NA
ATOM     24  N   UNL     1       5.053   4.064  15.693  0.00  0.00    +0.000 NA
ATOM     25  C   UNL     1       5.738   5.171  15.736  0.00  0.00    +0.000 A 
ATOM     26  N   UNL     1       5.521   5.806  16.922  0.00  0.00    +0.000 N 
ATOM     27  C   UNL     1       6.099   7.065  17.249  0.00  0.00    +0.000 C 
ENDBRANCH  21  22
ENDBRANCH  19  21
ENDBRANCH   5  19
TORSDOF 5
ENDMDL
MODEL 4
REMARK VINA RESULT:      -8.3      5.896      8.600
REMARK  Name = 
REMARK  8 active torsions:
REMARK  status: ('A' for Active; 'I' for Inactive)
REMARK    1  A    between atoms: C_1  and  C_2
REMARK    2  A    between atoms: C_6  and  C_7
REMARK    3  A    between atoms: C_9  and  C_10
REMARK    4  A    between atoms: C_14  and  C_15
REMARK    5  A    between atoms: C_15  and  C_16
REMARK    6  A    between atoms: C_15  and  S_17
REMARK    7  A    between atoms: S_17  and  C_18
REMARK    8  A    between atoms: N_22  and  C_23
REMARK                            x       y       z     vdW  Elec       q    Type
REMARK                         _______ _______ _______ _____ _____    ______ ____
ROOT
ATOM      1  C   UNL     1       1.712   8.282  20.048  0.00  0.00    +0.000 A 
ATOM      2  C   UNL     1       1.911   8.716  18.733  0.00  0.00    +0.000 A 
ATOM      3  C   UNL     1       2.305   7.819  17.747  0.00  0.00    +0.000 A 
ATOM      4  C   UNL     1       2.431   6.467  18.054  0.00  0.00    +0.000 A 
ATOM      5  C   UNL     1       2.239   5.993  19.364  0.00  0.00    +0.000 A 
ATOM      6  C   UNL     1       2.014   6.944  20.380  0.00  0.00    +0.000 A 
ENDROOT
BRANCH   1   9
ATOM      7  C   UNL     1      -0.123  10.630  22.198  0.00  0.00    +0.000 A 
ATOM      8  C   UNL     1       0.185  10.217  20.878  0.00  0.00    +0.000 A 
ATOM      9  C   UNL     1       0.993   9.129  21.002  0.00  0.00    +0.000 A 
ATOM     10  O   UNL     1       1.198   8.896  22.331  0.00  0.00    +0.000 OA
ATOM     11  N   UNL     1       0.498   9.826  23.080  0.00  0.00    +0.000 NA
BRANCH   7  17
ATOM     12  C   UNL     1      -4.253  12.414  24.427  0.00  0.00    +0.000 C 
ATOM     13  C   UNL     1      -2.982  12.638  23.660  0.00  0.00    +0.000 A 
ATOM     14  C   UNL     1      -2.601  13.931  23.283  0.00  0.00    +0.000 A 
ATOM     15  C   UNL     1      -1.413  14.140  22.583  0.00  0.00    +0.000 A 
ATOM     16  C   UNL     1      -0.594  13.060  22.253  0.00  0.00    +0.000 A 
ATOM     17  C   UNL     1      -0.957  11.756  22.604  0.00  0.00    +0.000 A 
ATOM     18  C   UNL     1      -2.157  11.554  23.314  0.00  0.00    +0.000 A 
ENDBRANCH   7  17
ENDBRANCH   1   9
BRANCH   5  19
ATOM     19  C   UNL     1       2.106   4.481  19.641  0.00  0.00    +0.000 C 
ATOM     20  C   UNL     1       2.346   4.223  21.127  0.00  0.00    +0.000 C 
BRANCH  19  21
ATOM     21  S   UNL     1       3.352   3.509  18.602  0.00  0.00    +0.000 S 
BRANCH  21  22
ATOM     22  C   UNL     1       4.905   4.302  18.773  0.00  0.00    +0.000 A 
ATOM     23  N   UNL     1       5.549   4.518  19.881  0.00  0.00    +0.000 NA
ATOM     24  N   UNL     1       6.648   5.328  19.603  0.00  0.00    +0.000 NA
ATOM     25  C   UNL     1       6.646   5.553  18.320  0.00  0.00    +0.000 A 
ATOM     26  N   UNL     1       5.598   4.906  17.737  0.00  0.00    +0.000 N 
ATOM     27  C   UNL     1       5.353   4.926  16.335  0.00  0.00    +0.000 C 
ENDBRANCH  21  22
ENDBRANCH  19  21
ENDBRANCH   5  19
TORSDOF 5
ENDMDL
MODEL 5
REMARK VINA RESULT:      -8.1      6.241      9.468
REMARK  Name = 
REMARK  8 active torsions:
REMARK  status: ('A' for Active; 'I' for Inactive)
REMARK    1  A    between atoms: C_1  and  C_2
REMARK    2  A    between atoms: C_6  and  C_7
REMARK    3  A    between atoms: C_9  and  C_10
REMARK    4  A    between atoms: C_14  and  C_15
REMARK    5  A    between atoms: C_15  and  C_16
REMARK    6  A    between atoms: C_15  and  S_17
REMARK    7  A    between atoms: S_17  and  C_18
REMARK    8  A    between atoms: N_22  and  C_23
REMARK                            x       y       z     vdW  Elec       q    Type
REMARK                         _______ _______ _______ _____ _____    ______ ____
ROOT
ATOM      1  C   UNL     1       0.831   9.290  21.108  0.00  0.00    +0.000 A 
ATOM      2  C   UNL     1       0.252   9.296  22.381  0.00  0.00    +0.000 A 
ATOM      3  C   UNL     1      -0.581  10.338  22.772  0.00  0.00    +0.000 A 
ATOM      4  C   UNL     1      -0.900  11.345  21.865  0.00  0.00    +0.000 A 
ATOM      5  C   UNL     1      -0.338  11.373  20.576  0.00  0.00    +0.000 A 
ATOM      6  C   UNL     1       0.639  10.406  20.264  0.00  0.00    +0.000 A 
ENDROOT
BRANCH   1   9
ATOM      7  C   UNL     1       2.355   6.370  19.481  0.00  0.00    +0.000 A 
ATOM      8  C   UNL     1       2.141   7.770  19.454  0.00  0.00    +0.000 A 
ATOM      9  C   UNL     1       1.429   8.064  20.576  0.00  0.00    +0.000 A 
ATOM     10  O   UNL     1       1.190   6.902  21.250  0.00  0.00    +0.000 OA
ATOM     11  N   UNL     1       1.771   5.844  20.573  0.00  0.00    +0.000 NA
BRANCH   7  17
ATOM     12  C   UNL     1       5.840   5.944  15.893  0.00  0.00    +0.000 C 
ATOM     13  C   UNL     1       4.741   5.347  16.723  0.00  0.00    +0.000 A 
ATOM     14  C   UNL     1       4.349   4.018  16.530  0.00  0.00    +0.000 A 
ATOM     15  C   UNL     1       3.338   3.460  17.312  0.00  0.00    +0.000 A 
ATOM     16  C   UNL     1       2.705   4.226  18.293  0.00  0.00    +0.000 A 
ATOM     17  C   UNL     1       3.065   5.561  18.496  0.00  0.00    +0.000 A 
ATOM     18  C   UNL     1       4.091   6.116  17.705  0.00  0.00    +0.000 A 
ENDBRANCH   7  17
ENDBRANCH   1   9
BRANCH   5  19
ATOM     19  C   UNL     1      -0.900  12.319  19.493  0.00  0.00    +0.000 C 
ATOM     20  C   UNL     1      -0.666  13.765  19.924  0.00  0.00    +0.000 C 
BRANCH  19  21
ATOM     21  S   UNL     1      -2.748  12.005  19.240  0.00  0.00    +0.000 S 
BRANCH  21  22
ATOM     22  C   UNL     1      -2.940  11.257  17.667  0.00  0.00    +0.000 A 
ATOM     23  N   UNL     1      -2.041  10.583  17.013  0.00  0.00    +0.000 NA
ATOM     24  N   UNL     1      -2.531  10.315  15.736  0.00  0.00    +0.000 NA
ATOM     25  C   UNL     1      -3.731  10.818  15.672  0.00  0.00    +0.000 A 
ATOM     26  N   UNL     1      -4.060  11.390  16.864  0.00  0.00    +0.000 N 
ATOM     27  C   UNL     1      -5.327  11.988  17.118  0.00  0.00    +0.000 C 
ENDBRANCH  21  22
ENDBRANCH  19  21
ENDBRANCH   5  19
TORSDOF 5
ENDMDL
MODEL 6
REMARK VINA RESULT:      -8.1      7.460     10.328
REMARK  Name = 
REMARK  8 active torsions:
REMARK  status: ('A' for Active; 'I' for Inactive)
REMARK    1  A    between atoms: C_1  and  C_2
REMARK    2  A    between atoms: C_6  and  C_7
REMARK    3  A    between atoms: C_9  and  C_10
REMARK    4  A    between atoms: C_14  and  C_15
REMARK    5  A    between atoms: C_15  and  C_16
REMARK    6  A    between atoms: C_15  and  S_17
REMARK    7  A    between atoms: S_17  and  C_18
REMARK    8  A    between atoms: N_22  and  C_23
REMARK                            x       y       z     vdW  Elec       q    Type
REMARK                         _______ _______ _______ _____ _____    ______ ____
ROOT
ATOM      1  C   UNL     1       0.822   9.603  21.027  0.00  0.00    +0.000 A 
ATOM      2  C   UNL     1       0.693   9.040  22.301  0.00  0.00    +0.000 A 
ATOM      3  C   UNL     1      -0.133   9.629  23.252  0.00  0.00    +0.000 A 
ATOM      4  C   UNL     1      -0.893  10.745  22.910  0.00  0.00    +0.000 A 
ATOM      5  C   UNL     1      -0.791  11.339  21.640  0.00  0.00    +0.000 A 
ATOM      6  C   UNL     1       0.182  10.832  20.754  0.00  0.00    +0.000 A 
ENDROOT
BRANCH   1   9
ATOM      7  C   UNL     1       2.431   7.454  18.519  0.00  0.00    +0.000 A 
ATOM      8  C   UNL     1       1.934   7.574  19.841  0.00  0.00    +0.000 A 
ATOM      9  C   UNL     1       1.415   8.828  19.935  0.00  0.00    +0.000 A 
ATOM     10  O   UNL     1       1.606   9.464  18.742  0.00  0.00    +0.000 OA
ATOM     11  N   UNL     1       2.234   8.607  17.855  0.00  0.00    +0.000 NA
BRANCH   7  17
ATOM     12  C   UNL     1       2.550   2.528  17.553  0.00  0.00    +0.000 C 
ATOM     13  C   UNL     1       3.174   3.891  17.469  0.00  0.00    +0.000 A 
ATOM     14  C   UNL     1       4.418   4.064  16.853  0.00  0.00    +0.000 A 
ATOM     15  C   UNL     1       4.990   5.333  16.762  0.00  0.00    +0.000 A 
ATOM     16  C   UNL     1       4.324   6.442  17.286  0.00  0.00    +0.000 A 
ATOM     17  C   UNL     1       3.087   6.297  17.920  0.00  0.00    +0.000 A 
ATOM     18  C   UNL     1       2.514   5.012  18.005  0.00  0.00    +0.000 A 
ENDBRANCH   7  17
ENDBRANCH   1   9
BRANCH   5  19
ATOM     19  C   UNL     1      -1.824  12.388  21.177  0.00  0.00    +0.000 C 
ATOM     20  C   UNL     1      -1.271  13.130  19.963  0.00  0.00    +0.000 C 
BRANCH  19  21
ATOM     21  S   UNL     1      -2.194  13.607  22.575  0.00  0.00    +0.000 S 
BRANCH  21  22
ATOM     22  C   UNL     1      -3.861  13.361  23.055  0.00  0.00    +0.000 A 
ATOM     23  N   UNL     1      -4.607  12.334  22.772  0.00  0.00    +0.000 NA
ATOM     24  N   UNL     1      -5.910  12.608  23.184  0.00  0.00    +0.000 NA
ATOM     25  C   UNL     1      -5.901  13.790  23.730  0.00  0.00    +0.000 A 
ATOM     26  N   UNL     1      -4.637  14.300  23.713  0.00  0.00    +0.000 N 
ATOM     27  C   UNL     1      -4.299  15.562  24.278  0.00  0.00    +0.000 C 
ENDBRANCH  21  22
ENDBRANCH  19  21
ENDBRANCH   5  19
TORSDOF 5
ENDMDL
MODEL 7
REMARK VINA RESULT:      -8.1      6.563      8.874
REMARK  Name = 
REMARK  8 active torsions:
REMARK  status: ('A' for Active; 'I' for Inactive)
REMARK    1  A    between atoms: C_1  and  C_2
REMARK    2  A    between atoms: C_6  and  C_7
REMARK    3  A    between atoms: C_9  and  C_10
REMARK    4  A    between atoms: C_14  and  C_15
REMARK    5  A    between atoms: C_15  and  C_16
REMARK    6  A    between atoms: C_15  and  S_17
REMARK    7  A    between atoms: S_17  and  C_18
REMARK    8  A    between atoms: N_22  and  C_23
REMARK                            x       y       z     vdW  Elec       q    Type
REMARK                         _______ _______ _______ _____ _____    ______ ____
ROOT
ATOM      1  C   UNL     1       1.255   9.547  20.094  0.00  0.00    +0.000 A 
ATOM      2  C   UNL     1       1.357  10.173  18.848  0.00  0.00    +0.000 A 
ATOM      3  C   UNL     1       1.860   9.482  17.751  0.00  0.00    +0.000 A 
ATOM      4  C   UNL     1       2.196   8.136  17.877  0.00  0.00    +0.000 A 
ATOM      5  C   UNL     1       2.106   7.472  19.114  0.00  0.00    +0.000 A 
ATOM      6  C   UNL     1       1.764   8.239  20.247  0.00  0.00    +0.000 A 
ENDROOT
BRANCH   1   9
ATOM      7  C   UNL     1      -0.809  11.317  22.565  0.00  0.00    +0.000 A 
ATOM      8  C   UNL     1      -0.378  11.230  21.218  0.00  0.00    +0.000 A 
ATOM      9  C   UNL     1       0.438  10.143  21.153  0.00  0.00    +0.000 A 
ATOM     10  O   UNL     1       0.530   9.600  22.402  0.00  0.00    +0.000 OA
ATOM     11  N   UNL     1      -0.252  10.326  23.284  0.00  0.00    +0.000 NA
BRANCH   7  17
ATOM     12  C   UNL     1      -1.606  15.966  24.284  0.00  0.00    +0.000 C 
ATOM     13  C   UNL     1      -2.092  14.570  24.019  0.00  0.00    +0.000 A 
ATOM     14  C   UNL     1      -3.392  14.194  24.373  0.00  0.00    +0.000 A 
ATOM     15  C   UNL     1      -3.847  12.901  24.114  0.00  0.00    +0.000 A 
ATOM     16  C   UNL     1      -3.007  11.971  23.499  0.00  0.00    +0.000 A 
ATOM     17  C   UNL     1      -1.698  12.316  23.149  0.00  0.00    +0.000 A 
ATOM     18  C   UNL     1      -1.247  13.625  23.411  0.00  0.00    +0.000 A 
ENDBRANCH   7  17
ENDBRANCH   1   9
BRANCH   5  19
ATOM     19  C   UNL     1       2.210   5.935  19.190  0.00  0.00    +0.000 C 
ATOM     20  C   UNL     1       1.948   5.488  20.627  0.00  0.00    +0.000 C 
BRANCH  19  21
ATOM     21  S   UNL     1       3.924   5.362  18.631  0.00  0.00    +0.000 S 
BRANCH  21  22
ATOM     22  C   UNL     1       4.102   3.691  19.125  0.00  0.00    +0.000 A 
ATOM     23  N   UNL     1       4.957   3.222  19.985  0.00  0.00    +0.000 NA
ATOM     24  N   UNL     1       4.892   1.830  19.959  0.00  0.00    +0.000 NA
ATOM     25  C   UNL     1       3.973   1.504  19.096  0.00  0.00    +0.000 A 
ATOM     26  N   UNL     1       3.414   2.627  18.565  0.00  0.00    +0.000 N 
ATOM     27  C   UNL     1       2.348   2.596  17.622  0.00  0.00    +0.000 C 
ENDBRANCH  21  22
ENDBRANCH  19  21
ENDBRANCH   5  19
TORSDOF 5
ENDMDL
MODEL 8
REMARK VINA RESULT:      -8.1      5.524      7.807
REMARK  Name = 
REMARK  8 active torsions:
REMARK  status: ('A' for Active; 'I' for Inactive)
REMARK    1  A    between atoms: C_1  and  C_2
REMARK    2  A    between atoms: C_6  and  C_7
REMARK    3  A    between atoms: C_9  and  C_10
REMARK    4  A    between atoms: C_14  and  C_15
REMARK    5  A    between atoms: C_15  and  C_16
REMARK    6  A    between atoms: C_15  and  S_17
REMARK    7  A    between atoms: S_17  and  C_18
REMARK    8  A    between atoms: N_22  and  C_23
REMARK                            x       y       z     vdW  Elec       q    Type
REMARK                         _______ _______ _______ _____ _____    ______ ____
ROOT
ATOM      1  C   UNL     1       3.584   4.968  18.915  0.00  0.00    +0.000 A 
ATOM      2  C   UNL     1       2.695   3.924  19.191  0.00  0.00    +0.000 A 
ATOM      3  C   UNL     1       1.578   4.141  19.991  0.00  0.00    +0.000 A 
ATOM      4  C   UNL     1       1.304   5.424  20.459  0.00  0.00    +0.000 A 
ATOM      5  C   UNL     1       2.174   6.498  20.202  0.00  0.00    +0.000 A 
ATOM      6  C   UNL     1       3.387   6.217  19.542  0.00  0.00    +0.000 A 
ENDROOT
BRANCH   1   9
ATOM      7  C   UNL     1       5.775   4.567  15.993  0.00  0.00    +0.000 A 
ATOM      8  C   UNL     1       4.463   4.801  16.473  0.00  0.00    +0.000 A 
ATOM      9  C   UNL     1       4.559   4.838  17.830  0.00  0.00    +0.000 A 
ATOM     10  O   UNL     1       5.859   4.610  18.175  0.00  0.00    +0.000 OA
ATOM     11  N   UNL     1       6.622   4.447  17.032  0.00  0.00    +0.000 NA
BRANCH   7  17
ATOM     12  C   UNL     1       5.320   2.431  11.473  0.00  0.00    +0.000 C 
ATOM     13  C   UNL     1       6.012   3.384  12.403  0.00  0.00    +0.000 A 
ATOM     14  C   UNL     1       7.109   4.132  11.963  0.00  0.00    +0.000 A 
ATOM     15  C   UNL     1       7.743   5.029  12.823  0.00  0.00    +0.000 A 
ATOM     16  C   UNL     1       7.287   5.186  14.133  0.00  0.00    +0.000 A 
ATOM     17  C   UNL     1       6.203   4.440  14.604  0.00  0.00    +0.000 A 
ATOM     18  C   UNL     1       5.566   3.539  13.728  0.00  0.00    +0.000 A 
ENDBRANCH   7  17
ENDBRANCH   1   9
BRANCH   5  19
ATOM     19  C   UNL     1       1.733   7.951  20.480  0.00  0.00    +0.000 C 
ATOM     20  C   UNL     1       0.398   7.934  21.221  0.00  0.00    +0.000 C 
BRANCH  19  21
ATOM     21  S   UNL     1       1.567   8.910  18.858  0.00  0.00    +0.000 S 
BRANCH  21  22
ATOM     22  C   UNL     1       0.669  10.373  19.207  0.00  0.00    +0.000 A 
ATOM     23  N   UNL     1       0.985  11.291  20.072  0.00  0.00    +0.000 NA
ATOM     24  N   UNL     1      -0.075  12.190  20.169  0.00  0.00    +0.000 NA
ATOM     25  C   UNL     1      -0.992  11.797  19.333  0.00  0.00    +0.000 A 
ATOM     26  N   UNL     1      -0.570  10.683  18.671  0.00  0.00    +0.000 N 
ATOM     27  C   UNL     1      -1.337  10.041  17.658  0.00  0.00    +0.000 C 
ENDBRANCH  21  22
ENDBRANCH  19  21
ENDBRANCH   5  19
TORSDOF 5
ENDMDL
MODEL 9
REMARK VINA RESULT:      -8.1      5.544      8.299
REMARK  Name = 
REMARK  8 active torsions:
REMARK  status: ('A' for Active; 'I' for Inactive)
REMARK    1  A    between atoms: C_1  and  C_2
REMARK    2  A    between atoms: C_6  and  C_7
REMARK    3  A    between atoms: C_9  and  C_10
REMARK    4  A    between atoms: C_14  and  C_15
REMARK    5  A    between atoms: C_15  and  C_16
REMARK    6  A    between atoms: C_15  and  S_17
REMARK    7  A    between atoms: S_17  and  C_18
REMARK    8  A    between atoms: N_22  and  C_23
REMARK                            x       y       z     vdW  Elec       q    Type
REMARK                         _______ _______ _______ _____ _____    ______ ____
ROOT
ATOM      1  C   UNL     1       3.463   6.615  18.428  0.00  0.00    +0.000 A 
ATOM      2  C   UNL     1       2.990   6.035  19.610  0.00  0.00    +0.000 A 
ATOM      3  C   UNL     1       2.041   6.691  20.387  0.00  0.00    +0.000 A 
ATOM      4  C   UNL     1       1.504   7.899  19.948  0.00  0.00    +0.000 A 
ATOM      5  C   UNL     1       1.955   8.512  18.765  0.00  0.00    +0.000 A 
ATOM      6  C   UNL     1       3.041   7.918  18.090  0.00  0.00    +0.000 A 
ENDROOT
BRANCH   1   9
ATOM      7  C   UNL     1       5.232   4.818  15.756  0.00  0.00    +0.000 A 
ATOM      8  C   UNL     1       4.711   6.053  16.217  0.00  0.00    +0.000 A 
ATOM      9  C   UNL     1       4.198   5.807  17.453  0.00  0.00    +0.000 A 
ATOM     10  O   UNL     1       4.367   4.482  17.733  0.00  0.00    +0.000 OA
ATOM     11  N   UNL     1       5.018   3.863  16.679  0.00  0.00    +0.000 NA
BRANCH   7  17
ATOM     12  C   UNL     1       5.439   2.335  11.398  0.00  0.00    +0.000 C 
ATOM     13  C   UNL     1       6.018   3.327  12.364  0.00  0.00    +0.000 A 
ATOM     14  C   UNL     1       7.222   3.979  12.075  0.00  0.00    +0.000 A 
ATOM     15  C   UNL     1       7.751   4.911  12.967  0.00  0.00    +0.000 A 
ATOM     16  C   UNL     1       7.084   5.201  14.158  0.00  0.00    +0.000 A 
ATOM     17  C   UNL     1       5.888   4.553  14.480  0.00  0.00    +0.000 A 
ATOM     18  C   UNL     1       5.357   3.616  13.572  0.00  0.00    +0.000 A 
ENDBRANCH   7  17
ENDBRANCH   1   9
BRANCH   5  19
ATOM     19  C   UNL     1       1.174   9.690  18.145  0.00  0.00    +0.000 C 
ATOM     20  C   UNL     1       2.111  10.887  17.998  0.00  0.00    +0.000 C 
BRANCH  19  21
ATOM     21  S   UNL     1      -0.303  10.148  19.234  0.00  0.00    +0.000 S 
BRANCH  21  22
ATOM     22  C   UNL     1      -1.662  10.447  18.170  0.00  0.00    +0.000 A 
ATOM     23  N   UNL     1      -1.858   9.929  16.993  0.00  0.00    +0.000 NA
ATOM     24  N   UNL     1      -2.955  10.559  16.410  0.00  0.00    +0.000 NA
ATOM     25  C   UNL     1      -3.405  11.425  17.271  0.00  0.00    +0.000 A 
ATOM     26  N   UNL     1      -2.660  11.377  18.411  0.00  0.00    +0.000 N 
ATOM     27  C   UNL     1      -2.935  12.178  19.556  0.00  0.00    +0.000 C 
ENDBRANCH  21  22
ENDBRANCH  19  21
ENDBRANCH   5  19
TORSDOF 5
ENDMDL
