MODEL 1
REMARK VINA RESULT:      -7.7      0.000      0.000
REMARK  Name = 
REMARK  9 active torsions:
REMARK  status: ('A' for Active; 'I' for Inactive)
REMARK    1  A    between atoms: C_1  and  O_2
REMARK    2  A    between atoms: O_2  and  C_3
REMARK    3  A    between atoms: C_7  and  N_8
REMARK    4  A    between atoms: N_11  and  C_12
REMARK    5  A    between atoms: C_16  and  C_17
REMARK    6  A    between atoms: C_17  and  C_18
REMARK    7  A    between atoms: C_17  and  S_19
REMARK    8  A    between atoms: S_19  and  C_20
REMARK    9  A    between atoms: N_24  and  C_25
REMARK                            x       y       z     vdW  Elec       q    Type
REMARK                         _______ _______ _______ _____ _____    ______ ____
ROOT
ATOM      1  C   UNL     1       2.604   5.057  18.360  0.00  0.00    +0.000 A 
ATOM      2  C   UNL     1       2.066   3.774  18.302  0.00  0.00    +0.000 A 
ATOM      3  C   UNL     1       2.610   2.819  17.448  0.00  0.00    +0.000 A 
ATOM      4  C   UNL     1       3.718   3.128  16.660  0.00  0.00    +0.000 A 
ATOM      5  C   UNL     1       4.269   4.418  16.670  0.00  0.00    +0.000 A 
ATOM      6  C   UNL     1       3.657   5.386  17.492  0.00  0.00    +0.000 A 
ENDROOT
BRANCH   1  10
ATOM      7  N   UNL     1       1.488   6.961  21.302  0.00  0.00    +0.000 N 
ATOM      8  C   UNL     1       2.038   5.899  20.634  0.00  0.00    +0.000 C 
ATOM      9  O   UNL     1       2.359   4.916  21.298  0.00  0.00    +0.000 OA
ATOM     10  N   UNL     1       2.148   6.026  19.273  0.00  0.00    +0.000 N 
ATOM     11  H   UNL     1       1.340   6.767  22.280  0.00  0.00    +0.000 HD
ATOM     12  H   UNL     1       2.036   6.980  18.939  0.00  0.00    +0.000 HD
BRANCH   7  17
ATOM     13  C   UNL     1       1.253   9.861  19.205  0.00  0.00    +0.000 A 
ATOM     14  C   UNL     1       0.207  10.576  19.758  0.00  0.00    +0.000 A 
ATOM     15  C   UNL     1      -0.388  10.078  20.912  0.00  0.00    +0.000 A 
ATOM     16  C   UNL     1       0.072   8.877  21.452  0.00  0.00    +0.000 A 
ATOM     17  C   UNL     1       1.084   8.194  20.791  0.00  0.00    +0.000 A 
ATOM     18  N   UNL     1       1.681   8.676  19.679  0.00  0.00    +0.000 NA
BRANCH  13  20
ATOM     19  C   UNL     1       2.175  11.771  18.240  0.00  0.00    +0.000 C 
ATOM     20  O   UNL     1       1.848  10.392  18.080  0.00  0.00    +0.000 OA
ENDBRANCH  13  20
ENDBRANCH   7  17
ENDBRANCH   1  10
BRANCH   5  21
ATOM     21  C   UNL     1       5.559   4.766  15.923  0.00  0.00    +0.000 C 
ATOM     22  C   UNL     1       5.775   3.943  14.646  0.00  0.00    +0.000 C 
BRANCH  21  23
ATOM     23  S   UNL     1       6.980   4.508  17.078  0.00  0.00    +0.000 S 
BRANCH  23  24
ATOM     24  C   UNL     1       7.430   6.125  17.472  0.00  0.00    +0.000 A 
ATOM     25  N   UNL     1       7.385   7.175  16.684  0.00  0.00    +0.000 NA
ATOM     26  N   UNL     1       7.876   8.251  17.396  0.00  0.00    +0.000 NA
ATOM     27  C   UNL     1       8.195   7.824  18.596  0.00  0.00    +0.000 A 
ATOM     28  N   UNL     1       7.923   6.490  18.689  0.00  0.00    +0.000 N 
ATOM     29  C   UNL     1       8.147   5.663  19.841  0.00  0.00    +0.000 C 
ENDBRANCH  23  24
ENDBRANCH  21  23
ENDBRANCH   5  21
TORSDOF 6
ENDMDL
MODEL 2
REMARK VINA RESULT:      -7.7      3.373      7.833
REMARK  Name = 
REMARK  9 active torsions:
REMARK  status: ('A' for Active; 'I' for Inactive)
REMARK    1  A    between atoms: C_1  and  O_2
REMARK    2  A    between atoms: O_2  and  C_3
REMARK    3  A    between atoms: C_7  and  N_8
REMARK    4  A    between atoms: N_11  and  C_12
REMARK    5  A    between atoms: C_16  and  C_17
REMARK    6  A    between atoms: C_17  and  C_18
REMARK    7  A    between atoms: C_17  and  S_19
REMARK    8  A    between atoms: S_19  and  C_20
REMARK    9  A    between atoms: N_24  and  C_25
REMARK                            x       y       z     vdW  Elec       q    Type
REMARK                         _______ _______ _______ _____ _____    ______ ____
ROOT
ATOM      1  C   UNL     1       2.476   7.062  19.071  0.00  0.00    +0.000 A 
ATOM      2  C   UNL     1       2.033   6.824  20.369  0.00  0.00    +0.000 A 
ATOM      3  C   UNL     1       1.314   7.796  21.059  0.00  0.00    +0.000 A 
ATOM      4  C   UNL     1       1.006   9.011  20.447  0.00  0.00    +0.000 A 
ATOM      5  C   UNL     1       1.461   9.298  19.152  0.00  0.00    +0.000 A 
ATOM      6  C   UNL     1       2.245   8.324  18.501  0.00  0.00    +0.000 A 
ENDROOT
BRANCH   1  10
ATOM      7  N   UNL     1       3.447   4.071  17.166  0.00  0.00    +0.000 N 
ATOM      8  C   UNL     1       2.589   4.910  17.825  0.00  0.00    +0.000 C 
ATOM      9  O   UNL     1       1.424   4.539  17.960  0.00  0.00    +0.000 OA
ATOM     10  N   UNL     1       3.125   6.078  18.303  0.00  0.00    +0.000 N 
ATOM     11  H   UNL     1       3.020   3.188  16.932  0.00  0.00    +0.000 HD
ATOM     12  H   UNL     1       4.034   6.304  17.908  0.00  0.00    +0.000 HD
BRANCH   7  17
ATOM     13  C   UNL     1       6.987   4.536  17.504  0.00  0.00    +0.000 A 
ATOM     14  C   UNL     1       7.434   4.583  16.197  0.00  0.00    +0.000 A 
ATOM     15  C   UNL     1       6.488   4.515  15.179  0.00  0.00    +0.000 A 
ATOM     16  C   UNL     1       5.140   4.380  15.510  0.00  0.00    +0.000 A 
ATOM     17  C   UNL     1       4.791   4.275  16.850  0.00  0.00    +0.000 A 
ATOM     18  N   UNL     1       5.698   4.357  17.847  0.00  0.00    +0.000 NA
BRANCH  13  20
ATOM     19  C   UNL     1       7.702   5.745  19.363  0.00  0.00    +0.000 C 
ATOM     20  O   UNL     1       7.941   4.639  18.495  0.00  0.00    +0.000 OA
ENDBRANCH  13  20
ENDBRANCH   7  17
ENDBRANCH   1  10
BRANCH   5  21
ATOM     21  C   UNL     1       1.040  10.561  18.395  0.00  0.00    +0.000 C 
ATOM     22  C   UNL     1       2.202  11.515  18.090  0.00  0.00    +0.000 C 
BRANCH  21  23
ATOM     23  S   UNL     1      -0.238  11.437  19.403  0.00  0.00    +0.000 S 
BRANCH  23  24
ATOM     24  C   UNL     1       0.693  12.644  20.209  0.00  0.00    +0.000 A 
ATOM     25  N   UNL     1       1.504  12.470  21.227  0.00  0.00    +0.000 NA
ATOM     26  N   UNL     1       2.006  13.707  21.576  0.00  0.00    +0.000 NA
ATOM     27  C   UNL     1       1.491  14.593  20.754  0.00  0.00    +0.000 A 
ATOM     28  N   UNL     1       0.663  13.963  19.870  0.00  0.00    +0.000 N 
ATOM     29  C   UNL     1      -0.091  14.595  18.825  0.00  0.00    +0.000 C 
ENDBRANCH  23  24
ENDBRANCH  21  23
ENDBRANCH   5  21
TORSDOF 6
ENDMDL
MODEL 3
REMARK VINA RESULT:      -7.7      4.288      8.713
REMARK  Name = 
REMARK  9 active torsions:
REMARK  status: ('A' for Active; 'I' for Inactive)
REMARK    1  A    between atoms: C_1  and  O_2
REMARK    2  A    between atoms: O_2  and  C_3
REMARK    3  A    between atoms: C_7  and  N_8
REMARK    4  A    between atoms: N_11  and  C_12
REMARK    5  A    between atoms: C_16  and  C_17
REMARK    6  A    between atoms: C_17  and  C_18
REMARK    7  A    between atoms: C_17  and  S_19
REMARK    8  A    between atoms: S_19  and  C_20
REMARK    9  A    between atoms: N_24  and  C_25
REMARK                            x       y       z     vdW  Elec       q    Type
REMARK                         _______ _______ _______ _____ _____    ______ ____
ROOT
ATOM      1  C   UNL     1       5.861   4.783  16.280  0.00  0.00    +0.000 A 
ATOM      2  C   UNL     1       6.764   4.575  17.319  0.00  0.00    +0.000 A 
ATOM      3  C   UNL     1       6.392   4.824  18.638  0.00  0.00    +0.000 A 
ATOM      4  C   UNL     1       5.101   5.260  18.935  0.00  0.00    +0.000 A 
ATOM      5  C   UNL     1       4.174   5.507  17.913  0.00  0.00    +0.000 A 
ATOM      6  C   UNL     1       4.597   5.314  16.582  0.00  0.00    +0.000 A 
ENDROOT
BRANCH   1  10
ATOM      7  N   UNL     1       7.222   4.542  12.873  0.00  0.00    +0.000 N 
ATOM      8  C   UNL     1       7.185   4.953  14.179  0.00  0.00    +0.000 C 
ATOM      9  O   UNL     1       8.048   5.747  14.548  0.00  0.00    +0.000 OA
ATOM     10  N   UNL     1       6.161   4.459  14.944  0.00  0.00    +0.000 N 
ATOM     11  H   UNL     1       7.933   5.018  12.338  0.00  0.00    +0.000 HD
ATOM     12  H   UNL     1       5.688   3.659  14.531  0.00  0.00    +0.000 HD
BRANCH   7  17
ATOM     13  C   UNL     1       6.072   1.579  11.213  0.00  0.00    +0.000 A 
ATOM     14  C   UNL     1       4.720   1.809  11.039  0.00  0.00    +0.000 A 
ATOM     15  C   UNL     1       4.207   3.036  11.448  0.00  0.00    +0.000 A 
ATOM     16  C   UNL     1       5.061   3.971  12.032  0.00  0.00    +0.000 A 
ATOM     17  C   UNL     1       6.393   3.626  12.226  0.00  0.00    +0.000 A 
ATOM     18  N   UNL     1       6.906   2.445  11.818  0.00  0.00    +0.000 NA
BRANCH  13  20
ATOM     19  C   UNL     1       5.906  -0.739  11.384  0.00  0.00    +0.000 C 
ATOM     20  O   UNL     1       6.562   0.369  10.769  0.00  0.00    +0.000 OA
ENDBRANCH  13  20
ENDBRANCH   7  17
ENDBRANCH   1  10
BRANCH   5  21
ATOM     21  C   UNL     1       2.711   5.860  18.198  0.00  0.00    +0.000 C 
ATOM     22  C   UNL     1       2.498   6.572  19.541  0.00  0.00    +0.000 C 
BRANCH  21  23
ATOM     23  S   UNL     1       1.725   4.297  18.158  0.00  0.00    +0.000 S 
BRANCH  23  24
ATOM     24  C   UNL     1       1.982   3.659  19.739  0.00  0.00    +0.000 A 
ATOM     25  N   UNL     1       1.397   4.039  20.852  0.00  0.00    +0.000 NA
ATOM     26  N   UNL     1       1.932   3.290  21.880  0.00  0.00    +0.000 NA
ATOM     27  C   UNL     1       2.819   2.472  21.360  0.00  0.00    +0.000 A 
ATOM     28  N   UNL     1       2.876   2.667  20.010  0.00  0.00    +0.000 N 
ATOM     29  C   UNL     1       3.734   1.969  19.094  0.00  0.00    +0.000 C 
ENDBRANCH  23  24
ENDBRANCH  21  23
ENDBRANCH   5  21
TORSDOF 6
ENDMDL
MODEL 4
REMARK VINA RESULT:      -7.6      4.355      8.920
REMARK  Name = 
REMARK  9 active torsions:
REMARK  status: ('A' for Active; 'I' for Inactive)
REMARK    1  A    between atoms: C_1  and  O_2
REMARK    2  A    between atoms: O_2  and  C_3
REMARK    3  A    between atoms: C_7  and  N_8
REMARK    4  A    between atoms: N_11  and  C_12
REMARK    5  A    between atoms: C_16  and  C_17
REMARK    6  A    between atoms: C_17  and  C_18
REMARK    7  A    between atoms: C_17  and  S_19
REMARK    8  A    between atoms: S_19  and  C_20
REMARK    9  A    between atoms: N_24  and  C_25
REMARK                            x       y       z     vdW  Elec       q    Type
REMARK                         _______ _______ _______ _____ _____    ______ ____
ROOT
ATOM      1  C   UNL     1       6.279   4.958  15.933  0.00  0.00    +0.000 A 
ATOM      2  C   UNL     1       7.212   4.736  16.942  0.00  0.00    +0.000 A 
ATOM      3  C   UNL     1       6.922   5.082  18.259  0.00  0.00    +0.000 A 
ATOM      4  C   UNL     1       5.682   5.629  18.587  0.00  0.00    +0.000 A 
ATOM      5  C   UNL     1       4.728   5.892  17.594  0.00  0.00    +0.000 A 
ATOM      6  C   UNL     1       5.072   5.597  16.259  0.00  0.00    +0.000 A 
ENDROOT
BRANCH   1  10
ATOM      7  N   UNL     1       7.409   4.484  12.466  0.00  0.00    +0.000 N 
ATOM      8  C   UNL     1       7.456   4.985  13.740  0.00  0.00    +0.000 C 
ATOM      9  O   UNL     1       8.334   5.807  13.993  0.00  0.00    +0.000 OA
ATOM     10  N   UNL     1       6.490   4.542  14.606  0.00  0.00    +0.000 N 
ATOM     11  H   UNL     1       8.077   4.925  11.852  0.00  0.00    +0.000 HD
ATOM     12  H   UNL     1       5.998   3.713  14.282  0.00  0.00    +0.000 HD
BRANCH   7  17
ATOM     13  C   UNL     1       6.168   1.395  11.132  0.00  0.00    +0.000 A 
ATOM     14  C   UNL     1       4.811   1.621  11.001  0.00  0.00    +0.000 A 
ATOM     15  C   UNL     1       4.324   2.884  11.320  0.00  0.00    +0.000 A 
ATOM     16  C   UNL     1       5.209   3.860  11.779  0.00  0.00    +0.000 A 
ATOM     17  C   UNL     1       6.546   3.522  11.942  0.00  0.00    +0.000 A 
ATOM     18  N   UNL     1       7.034   2.304  11.619  0.00  0.00    +0.000 NA
BRANCH  13  20
ATOM     19  C   UNL     1       5.855  -0.903  11.353  0.00  0.00    +0.000 C 
ATOM     20  O   UNL     1       6.631   0.146  10.778  0.00  0.00    +0.000 OA
ENDBRANCH  13  20
ENDBRANCH   7  17
ENDBRANCH   1  10
BRANCH   5  21
ATOM     21  C   UNL     1       3.311   6.369  17.922  0.00  0.00    +0.000 C 
ATOM     22  C   UNL     1       3.138   7.892  17.847  0.00  0.00    +0.000 C 
BRANCH  21  23
ATOM     23  S   UNL     1       2.884   5.777  19.621  0.00  0.00    +0.000 S 
BRANCH  23  24
ATOM     24  C   UNL     1       2.042   4.307  19.297  0.00  0.00    +0.000 A 
ATOM     25  N   UNL     1       1.552   3.912  18.144  0.00  0.00    +0.000 NA
ATOM     26  N   UNL     1       0.927   2.699  18.351  0.00  0.00    +0.000 NA
ATOM     27  C   UNL     1       1.064   2.390  19.621  0.00  0.00    +0.000 A 
ATOM     28  N   UNL     1       1.769   3.374  20.252  0.00  0.00    +0.000 N 
ATOM     29  C   UNL     1       2.113   3.403  21.645  0.00  0.00    +0.000 C 
ENDBRANCH  23  24
ENDBRANCH  21  23
ENDBRANCH   5  21
TORSDOF 6
ENDMDL
MODEL 5
REMARK VINA RESULT:      -7.5      4.196      8.622
REMARK  Name = 
REMARK  9 active torsions:
REMARK  status: ('A' for Active; 'I' for Inactive)
REMARK    1  A    between atoms: C_1  and  O_2
REMARK    2  A    between atoms: O_2  and  C_3
REMARK    3  A    between atoms: C_7  and  N_8
REMARK    4  A    between atoms: N_11  and  C_12
REMARK    5  A    between atoms: C_16  and  C_17
REMARK    6  A    between atoms: C_17  and  C_18
REMARK    7  A    between atoms: C_17  and  S_19
REMARK    8  A    between atoms: S_19  and  C_20
REMARK    9  A    between atoms: N_24  and  C_25
REMARK                            x       y       z     vdW  Elec       q    Type
REMARK                         _______ _______ _______ _____ _____    ______ ____
ROOT
ATOM      1  C   UNL     1       6.424   4.952  15.864  0.00  0.00    +0.000 A 
ATOM      2  C   UNL     1       7.403   4.907  16.852  0.00  0.00    +0.000 A 
ATOM      3  C   UNL     1       7.098   5.257  18.165  0.00  0.00    +0.000 A 
ATOM      4  C   UNL     1       5.799   5.630  18.510  0.00  0.00    +0.000 A 
ATOM      5  C   UNL     1       4.793   5.714  17.537  0.00  0.00    +0.000 A 
ATOM      6  C   UNL     1       5.145   5.421  16.204  0.00  0.00    +0.000 A 
ENDROOT
BRANCH   1  10
ATOM      7  N   UNL     1       7.580   4.475  12.406  0.00  0.00    +0.000 N 
ATOM      8  C   UNL     1       7.594   5.008  13.668  0.00  0.00    +0.000 C 
ATOM      9  O   UNL     1       8.415   5.893  13.901  0.00  0.00    +0.000 OA
ATOM     10  N   UNL     1       6.661   4.520  14.546  0.00  0.00    +0.000 N 
ATOM     11  H   UNL     1       8.216   4.946  11.781  0.00  0.00    +0.000 HD
ATOM     12  H   UNL     1       6.226   3.653  14.243  0.00  0.00    +0.000 HD
BRANCH   7  17
ATOM     13  C   UNL     1       4.727   2.645  11.235  0.00  0.00    +0.000 A 
ATOM     14  C   UNL     1       5.260   1.433  10.839  0.00  0.00    +0.000 A 
ATOM     15  C   UNL     1       6.620   1.221  11.036  0.00  0.00    +0.000 A 
ATOM     16  C   UNL     1       7.393   2.235  11.600  0.00  0.00    +0.000 A 
ATOM     17  C   UNL     1       6.783   3.445  11.907  0.00  0.00    +0.000 A 
ATOM     18  N   UNL     1       5.460   3.657  11.735  0.00  0.00    +0.000 NA
BRANCH  13  20
ATOM     19  C   UNL     1       3.074   3.795  10.063  0.00  0.00    +0.000 C 
ATOM     20  O   UNL     1       3.370   2.819  11.059  0.00  0.00    +0.000 OA
ENDBRANCH  13  20
ENDBRANCH   7  17
ENDBRANCH   1  10
BRANCH   5  21
ATOM     21  C   UNL     1       3.330   5.991  17.891  0.00  0.00    +0.000 C 
ATOM     22  C   UNL     1       3.132   6.561  19.302  0.00  0.00    +0.000 C 
BRANCH  21  23
ATOM     23  S   UNL     1       2.387   4.410  17.719  0.00  0.00    +0.000 S 
BRANCH  23  24
ATOM     24  C   UNL     1       2.938   3.505  19.080  0.00  0.00    +0.000 A 
ATOM     25  N   UNL     1       4.064   2.836  19.183  0.00  0.00    +0.000 NA
ATOM     26  N   UNL     1       4.076   2.230  20.424  0.00  0.00    +0.000 NA
ATOM     27  C   UNL     1       2.961   2.556  21.038  0.00  0.00    +0.000 A 
ATOM     28  N   UNL     1       2.218   3.366  20.228  0.00  0.00    +0.000 N 
ATOM     29  C   UNL     1       0.932   3.920  20.543  0.00  0.00    +0.000 C 
ENDBRANCH  23  24
ENDBRANCH  21  23
ENDBRANCH   5  21
TORSDOF 6
ENDMDL
MODEL 6
REMARK VINA RESULT:      -7.5      3.403      8.142
REMARK  Name = 
REMARK  9 active torsions:
REMARK  status: ('A' for Active; 'I' for Inactive)
REMARK    1  A    between atoms: C_1  and  O_2
REMARK    2  A    between atoms: O_2  and  C_3
REMARK    3  A    between atoms: C_7  and  N_8
REMARK    4  A    between atoms: N_11  and  C_12
REMARK    5  A    between atoms: C_16  and  C_17
REMARK    6  A    between atoms: C_17  and  C_18
REMARK    7  A    between atoms: C_17  and  S_19
REMARK    8  A    between atoms: S_19  and  C_20
REMARK    9  A    between atoms: N_24  and  C_25
REMARK                            x       y       z     vdW  Elec       q    Type
REMARK                         _______ _______ _______ _____ _____    ______ ____
ROOT
ATOM      1  C   UNL     1       2.106   7.295  19.715  0.00  0.00    +0.000 A 
ATOM      2  C   UNL     1       1.518   7.283  20.977  0.00  0.00    +0.000 A 
ATOM      3  C   UNL     1       0.806   8.388  21.434  0.00  0.00    +0.000 A 
ATOM      4  C   UNL     1       0.650   9.510  20.622  0.00  0.00    +0.000 A 
ATOM      5  C   UNL     1       1.251   9.571  19.357  0.00  0.00    +0.000 A 
ATOM      6  C   UNL     1       2.025   8.466  18.945  0.00  0.00    +0.000 A 
ENDROOT
BRANCH   1  10
ATOM      7  N   UNL     1       3.214   3.931  18.728  0.00  0.00    +0.000 N 
ATOM      8  C   UNL     1       2.368   4.859  19.274  0.00  0.00    +0.000 C 
ATOM      9  O   UNL     1       1.353   4.444  19.830  0.00  0.00    +0.000 OA
ATOM     10  N   UNL     1       2.756   6.170  19.174  0.00  0.00    +0.000 N 
ATOM     11  H   UNL     1       2.927   2.984  18.924  0.00  0.00    +0.000 HD
ATOM     12  H   UNL     1       3.499   6.328  18.499  0.00  0.00    +0.000 HD
BRANCH   7  17
ATOM     13  C   UNL     1       6.670   4.517  17.971  0.00  0.00    +0.000 A 
ATOM     14  C   UNL     1       6.712   4.465  16.591  0.00  0.00    +0.000 A 
ATOM     15  C   UNL     1       5.515   4.287  15.905  0.00  0.00    +0.000 A 
ATOM     16  C   UNL     1       4.331   4.144  16.628  0.00  0.00    +0.000 A 
ATOM     17  C   UNL     1       4.394   4.143  18.016  0.00  0.00    +0.000 A 
ATOM     18  N   UNL     1       5.548   4.332  18.692  0.00  0.00    +0.000 NA
BRANCH  13  20
ATOM     19  C   UNL     1       7.980   6.058  19.129  0.00  0.00    +0.000 C 
ATOM     20  O   UNL     1       7.865   4.728  18.626  0.00  0.00    +0.000 OA
ENDBRANCH  13  20
ENDBRANCH   7  17
ENDBRANCH   1  10
BRANCH   5  21
ATOM     21  C   UNL     1       1.001  10.724  18.382  0.00  0.00    +0.000 C 
ATOM     22  C   UNL     1       2.198  11.671  18.223  0.00  0.00    +0.000 C 
BRANCH  21  23
ATOM     23  S   UNL     1      -0.469  11.674  18.980  0.00  0.00    +0.000 S 
BRANCH  23  24
ATOM     24  C   UNL     1      -1.768  10.899  18.153  0.00  0.00    +0.000 A 
ATOM     25  N   UNL     1      -1.678   9.965  17.235  0.00  0.00    +0.000 NA
ATOM     26  N   UNL     1      -2.960   9.665  16.818  0.00  0.00    +0.000 NA
ATOM     27  C   UNL     1      -3.789  10.420  17.502  0.00  0.00    +0.000 A 
ATOM     28  N   UNL     1      -3.079  11.208  18.362  0.00  0.00    +0.000 N 
ATOM     29  C   UNL     1      -3.630  12.175  19.269  0.00  0.00    +0.000 C 
ENDBRANCH  23  24
ENDBRANCH  21  23
ENDBRANCH   5  21
TORSDOF 6
ENDMDL
MODEL 7
REMARK VINA RESULT:      -7.5      3.759      8.727
REMARK  Name = 
REMARK  9 active torsions:
REMARK  status: ('A' for Active; 'I' for Inactive)
REMARK    1  A    between atoms: C_1  and  O_2
REMARK    2  A    between atoms: O_2  and  C_3
REMARK    3  A    between atoms: C_7  and  N_8
REMARK    4  A    between atoms: N_11  and  C_12
REMARK    5  A    between atoms: C_16  and  C_17
REMARK    6  A    between atoms: C_17  and  C_18
REMARK    7  A    between atoms: C_17  and  S_19
REMARK    8  A    between atoms: S_19  and  C_20
REMARK    9  A    between atoms: N_24  and  C_25
REMARK                            x       y       z     vdW  Elec       q    Type
REMARK                         _______ _______ _______ _____ _____    ______ ____
ROOT
ATOM      1  C   UNL     1       1.668   8.061  19.889  0.00  0.00    +0.000 A 
ATOM      2  C   UNL     1       1.421   8.082  21.259  0.00  0.00    +0.000 A 
ATOM      3  C   UNL     1       0.751   9.157  21.839  0.00  0.00    +0.000 A 
ATOM      4  C   UNL     1       0.296  10.211  21.049  0.00  0.00    +0.000 A 
ATOM      5  C   UNL     1       0.550  10.238  19.671  0.00  0.00    +0.000 A 
ATOM      6  C   UNL     1       1.290   9.173  19.119  0.00  0.00    +0.000 A 
ENDROOT
BRANCH   1  10
ATOM      7  N   UNL     1       3.508   5.766  17.684  0.00  0.00    +0.000 N 
ATOM      8  C   UNL     1       3.133   6.981  18.191  0.00  0.00    +0.000 C 
ATOM      9  O   UNL     1       3.583   7.987  17.646  0.00  0.00    +0.000 OA
ATOM     10  N   UNL     1       2.257   6.958  19.246  0.00  0.00    +0.000 N 
ATOM     11  H   UNL     1       4.067   5.851  16.849  0.00  0.00    +0.000 HD
ATOM     12  H   UNL     1       2.174   6.047  19.690  0.00  0.00    +0.000 HD
BRANCH   7  17
ATOM     13  C   UNL     1       2.873   2.999  19.875  0.00  0.00    +0.000 A 
ATOM     14  C   UNL     1       2.423   2.008  19.024  0.00  0.00    +0.000 A 
ATOM     15  C   UNL     1       2.398   2.279  17.660  0.00  0.00    +0.000 A 
ATOM     16  C   UNL     1       2.800   3.535  17.207  0.00  0.00    +0.000 A 
ATOM     17  C   UNL     1       3.174   4.491  18.143  0.00  0.00    +0.000 A 
ATOM     18  N   UNL     1       3.219   4.234  19.468  0.00  0.00    +0.000 NA
BRANCH  13  20
ATOM     19  C   UNL     1       1.624   2.652  21.812  0.00  0.00    +0.000 C 
ATOM     20  O   UNL     1       2.921   2.694  21.220  0.00  0.00    +0.000 OA
ENDBRANCH  13  20
ENDBRANCH   7  17
ENDBRANCH   1  10
BRANCH   5  21
ATOM     21  C   UNL     1      -0.041  11.307  18.747  0.00  0.00    +0.000 C 
ATOM     22  C   UNL     1       0.796  12.591  18.672  0.00  0.00    +0.000 C 
BRANCH  21  23
ATOM     23  S   UNL     1      -1.744  11.707  19.346  0.00  0.00    +0.000 S 
BRANCH  23  24
ATOM     24  C   UNL     1      -2.699  11.452  17.933  0.00  0.00    +0.000 A 
ATOM     25  N   UNL     1      -2.273  11.104  16.740  0.00  0.00    +0.000 NA
ATOM     26  N   UNL     1      -3.370  11.054  15.904  0.00  0.00    +0.000 NA
ATOM     27  C   UNL     1      -4.430  11.364  16.616  0.00  0.00    +0.000 A 
ATOM     28  N   UNL     1      -4.052  11.615  17.904  0.00  0.00    +0.000 N 
ATOM     29  C   UNL     1      -4.924  11.997  18.978  0.00  0.00    +0.000 C 
ENDBRANCH  23  24
ENDBRANCH  21  23
ENDBRANCH   5  21
TORSDOF 6
ENDMDL
MODEL 8
REMARK VINA RESULT:      -7.4      3.689      8.239
REMARK  Name = 
REMARK  9 active torsions:
REMARK  status: ('A' for Active; 'I' for Inactive)
REMARK    1  A    between atoms: C_1  and  O_2
REMARK    2  A    between atoms: O_2  and  C_3
REMARK    3  A    between atoms: C_7  and  N_8
REMARK    4  A    between atoms: N_11  and  C_12
REMARK    5  A    between atoms: C_16  and  C_17
REMARK    6  A    between atoms: C_17  and  C_18
REMARK    7  A    between atoms: C_17  and  S_19
REMARK    8  A    between atoms: S_19  and  C_20
REMARK    9  A    between atoms: N_24  and  C_25
REMARK                            x       y       z     vdW  Elec       q    Type
REMARK                         _______ _______ _______ _____ _____    ______ ____
ROOT
ATOM      1  C   UNL     1       1.947   7.805  19.867  0.00  0.00    +0.000 A 
ATOM      2  C   UNL     1       1.602   7.799  21.215  0.00  0.00    +0.000 A 
ATOM      3  C   UNL     1       0.806   8.811  21.744  0.00  0.00    +0.000 A 
ATOM      4  C   UNL     1       0.322   9.829  20.923  0.00  0.00    +0.000 A 
ATOM      5  C   UNL     1       0.672   9.884  19.567  0.00  0.00    +0.000 A 
ATOM      6  C   UNL     1       1.536   8.886  19.070  0.00  0.00    +0.000 A 
ENDROOT
BRANCH   1  10
ATOM      7  N   UNL     1       3.565   4.628  18.967  0.00  0.00    +0.000 N 
ATOM      8  C   UNL     1       2.721   5.447  19.668  0.00  0.00    +0.000 C 
ATOM      9  O   UNL     1       2.103   4.954  20.609  0.00  0.00    +0.000 OA
ATOM     10  N   UNL     1       2.671   6.758  19.268  0.00  0.00    +0.000 N 
ATOM     11  H   UNL     1       3.635   3.707  19.373  0.00  0.00    +0.000 HD
ATOM     12  H   UNL     1       3.077   6.922  18.351  0.00  0.00    +0.000 HD
BRANCH   7  17
ATOM     13  C   UNL     1       5.862   6.285  16.767  0.00  0.00    +0.000 A 
ATOM     14  C   UNL     1       5.915   5.450  15.666  0.00  0.00    +0.000 A 
ATOM     15  C   UNL     1       5.095   4.327  15.657  0.00  0.00    +0.000 A 
ATOM     16  C   UNL     1       4.276   4.072  16.756  0.00  0.00    +0.000 A 
ATOM     17  C   UNL     1       4.338   4.931  17.846  0.00  0.00    +0.000 A 
ATOM     18  N   UNL     1       5.117   6.034  17.860  0.00  0.00    +0.000 NA
BRANCH  13  20
ATOM     19  C   UNL     1       7.629   7.414  17.782  0.00  0.00    +0.000 C 
ATOM     20  O   UNL     1       6.658   7.410  16.737  0.00  0.00    +0.000 OA
ENDBRANCH  13  20
ENDBRANCH   7  17
ENDBRANCH   1  10
BRANCH   5  21
ATOM     21  C   UNL     1       0.063  10.905  18.602  0.00  0.00    +0.000 C 
ATOM     22  C   UNL     1       0.719  12.291  18.673  0.00  0.00    +0.000 C 
BRANCH  21  23
ATOM     23  S   UNL     1      -1.741  11.049  18.981  0.00  0.00    +0.000 S 
BRANCH  23  24
ATOM     24  C   UNL     1      -2.466  10.699  17.457  0.00  0.00    +0.000 A 
ATOM     25  N   UNL     1      -1.926  10.046  16.454  0.00  0.00    +0.000 NA
ATOM     26  N   UNL     1      -2.843  10.035  15.422  0.00  0.00    +0.000 NA
ATOM     27  C   UNL     1      -3.914  10.675  15.832  0.00  0.00    +0.000 A 
ATOM     28  N   UNL     1      -3.722  11.103  17.114  0.00  0.00    +0.000 N 
ATOM     29  C   UNL     1      -4.661  11.849  17.903  0.00  0.00    +0.000 C 
ENDBRANCH  23  24
ENDBRANCH  21  23
ENDBRANCH   5  21
TORSDOF 6
ENDMDL
MODEL 9
REMARK VINA RESULT:      -7.4      3.469      7.995
REMARK  Name = 
REMARK  9 active torsions:
REMARK  status: ('A' for Active; 'I' for Inactive)
REMARK    1  A    between atoms: C_1  and  O_2
REMARK    2  A    between atoms: O_2  and  C_3
REMARK    3  A    between atoms: C_7  and  N_8
REMARK    4  A    between atoms: N_11  and  C_12
REMARK    5  A    between atoms: C_16  and  C_17
REMARK    6  A    between atoms: C_17  and  C_18
REMARK    7  A    between atoms: C_17  and  S_19
REMARK    8  A    between atoms: S_19  and  C_20
REMARK    9  A    between atoms: N_24  and  C_25
REMARK                            x       y       z     vdW  Elec       q    Type
REMARK                         _______ _______ _______ _____ _____    ______ ____
ROOT
ATOM      1  C   UNL     1       2.476   6.982  19.031  0.00  0.00    +0.000 A 
ATOM      2  C   UNL     1       2.060   6.756  20.340  0.00  0.00    +0.000 A 
ATOM      3  C   UNL     1       1.335   7.726  21.027  0.00  0.00    +0.000 A 
ATOM      4  C   UNL     1       0.995   8.925  20.403  0.00  0.00    +0.000 A 
ATOM      5  C   UNL     1       1.421   9.200  19.095  0.00  0.00    +0.000 A 
ATOM      6  C   UNL     1       2.212   8.230  18.445  0.00  0.00    +0.000 A 
ENDROOT
BRANCH   1  10
ATOM      7  N   UNL     1       3.461   3.984  17.143  0.00  0.00    +0.000 N 
ATOM      8  C   UNL     1       2.600   4.821  17.801  0.00  0.00    +0.000 C 
ATOM      9  O   UNL     1       1.440   4.440  17.946  0.00  0.00    +0.000 OA
ATOM     10  N   UNL     1       3.128   5.997  18.266  0.00  0.00    +0.000 N 
ATOM     11  H   UNL     1       3.041   3.095  16.919  0.00  0.00    +0.000 HD
ATOM     12  H   UNL     1       4.033   6.228  17.864  0.00  0.00    +0.000 HD
BRANCH   7  17
ATOM     13  C   UNL     1       6.988   4.554  17.457  0.00  0.00    +0.000 A 
ATOM     14  C   UNL     1       7.438   4.522  16.151  0.00  0.00    +0.000 A 
ATOM     15  C   UNL     1       6.499   4.361  15.138  0.00  0.00    +0.000 A 
ATOM     16  C   UNL     1       5.153   4.218  15.474  0.00  0.00    +0.000 A 
ATOM     17  C   UNL     1       4.801   4.197  16.817  0.00  0.00    +0.000 A 
ATOM     18  N   UNL     1       5.702   4.369  17.809  0.00  0.00    +0.000 NA
BRANCH  13  20
ATOM     19  C   UNL     1       7.511   5.691  19.422  0.00  0.00    +0.000 C 
ATOM     20  O   UNL     1       7.935   4.748  18.440  0.00  0.00    +0.000 OA
ENDBRANCH  13  20
ENDBRANCH   7  17
ENDBRANCH   1  10
BRANCH   5  21
ATOM     21  C   UNL     1       0.964  10.443  18.326  0.00  0.00    +0.000 C 
ATOM     22  C   UNL     1       1.935  11.627  18.432  0.00  0.00    +0.000 C 
BRANCH  21  23
ATOM     23  S   UNL     1      -0.696  10.939  18.971  0.00  0.00    +0.000 S 
BRANCH  23  24
ATOM     24  C   UNL     1      -0.512  12.640  19.188  0.00  0.00    +0.000 A 
ATOM     25  N   UNL     1      -0.546  13.566  18.258  0.00  0.00    +0.000 NA
ATOM     26  N   UNL     1      -0.313  14.781  18.870  0.00  0.00    +0.000 NA
ATOM     27  C   UNL     1      -0.154  14.556  20.155  0.00  0.00    +0.000 A 
ATOM     28  N   UNL     1      -0.280  13.219  20.400  0.00  0.00    +0.000 N 
ATOM     29  C   UNL     1      -0.160  12.583  21.680  0.00  0.00    +0.000 C 
ENDBRANCH  23  24
ENDBRANCH  21  23
ENDBRANCH   5  21
TORSDOF 6
ENDMDL
