MODEL 1
REMARK VINA RESULT:      -9.9      0.000      0.000
REMARK  Name = 
REMARK  9 active torsions:
REMARK  status: ('A' for Active; 'I' for Inactive)
REMARK    1  A    between atoms: C_1  and  N_2
REMARK    2  A    between atoms: C_6  and  C_7
REMARK    3  A    between atoms: C_7  and  C_8
REMARK    4  A    between atoms: C_8  and  C_9
REMARK    5  A    between atoms: C_13  and  N_14
REMARK    6  A    between atoms: C_19  and  C_20
REMARK    7  A    between atoms: C_20  and  N_21
REMARK    8  A    between atoms: C_25  and  C_26
REMARK    9  A    between atoms: C_31  and  C_32
REMARK                            x       y       z     vdW  Elec       q    Type
REMARK                         _______ _______ _______ _____ _____    ______ ____
ROOT
ATOM      1  N   UNL     1       1.347   8.293  20.294  0.00  0.00    +0.000 N 
ATOM      2  C   UNL     1       1.464   6.957  20.836  0.00  0.00    +0.000 C 
ATOM      3  C   UNL     1       2.145   6.196  19.765  0.00  0.00    +0.000 A 
ATOM      4  C   UNL     1       2.576   7.056  18.755  0.00  0.00    +0.000 A 
ATOM      5  C   UNL     1       3.401   6.593  17.729  0.00  0.00    +0.000 A 
ATOM      6  C   UNL     1       3.741   5.223  17.722  0.00  0.00    +0.000 A 
ATOM      7  C   UNL     1       3.183   4.365  18.712  0.00  0.00    +0.000 A 
ATOM      8  C   UNL     1       2.392   4.832  19.751  0.00  0.00    +0.000 A 
ATOM      9  C   UNL     1       2.000   8.411  19.053  0.00  0.00    +0.000 C 
ATOM     10  O   UNL     1       2.101   9.364  18.306  0.00  0.00    +0.000 OA
ENDROOT
BRANCH   1  15
ATOM     11  C   UNL     1      -0.997  11.189  20.697  0.00  0.00    +0.000 A 
ATOM     12  C   UNL     1      -1.026  11.265  22.098  0.00  0.00    +0.000 A 
ATOM     13  C   UNL     1      -0.380  10.312  22.903  0.00  0.00    +0.000 A 
ATOM     14  C   UNL     1       0.355   9.264  22.333  0.00  0.00    +0.000 A 
ATOM     15  C   UNL     1       0.465   9.184  20.953  0.00  0.00    +0.000 A 
ATOM     16  C   UNL     1      -0.247  10.123  20.174  0.00  0.00    +0.000 A 
BRANCH  11  17
ATOM     17  C   UNL     1      -1.746  12.229  19.714  0.00  0.00    +0.000 C 
ATOM     18  C   UNL     1      -3.271  12.397  19.967  0.00  0.00    +0.000 C 
ATOM     19  O   UNL     1      -3.614  11.919  18.654  0.00  0.00    +0.000 OA
ATOM     20  C   UNL     1      -2.226  11.711  18.322  0.00  0.00    +0.000 C 
BRANCH  17  21
ATOM     21  C   UNL     1      -0.993  13.578  19.645  0.00  0.00    +0.000 C 
BRANCH  21  27
ATOM     22  C   UNL     1       1.317  14.451  21.647  0.00  0.00    +0.000 C 
ATOM     23  N   UNL     1       1.465  13.875  20.338  0.00  0.00    +0.000 N 
ATOM     24  C   UNL     1       2.657  13.667  19.713  0.00  0.00    +0.000 A 
ATOM     25  N   UNL     1       2.445  13.137  18.534  0.00  0.00    +0.000 NA
ATOM     26  N   UNL     1       1.089  13.000  18.378  0.00  0.00    +0.000 NA
ATOM     27  C   UNL     1       0.490  13.457  19.462  0.00  0.00    +0.000 A 
ENDBRANCH  21  27
ENDBRANCH  17  21
ENDBRANCH  11  17
ENDBRANCH   1  15
BRANCH   8  28
ATOM     28  C   UNL     1       1.855   3.893  20.796  0.00  0.00    +0.000 C 
ATOM     29  F   UNL     1       2.300   4.158  22.051  0.00  0.00    +0.000 F 
ATOM     30  F   UNL     1       0.497   3.936  20.865  0.00  0.00    +0.000 F 
ATOM     31  F   UNL     1       2.184   2.596  20.551  0.00  0.00    +0.000 F 
ENDBRANCH   8  28
BRANCH   6  32
ATOM     32  C   UNL     1       4.841   4.606  16.870  0.00  0.00    +0.000 C 
BRANCH  32  33
ATOM     33  N   UNL     1       6.154   4.356  17.472  0.00  0.00    +0.000 NA
ATOM     34  C   UNL     1       6.709   5.543  18.138  0.00  0.00    +0.000 C 
ATOM     35  C   UNL     1       7.194   6.686  17.224  0.00  0.00    +0.000 C 
ATOM     36  O   UNL     1       7.701   6.378  15.927  0.00  0.00    +0.000 OA
ATOM     37  C   UNL     1       7.556   5.052  15.404  0.00  0.00    +0.000 C 
ATOM     38  C   UNL     1       7.140   3.976  16.432  0.00  0.00    +0.000 C 
BRANCH  37  39
ATOM     39  C   UNL     1       6.735   5.008  14.099  0.00  0.00    +0.000 C 
ATOM     40  F   UNL     1       7.503   5.091  12.989  0.00  0.00    +0.000 F 
ATOM     41  F   UNL     1       6.054   3.836  14.002  0.00  0.00    +0.000 F 
ENDBRANCH  37  39
ENDBRANCH  32  33
ENDBRANCH   6  32
TORSDOF 8
ENDMDL
MODEL 2
REMARK VINA RESULT:      -9.8      1.746      2.799
REMARK  Name = 
REMARK  9 active torsions:
REMARK  status: ('A' for Active; 'I' for Inactive)
REMARK    1  A    between atoms: C_1  and  N_2
REMARK    2  A    between atoms: C_6  and  C_7
REMARK    3  A    between atoms: C_7  and  C_8
REMARK    4  A    between atoms: C_8  and  C_9
REMARK    5  A    between atoms: C_13  and  N_14
REMARK    6  A    between atoms: C_19  and  C_20
REMARK    7  A    between atoms: C_20  and  N_21
REMARK    8  A    between atoms: C_25  and  C_26
REMARK    9  A    between atoms: C_31  and  C_32
REMARK                            x       y       z     vdW  Elec       q    Type
REMARK                         _______ _______ _______ _____ _____    ______ ____
ROOT
ATOM      1  N   UNL     1       1.384   8.210  20.348  0.00  0.00    +0.000 N 
ATOM      2  C   UNL     1       1.488   6.884  20.916  0.00  0.00    +0.000 C 
ATOM      3  C   UNL     1       2.194   6.104  19.875  0.00  0.00    +0.000 A 
ATOM      4  C   UNL     1       2.648   6.947  18.860  0.00  0.00    +0.000 A 
ATOM      5  C   UNL     1       3.496   6.467  17.861  0.00  0.00    +0.000 A 
ATOM      6  C   UNL     1       3.836   5.098  17.885  0.00  0.00    +0.000 A 
ATOM      7  C   UNL     1       3.255   4.257  18.877  0.00  0.00    +0.000 A 
ATOM      8  C   UNL     1       2.442   4.741  19.889  0.00  0.00    +0.000 A 
ATOM      9  C   UNL     1       2.065   8.307  19.121  0.00  0.00    +0.000 C 
ATOM     10  O   UNL     1       2.182   9.248  18.360  0.00  0.00    +0.000 OA
ENDROOT
BRANCH   1  15
ATOM     11  C   UNL     1      -0.898  11.166  20.673  0.00  0.00    +0.000 A 
ATOM     12  C   UNL     1      -1.015  11.211  22.071  0.00  0.00    +0.000 A 
ATOM     13  C   UNL     1      -0.450  10.220  22.892  0.00  0.00    +0.000 A 
ATOM     14  C   UNL     1       0.290   9.164  22.344  0.00  0.00    +0.000 A 
ATOM     15  C   UNL     1       0.487   9.112  20.972  0.00  0.00    +0.000 A 
ATOM     16  C   UNL     1      -0.146  10.090  20.172  0.00  0.00    +0.000 A 
BRANCH  11  17
ATOM     17  C   UNL     1      -1.552  12.250  19.670  0.00  0.00    +0.000 C 
ATOM     18  C   UNL     1      -0.628  12.723  18.512  0.00  0.00    +0.000 C 
ATOM     19  O   UNL     1      -0.650  14.091  18.958  0.00  0.00    +0.000 OA
ATOM     20  C   UNL     1      -1.497  13.756  20.076  0.00  0.00    +0.000 C 
BRANCH  17  21
ATOM     21  C   UNL     1      -2.946  11.792  19.181  0.00  0.00    +0.000 C 
BRANCH  21  27
ATOM     22  C   UNL     1      -5.258  12.125  17.026  0.00  0.00    +0.000 C 
ATOM     23  N   UNL     1      -4.012  11.423  16.872  0.00  0.00    +0.000 N 
ATOM     24  C   UNL     1      -3.651  10.720  15.763  0.00  0.00    +0.000 A 
ATOM     25  N   UNL     1      -2.464  10.195  15.947  0.00  0.00    +0.000 NA
ATOM     26  N   UNL     1      -2.041  10.554  17.201  0.00  0.00    +0.000 NA
ATOM     27  C   UNL     1      -2.979  11.288  17.770  0.00  0.00    +0.000 A 
ENDBRANCH  21  27
ENDBRANCH  17  21
ENDBRANCH  11  17
ENDBRANCH   1  15
BRANCH   8  28
ATOM     28  C   UNL     1       1.881   3.820  20.938  0.00  0.00    +0.000 C 
ATOM     29  F   UNL     1       2.192   2.513  20.741  0.00  0.00    +0.000 F 
ATOM     30  F   UNL     1       2.339   4.129  22.180  0.00  0.00    +0.000 F 
ATOM     31  F   UNL     1       0.524   3.872  21.007  0.00  0.00    +0.000 F 
ENDBRANCH   8  28
BRANCH   6  32
ATOM     32  C   UNL     1       4.955   4.466  17.069  0.00  0.00    +0.000 C 
BRANCH  32  33
ATOM     33  N   UNL     1       6.292   4.355  17.659  0.00  0.00    +0.000 NA
ATOM     34  C   UNL     1       6.756   5.615  18.258  0.00  0.00    +0.000 C 
ATOM     35  C   UNL     1       7.132   6.749  17.282  0.00  0.00    +0.000 C 
ATOM     36  O   UNL     1       7.644   6.420  15.993  0.00  0.00    +0.000 OA
ATOM     37  C   UNL     1       7.603   5.063  15.535  0.00  0.00    +0.000 C 
ATOM     38  C   UNL     1       7.292   4.007  16.621  0.00  0.00    +0.000 C 
BRANCH  37  39
ATOM     39  C   UNL     1       6.771   4.887  14.249  0.00  0.00    +0.000 C 
ATOM     40  F   UNL     1       5.645   5.637  14.242  0.00  0.00    +0.000 F 
ATOM     41  F   UNL     1       7.487   5.271  13.160  0.00  0.00    +0.000 F 
ENDBRANCH  37  39
ENDBRANCH  32  33
ENDBRANCH   6  32
TORSDOF 8
ENDMDL
MODEL 3
REMARK VINA RESULT:      -9.8      2.153      3.287
REMARK  Name = 
REMARK  9 active torsions:
REMARK  status: ('A' for Active; 'I' for Inactive)
REMARK    1  A    between atoms: C_1  and  N_2
REMARK    2  A    between atoms: C_6  and  C_7
REMARK    3  A    between atoms: C_7  and  C_8
REMARK    4  A    between atoms: C_8  and  C_9
REMARK    5  A    between atoms: C_13  and  N_14
REMARK    6  A    between atoms: C_19  and  C_20
REMARK    7  A    between atoms: C_20  and  N_21
REMARK    8  A    between atoms: C_25  and  C_26
REMARK    9  A    between atoms: C_31  and  C_32
REMARK                            x       y       z     vdW  Elec       q    Type
REMARK                         _______ _______ _______ _____ _____    ______ ____
ROOT
ATOM      1  N   UNL     1       1.258   8.694  20.437  0.00  0.00    +0.000 N 
ATOM      2  C   UNL     1       1.463   7.340  20.901  0.00  0.00    +0.000 C 
ATOM      3  C   UNL     1       2.051   6.647  19.734  0.00  0.00    +0.000 A 
ATOM      4  C   UNL     1       2.355   7.563  18.726  0.00  0.00    +0.000 A 
ATOM      5  C   UNL     1       3.082   7.170  17.601  0.00  0.00    +0.000 A 
ATOM      6  C   UNL     1       3.454   5.813  17.497  0.00  0.00    +0.000 A 
ATOM      7  C   UNL     1       3.022   4.896  18.497  0.00  0.00    +0.000 A 
ATOM      8  C   UNL     1       2.330   5.294  19.631  0.00  0.00    +0.000 A 
ATOM      9  C   UNL     1       1.778   8.886  19.143  0.00  0.00    +0.000 C 
ATOM     10  O   UNL     1       1.777   9.874  18.435  0.00  0.00    +0.000 OA
ENDROOT
BRANCH   1  15
ATOM     11  C   UNL     1      -0.187  11.883  21.774  0.00  0.00    +0.000 A 
ATOM     12  C   UNL     1      -0.852  11.377  22.901  0.00  0.00    +0.000 A 
ATOM     13  C   UNL     1      -0.923   9.998  23.159  0.00  0.00    +0.000 A 
ATOM     14  C   UNL     1      -0.297   9.072  22.315  0.00  0.00    +0.000 A 
ATOM     15  C   UNL     1       0.426   9.529  21.222  0.00  0.00    +0.000 A 
ATOM     16  C   UNL     1       0.426  10.917  20.959  0.00  0.00    +0.000 A 
BRANCH  11  17
ATOM     17  C   UNL     1      -0.097  13.452  21.398  0.00  0.00    +0.000 C 
ATOM     18  C   UNL     1       1.330  14.067  21.462  0.00  0.00    +0.000 C 
ATOM     19  O   UNL     1       0.958  15.003  22.489  0.00  0.00    +0.000 OA
ATOM     20  C   UNL     1      -0.391  14.495  22.521  0.00  0.00    +0.000 C 
BRANCH  17  21
ATOM     21  C   UNL     1      -0.826  13.753  20.068  0.00  0.00    +0.000 C 
BRANCH  21  27
ATOM     22  C   UNL     1      -1.790  11.539  18.001  0.00  0.00    +0.000 C 
ATOM     23  N   UNL     1      -2.575  12.192  19.014  0.00  0.00    +0.000 N 
ATOM     24  C   UNL     1      -3.910  11.997  19.206  0.00  0.00    +0.000 A 
ATOM     25  N   UNL     1      -4.321  12.745  20.200  0.00  0.00    +0.000 NA
ATOM     26  N   UNL     1      -3.240  13.449  20.665  0.00  0.00    +0.000 NA
ATOM     27  C   UNL     1      -2.183  13.127  19.944  0.00  0.00    +0.000 A 
ENDBRANCH  21  27
ENDBRANCH  17  21
ENDBRANCH  11  17
ENDBRANCH   1  15
BRANCH   8  28
ATOM     28  C   UNL     1       1.927   4.293  20.680  0.00  0.00    +0.000 C 
ATOM     29  F   UNL     1       2.378   3.036  20.440  0.00  0.00    +0.000 F 
ATOM     30  F   UNL     1       2.400   4.631  21.909  0.00  0.00    +0.000 F 
ATOM     31  F   UNL     1       0.577   4.185  20.806  0.00  0.00    +0.000 F 
ENDBRANCH   8  28
BRANCH   6  32
ATOM     32  C   UNL     1       4.477   5.267  16.511  0.00  0.00    +0.000 C 
BRANCH  32  33
ATOM     33  N   UNL     1       5.484   6.173  15.951  0.00  0.00    +0.000 NA
ATOM     34  C   UNL     1       6.312   5.534  14.919  0.00  0.00    +0.000 C 
ATOM     35  C   UNL     1       7.330   4.481  15.400  0.00  0.00    +0.000 C 
ATOM     36  O   UNL     1       7.903   4.606  16.700  0.00  0.00    +0.000 OA
ATOM     37  C   UNL     1       7.375   5.569  17.621  0.00  0.00    +0.000 C 
ATOM     38  C   UNL     1       6.424   6.621  17.005  0.00  0.00    +0.000 C 
BRANCH  37  39
ATOM     39  C   UNL     1       6.830   4.929  18.914  0.00  0.00    +0.000 C 
ATOM     40  F   UNL     1       6.028   5.759  19.617  0.00  0.00    +0.000 F 
ATOM     41  F   UNL     1       6.082   3.832  18.626  0.00  0.00    +0.000 F 
ENDBRANCH  37  39
ENDBRANCH  32  33
ENDBRANCH   6  32
TORSDOF 8
ENDMDL
MODEL 4
REMARK VINA RESULT:      -9.7      0.954      1.216
REMARK  Name = 
REMARK  9 active torsions:
REMARK  status: ('A' for Active; 'I' for Inactive)
REMARK    1  A    between atoms: C_1  and  N_2
REMARK    2  A    between atoms: C_6  and  C_7
REMARK    3  A    between atoms: C_7  and  C_8
REMARK    4  A    between atoms: C_8  and  C_9
REMARK    5  A    between atoms: C_13  and  N_14
REMARK    6  A    between atoms: C_19  and  C_20
REMARK    7  A    between atoms: C_20  and  N_21
REMARK    8  A    between atoms: C_25  and  C_26
REMARK    9  A    between atoms: C_31  and  C_32
REMARK                            x       y       z     vdW  Elec       q    Type
REMARK                         _______ _______ _______ _____ _____    ______ ____
ROOT
ATOM      1  N   UNL     1       1.347   8.146  20.487  0.00  0.00    +0.000 N 
ATOM      2  C   UNL     1       1.477   6.787  20.966  0.00  0.00    +0.000 C 
ATOM      3  C   UNL     1       2.126   6.073  19.844  0.00  0.00    +0.000 A 
ATOM      4  C   UNL     1       2.530   6.977  18.861  0.00  0.00    +0.000 A 
ATOM      5  C   UNL     1       3.325   6.559  17.792  0.00  0.00    +0.000 A 
ATOM      6  C   UNL     1       3.662   5.191  17.716  0.00  0.00    +0.000 A 
ATOM      7  C   UNL     1       3.130   4.291  18.682  0.00  0.00    +0.000 A 
ATOM      8  C   UNL     1       2.370   4.712  19.762  0.00  0.00    +0.000 A 
ATOM      9  C   UNL     1       1.966   8.318  19.235  0.00  0.00    +0.000 C 
ATOM     10  O   UNL     1       2.046   9.303  18.528  0.00  0.00    +0.000 OA
ENDROOT
BRANCH   1  15
ATOM     11  C   UNL     1      -0.827  11.128  21.141  0.00  0.00    +0.000 A 
ATOM     12  C   UNL     1      -0.935  11.029  22.537  0.00  0.00    +0.000 A 
ATOM     13  C   UNL     1      -0.401   9.938  23.244  0.00  0.00    +0.000 A 
ATOM     14  C   UNL     1       0.298   8.921  22.581  0.00  0.00    +0.000 A 
ATOM     15  C   UNL     1       0.486   9.007  21.210  0.00  0.00    +0.000 A 
ATOM     16  C   UNL     1      -0.116  10.085  20.523  0.00  0.00    +0.000 A 
BRANCH  11  17
ATOM     17  C   UNL     1      -1.447  12.334  20.263  0.00  0.00    +0.000 C 
ATOM     18  C   UNL     1      -2.588  13.134  20.952  0.00  0.00    +0.000 C 
ATOM     19  O   UNL     1      -3.547  12.776  19.941  0.00  0.00    +0.000 OA
ATOM     20  C   UNL     1      -2.566  11.992  19.231  0.00  0.00    +0.000 C 
BRANCH  17  21
ATOM     21  C   UNL     1      -0.333  13.241  19.691  0.00  0.00    +0.000 C 
BRANCH  21  27
ATOM     22  C   UNL     1      -0.714  16.309  20.431  0.00  0.00    +0.000 C 
ATOM     23  N   UNL     1       0.236  15.385  20.990  0.00  0.00    +0.000 N 
ATOM     24  C   UNL     1       1.189  15.712  21.907  0.00  0.00    +0.000 A 
ATOM     25  N   UNL     1       1.894  14.648  22.202  0.00  0.00    +0.000 NA
ATOM     26  N   UNL     1       1.402  13.605  21.461  0.00  0.00    +0.000 NA
ATOM     27  C   UNL     1       0.405  14.047  20.716  0.00  0.00    +0.000 A 
ENDBRANCH  21  27
ENDBRANCH  17  21
ENDBRANCH  11  17
ENDBRANCH   1  15
BRANCH   8  28
ATOM     28  C   UNL     1       1.861   3.727  20.780  0.00  0.00    +0.000 C 
ATOM     29  F   UNL     1       2.284   3.979  22.045  0.00  0.00    +0.000 F 
ATOM     30  F   UNL     1       0.502   3.715  20.837  0.00  0.00    +0.000 F 
ATOM     31  F   UNL     1       2.244   2.451  20.508  0.00  0.00    +0.000 F 
ENDBRANCH   8  28
BRANCH   6  32
ATOM     32  C   UNL     1       4.737   4.611  16.806  0.00  0.00    +0.000 C 
BRANCH  32  33
ATOM     33  N   UNL     1       6.041   4.264  17.375  0.00  0.00    +0.000 NA
ATOM     34  C   UNL     1       6.679   5.394  18.067  0.00  0.00    +0.000 C 
ATOM     35  C   UNL     1       7.217   6.534  17.179  0.00  0.00    +0.000 C 
ATOM     36  O   UNL     1       7.682   6.237  15.865  0.00  0.00    +0.000 OA
ATOM     37  C   UNL     1       7.448   4.939  15.304  0.00  0.00    +0.000 C 
ATOM     38  C   UNL     1       6.985   3.858  16.307  0.00  0.00    +0.000 C 
BRANCH  37  39
ATOM     39  C   UNL     1       6.605   4.985  14.014  0.00  0.00    +0.000 C 
ATOM     40  F   UNL     1       7.358   5.046  12.892  0.00  0.00    +0.000 F 
ATOM     41  F   UNL     1       5.844   3.865  13.899  0.00  0.00    +0.000 F 
ENDBRANCH  37  39
ENDBRANCH  32  33
ENDBRANCH   6  32
TORSDOF 8
ENDMDL
MODEL 5
REMARK VINA RESULT:      -9.7      1.407      1.873
REMARK  Name = 
REMARK  9 active torsions:
REMARK  status: ('A' for Active; 'I' for Inactive)
REMARK    1  A    between atoms: C_1  and  N_2
REMARK    2  A    between atoms: C_6  and  C_7
REMARK    3  A    between atoms: C_7  and  C_8
REMARK    4  A    between atoms: C_8  and  C_9
REMARK    5  A    between atoms: C_13  and  N_14
REMARK    6  A    between atoms: C_19  and  C_20
REMARK    7  A    between atoms: C_20  and  N_21
REMARK    8  A    between atoms: C_25  and  C_26
REMARK    9  A    between atoms: C_31  and  C_32
REMARK                            x       y       z     vdW  Elec       q    Type
REMARK                         _______ _______ _______ _____ _____    ______ ____
ROOT
ATOM      1  N   UNL     1       1.159   8.638  20.389  0.00  0.00    +0.000 N 
ATOM      2  C   UNL     1       1.376   7.288  20.862  0.00  0.00    +0.000 C 
ATOM      3  C   UNL     1       2.001   6.602  19.709  0.00  0.00    +0.000 A 
ATOM      4  C   UNL     1       2.310   7.521  18.706  0.00  0.00    +0.000 A 
ATOM      5  C   UNL     1       3.068   7.137  17.598  0.00  0.00    +0.000 A 
ATOM      6  C   UNL     1       3.465   5.786  17.505  0.00  0.00    +0.000 A 
ATOM      7  C   UNL     1       3.026   4.865  18.499  0.00  0.00    +0.000 A 
ATOM      8  C   UNL     1       2.304   5.254  19.616  0.00  0.00    +0.000 A 
ATOM      9  C   UNL     1       1.703   8.835  19.106  0.00  0.00    +0.000 C 
ATOM     10  O   UNL     1       1.701   9.821  18.396  0.00  0.00    +0.000 OA
ENDROOT
BRANCH   1  15
ATOM     11  C   UNL     1      -1.223  11.439  21.114  0.00  0.00    +0.000 A 
ATOM     12  C   UNL     1      -1.174  11.423  22.517  0.00  0.00    +0.000 A 
ATOM     13  C   UNL     1      -0.462  10.436  23.219  0.00  0.00    +0.000 A 
ATOM     14  C   UNL     1       0.262   9.447  22.541  0.00  0.00    +0.000 A 
ATOM     15  C   UNL     1       0.295   9.460  21.154  0.00  0.00    +0.000 A 
ATOM     16  C   UNL     1      -0.480  10.429  20.480  0.00  0.00    +0.000 A 
BRANCH  11  17
ATOM     17  C   UNL     1      -2.050  12.521  20.245  0.00  0.00    +0.000 C 
ATOM     18  C   UNL     1      -3.511  12.771  20.717  0.00  0.00    +0.000 C 
ATOM     19  O   UNL     1      -4.067  12.316  19.470  0.00  0.00    +0.000 OA
ATOM     20  C   UNL     1      -2.755  12.034  18.941  0.00  0.00    +0.000 C 
BRANCH  17  21
ATOM     21  C   UNL     1      -1.243  13.827  20.061  0.00  0.00    +0.000 C 
BRANCH  21  27
ATOM     22  C   UNL     1       1.452  14.404  21.645  0.00  0.00    +0.000 C 
ATOM     23  N   UNL     1       1.314  13.920  20.298  0.00  0.00    +0.000 N 
ATOM     24  C   UNL     1       2.354  13.687  19.448  0.00  0.00    +0.000 A 
ATOM     25  N   UNL     1       1.890  13.262  18.299  0.00  0.00    +0.000 NA
ATOM     26  N   UNL     1       0.523  13.221  18.392  0.00  0.00    +0.000 NA
ATOM     27  C   UNL     1       0.168  13.630  19.596  0.00  0.00    +0.000 A 
ENDBRANCH  21  27
ENDBRANCH  17  21
ENDBRANCH  11  17
ENDBRANCH   1  15
BRANCH   8  28
ATOM     28  C   UNL     1       1.895   4.250  20.660  0.00  0.00    +0.000 C 
ATOM     29  F   UNL     1       2.344   4.543  21.907  0.00  0.00    +0.000 F 
ATOM     30  F   UNL     1       0.542   4.151  20.764  0.00  0.00    +0.000 F 
ATOM     31  F   UNL     1       2.349   2.997  20.386  0.00  0.00    +0.000 F 
ENDBRANCH   8  28
BRANCH   6  32
ATOM     32  C   UNL     1       4.518   5.254  16.543  0.00  0.00    +0.000 C 
BRANCH  32  33
ATOM     33  N   UNL     1       5.518   6.176  16.000  0.00  0.00    +0.000 NA
ATOM     34  C   UNL     1       6.374   5.551  14.981  0.00  0.00    +0.000 C 
ATOM     35  C   UNL     1       7.400   4.514  15.479  0.00  0.00    +0.000 C 
ATOM     36  O   UNL     1       7.950   4.648  16.788  0.00  0.00    +0.000 OA
ATOM     37  C   UNL     1       7.392   5.603  17.700  0.00  0.00    +0.000 C 
ATOM     38  C   UNL     1       6.435   6.640  17.069  0.00  0.00    +0.000 C 
BRANCH  37  39
ATOM     39  C   UNL     1       6.837   4.954  18.984  0.00  0.00    +0.000 C 
ATOM     40  F   UNL     1       6.007   5.770  19.672  0.00  0.00    +0.000 F 
ATOM     41  F   UNL     1       6.113   3.843  18.685  0.00  0.00    +0.000 F 
ENDBRANCH  37  39
ENDBRANCH  32  33
ENDBRANCH   6  32
TORSDOF 8
ENDMDL
MODEL 6
REMARK VINA RESULT:      -9.7      0.546      1.155
REMARK  Name = 
REMARK  9 active torsions:
REMARK  status: ('A' for Active; 'I' for Inactive)
REMARK    1  A    between atoms: C_1  and  N_2
REMARK    2  A    between atoms: C_6  and  C_7
REMARK    3  A    between atoms: C_7  and  C_8
REMARK    4  A    between atoms: C_8  and  C_9
REMARK    5  A    between atoms: C_13  and  N_14
REMARK    6  A    between atoms: C_19  and  C_20
REMARK    7  A    between atoms: C_20  and  N_21
REMARK    8  A    between atoms: C_25  and  C_26
REMARK    9  A    between atoms: C_31  and  C_32
REMARK                            x       y       z     vdW  Elec       q    Type
REMARK                         _______ _______ _______ _____ _____    ______ ____
ROOT
ATOM      1  N   UNL     1       1.244   8.371  20.485  0.00  0.00    +0.000 N 
ATOM      2  C   UNL     1       1.382   7.014  20.965  0.00  0.00    +0.000 C 
ATOM      3  C   UNL     1       2.050   6.307  19.850  0.00  0.00    +0.000 A 
ATOM      4  C   UNL     1       2.456   7.215  18.871  0.00  0.00    +0.000 A 
ATOM      5  C   UNL     1       3.266   6.805  17.811  0.00  0.00    +0.000 A 
ATOM      6  C   UNL     1       3.618   5.441  17.738  0.00  0.00    +0.000 A 
ATOM      7  C   UNL     1       3.084   4.535  18.699  0.00  0.00    +0.000 A 
ATOM      8  C   UNL     1       2.309   4.948  19.771  0.00  0.00    +0.000 A 
ATOM      9  C   UNL     1       1.874   8.551  19.239  0.00  0.00    +0.000 C 
ATOM     10  O   UNL     1       1.953   9.537  18.534  0.00  0.00    +0.000 OA
ENDROOT
BRANCH   1  15
ATOM     11  C   UNL     1      -1.047  11.277  21.082  0.00  0.00    +0.000 A 
ATOM     12  C   UNL     1      -1.106  11.236  22.484  0.00  0.00    +0.000 A 
ATOM     13  C   UNL     1      -0.499  10.204  23.219  0.00  0.00    +0.000 A 
ATOM     14  C   UNL     1       0.226   9.191  22.578  0.00  0.00    +0.000 A 
ATOM     15  C   UNL     1       0.366   9.224  21.198  0.00  0.00    +0.000 A 
ATOM     16  C   UNL     1      -0.308  10.241  20.486  0.00  0.00    +0.000 A 
BRANCH  11  17
ATOM     17  C   UNL     1      -1.751  12.413  20.174  0.00  0.00    +0.000 C 
ATOM     18  C   UNL     1      -3.299  12.496  20.302  0.00  0.00    +0.000 C 
ATOM     19  O   UNL     1      -3.501  12.184  18.912  0.00  0.00    +0.000 OA
ATOM     20  C   UNL     1      -2.081  12.067  18.689  0.00  0.00    +0.000 C 
BRANCH  17  21
ATOM     21  C   UNL     1      -1.056  13.782  20.351  0.00  0.00    +0.000 C 
BRANCH  21  27
ATOM     22  C   UNL     1       1.223  13.167  18.222  0.00  0.00    +0.000 C 
ATOM     23  N   UNL     1       1.383  13.407  19.631  0.00  0.00    +0.000 N 
ATOM     24  C   UNL     1       2.569  13.344  20.298  0.00  0.00    +0.000 A 
ATOM     25  N   UNL     1       2.370  13.606  21.566  0.00  0.00    +0.000 NA
ATOM     26  N   UNL     1       1.030  13.839  21.737  0.00  0.00    +0.000 NA
ATOM     27  C   UNL     1       0.425  13.708  20.571  0.00  0.00    +0.000 A 
ENDBRANCH  21  27
ENDBRANCH  17  21
ENDBRANCH  11  17
ENDBRANCH   1  15
BRANCH   8  28
ATOM     28  C   UNL     1       1.798   3.958  20.782  0.00  0.00    +0.000 C 
ATOM     29  F   UNL     1       2.117   2.670  20.497  0.00  0.00    +0.000 F 
ATOM     30  F   UNL     1       2.300   4.199  22.023  0.00  0.00    +0.000 F 
ATOM     31  F   UNL     1       0.444   3.987  20.904  0.00  0.00    +0.000 F 
ENDBRANCH   8  28
BRANCH   6  32
ATOM     32  C   UNL     1       4.708   4.872  16.841  0.00  0.00    +0.000 C 
BRANCH  32  33
ATOM     33  N   UNL     1       5.979   4.456  17.438  0.00  0.00    +0.000 NA
ATOM     34  C   UNL     1       6.693   5.567  18.084  0.00  0.00    +0.000 C 
ATOM     35  C   UNL     1       7.320   6.623  17.153  0.00  0.00    +0.000 C 
ATOM     36  O   UNL     1       7.772   6.233  15.857  0.00  0.00    +0.000 OA
ATOM     37  C   UNL     1       7.447   4.931  15.353  0.00  0.00    +0.000 C 
ATOM     38  C   UNL     1       6.898   3.934  16.399  0.00  0.00    +0.000 C 
BRANCH  37  39
ATOM     39  C   UNL     1       6.618   4.981  14.053  0.00  0.00    +0.000 C 
ATOM     40  F   UNL     1       7.358   5.297  12.967  0.00  0.00    +0.000 F 
ATOM     41  F   UNL     1       6.063   3.768  13.794  0.00  0.00    +0.000 F 
ENDBRANCH  37  39
ENDBRANCH  32  33
ENDBRANCH   6  32
TORSDOF 8
ENDMDL
MODEL 7
REMARK VINA RESULT:      -9.7      1.778      2.682
REMARK  Name = 
REMARK  9 active torsions:
REMARK  status: ('A' for Active; 'I' for Inactive)
REMARK    1  A    between atoms: C_1  and  N_2
REMARK    2  A    between atoms: C_6  and  C_7
REMARK    3  A    between atoms: C_7  and  C_8
REMARK    4  A    between atoms: C_8  and  C_9
REMARK    5  A    between atoms: C_13  and  N_14
REMARK    6  A    between atoms: C_19  and  C_20
REMARK    7  A    between atoms: C_20  and  N_21
REMARK    8  A    between atoms: C_25  and  C_26
REMARK    9  A    between atoms: C_31  and  C_32
REMARK                            x       y       z     vdW  Elec       q    Type
REMARK                         _______ _______ _______ _____ _____    ______ ____
ROOT
ATOM      1  N   UNL     1       1.330   8.477  20.425  0.00  0.00    +0.000 N 
ATOM      2  C   UNL     1       1.493   7.134  20.936  0.00  0.00    +0.000 C 
ATOM      3  C   UNL     1       2.096   6.393  19.807  0.00  0.00    +0.000 A 
ATOM      4  C   UNL     1       2.447   7.271  18.781  0.00  0.00    +0.000 A 
ATOM      5  C   UNL     1       3.196   6.828  17.689  0.00  0.00    +0.000 A 
ATOM      6  C   UNL     1       3.541   5.461  17.636  0.00  0.00    +0.000 A 
ATOM      7  C   UNL     1       3.061   4.585  18.651  0.00  0.00    +0.000 A 
ATOM      8  C   UNL     1       2.348   5.031  19.752  0.00  0.00    +0.000 A 
ATOM      9  C   UNL     1       1.889   8.618  19.141  0.00  0.00    +0.000 C 
ATOM     10  O   UNL     1       1.929   9.583  18.404  0.00  0.00    +0.000 OA
ENDROOT
BRANCH   1  15
ATOM     11  C   UNL     1      -0.051  11.736  21.657  0.00  0.00    +0.000 A 
ATOM     12  C   UNL     1      -0.786  11.271  22.759  0.00  0.00    +0.000 A 
ATOM     13  C   UNL     1      -0.922   9.899  23.029  0.00  0.00    +0.000 A 
ATOM     14  C   UNL     1      -0.294   8.938  22.225  0.00  0.00    +0.000 A 
ATOM     15  C   UNL     1       0.495   9.353  21.162  0.00  0.00    +0.000 A 
ATOM     16  C   UNL     1       0.561  10.736  20.883  0.00  0.00    +0.000 A 
BRANCH  11  17
ATOM     17  C   UNL     1       0.117  13.296  21.269  0.00  0.00    +0.000 C 
ATOM     18  C   UNL     1       1.582  13.815  21.236  0.00  0.00    +0.000 C 
ATOM     19  O   UNL     1       1.340  14.775  22.280  0.00  0.00    +0.000 OA
ATOM     20  C   UNL     1      -0.035  14.357  22.403  0.00  0.00    +0.000 C 
BRANCH  17  21
ATOM     21  C   UNL     1      -0.676  13.642  19.987  0.00  0.00    +0.000 C 
BRANCH  21  27
ATOM     22  C   UNL     1      -1.998  11.345  18.232  0.00  0.00    +0.000 C 
ATOM     23  N   UNL     1      -2.647  12.198  19.191  0.00  0.00    +0.000 N 
ATOM     24  C   UNL     1      -3.984  12.190  19.455  0.00  0.00    +0.000 A 
ATOM     25  N   UNL     1      -4.253  13.090  20.369  0.00  0.00    +0.000 NA
ATOM     26  N   UNL     1      -3.074  13.704  20.707  0.00  0.00    +0.000 NA
ATOM     27  C   UNL     1      -2.101  13.176  19.988  0.00  0.00    +0.000 A 
ENDBRANCH  21  27
ENDBRANCH  17  21
ENDBRANCH  11  17
ENDBRANCH   1  15
BRANCH   8  28
ATOM     28  C   UNL     1       1.894   4.073  20.820  0.00  0.00    +0.000 C 
ATOM     29  F   UNL     1       2.334   4.391  22.064  0.00  0.00    +0.000 F 
ATOM     30  F   UNL     1       0.538   4.018  20.907  0.00  0.00    +0.000 F 
ATOM     31  F   UNL     1       2.314   2.800  20.591  0.00  0.00    +0.000 F 
ENDBRANCH   8  28
BRANCH   6  32
ATOM     32  C   UNL     1       4.577   4.863  16.695  0.00  0.00    +0.000 C 
BRANCH  32  33
ATOM     33  N   UNL     1       5.835   4.355  17.249  0.00  0.00    +0.000 NA
ATOM     34  C   UNL     1       6.624   5.400  17.918  0.00  0.00    +0.000 C 
ATOM     35  C   UNL     1       7.291   6.453  17.010  0.00  0.00    +0.000 C 
ATOM     36  O   UNL     1       7.693   6.085  15.692  0.00  0.00    +0.000 OA
ATOM     37  C   UNL     1       7.285   4.823  15.150  0.00  0.00    +0.000 C 
ATOM     38  C   UNL     1       6.701   3.821  16.172  0.00  0.00    +0.000 C 
BRANCH  37  39
ATOM     39  C   UNL     1       6.434   4.965  13.872  0.00  0.00    +0.000 C 
ATOM     40  F   UNL     1       7.162   4.857  12.737  0.00  0.00    +0.000 F 
ATOM     41  F   UNL     1       5.493   3.986  13.812  0.00  0.00    +0.000 F 
ENDBRANCH  37  39
ENDBRANCH  32  33
ENDBRANCH   6  32
TORSDOF 8
ENDMDL
MODEL 8
REMARK VINA RESULT:      -9.6      2.000      2.692
REMARK  Name = 
REMARK  9 active torsions:
REMARK  status: ('A' for Active; 'I' for Inactive)
REMARK    1  A    between atoms: C_1  and  N_2
REMARK    2  A    between atoms: C_6  and  C_7
REMARK    3  A    between atoms: C_7  and  C_8
REMARK    4  A    between atoms: C_8  and  C_9
REMARK    5  A    between atoms: C_13  and  N_14
REMARK    6  A    between atoms: C_19  and  C_20
REMARK    7  A    between atoms: C_20  and  N_21
REMARK    8  A    between atoms: C_25  and  C_26
REMARK    9  A    between atoms: C_31  and  C_32
REMARK                            x       y       z     vdW  Elec       q    Type
REMARK                         _______ _______ _______ _____ _____    ______ ____
ROOT
ATOM      1  N   UNL     1       1.345   8.239  20.430  0.00  0.00    +0.000 N 
ATOM      2  C   UNL     1       1.471   6.883  20.917  0.00  0.00    +0.000 C 
ATOM      3  C   UNL     1       2.131   6.164  19.805  0.00  0.00    +0.000 A 
ATOM      4  C   UNL     1       2.544   7.063  18.821  0.00  0.00    +0.000 A 
ATOM      5  C   UNL     1       3.349   6.640  17.762  0.00  0.00    +0.000 A 
ATOM      6  C   UNL     1       3.687   5.272  17.695  0.00  0.00    +0.000 A 
ATOM      7  C   UNL     1       3.147   4.376  18.661  0.00  0.00    +0.000 A 
ATOM      8  C   UNL     1       2.376   4.802  19.732  0.00  0.00    +0.000 A 
ATOM      9  C   UNL     1       1.975   8.406  19.183  0.00  0.00    +0.000 C 
ATOM     10  O   UNL     1       2.063   9.388  18.473  0.00  0.00    +0.000 OA
ENDROOT
BRANCH   1  15
ATOM     11  C   UNL     1      -0.911  11.174  21.018  0.00  0.00    +0.000 A 
ATOM     12  C   UNL     1      -0.973  11.136  22.420  0.00  0.00    +0.000 A 
ATOM     13  C   UNL     1      -0.380  10.098  23.158  0.00  0.00    +0.000 A 
ATOM     14  C   UNL     1       0.334   9.075  22.520  0.00  0.00    +0.000 A 
ATOM     15  C   UNL     1       0.477   9.104  21.141  0.00  0.00    +0.000 A 
ATOM     16  C   UNL     1      -0.183  10.128  20.425  0.00  0.00    +0.000 A 
BRANCH  11  17
ATOM     17  C   UNL     1      -1.599  12.316  20.107  0.00  0.00    +0.000 C 
ATOM     18  C   UNL     1      -2.620  11.798  19.055  0.00  0.00    +0.000 C 
ATOM     19  O   UNL     1      -1.847  12.303  17.952  0.00  0.00    +0.000 OA
ATOM     20  C   UNL     1      -0.832  12.810  18.841  0.00  0.00    +0.000 C 
BRANCH  17  21
ATOM     21  C   UNL     1      -2.160  13.465  20.978  0.00  0.00    +0.000 C 
BRANCH  21  27
ATOM     22  C   UNL     1      -4.443  15.665  20.752  0.00  0.00    +0.000 C 
ATOM     23  N   UNL     1      -4.569  14.320  21.245  0.00  0.00    +0.000 N 
ATOM     24  C   UNL     1      -5.711  13.788  21.763  0.00  0.00    +0.000 A 
ATOM     25  N   UNL     1      -5.489  12.549  22.127  0.00  0.00    +0.000 NA
ATOM     26  N   UNL     1      -4.177  12.263  21.848  0.00  0.00    +0.000 NA
ATOM     27  C   UNL     1      -3.612  13.335  21.325  0.00  0.00    +0.000 A 
ENDBRANCH  21  27
ENDBRANCH  17  21
ENDBRANCH  11  17
ENDBRANCH   1  15
BRANCH   8  28
ATOM     28  C   UNL     1       1.858   3.822  20.749  0.00  0.00    +0.000 C 
ATOM     29  F   UNL     1       2.301   4.058  22.011  0.00  0.00    +0.000 F 
ATOM     30  F   UNL     1       0.500   3.840  20.822  0.00  0.00    +0.000 F 
ATOM     31  F   UNL     1       2.210   2.540  20.465  0.00  0.00    +0.000 F 
ENDBRANCH   8  28
BRANCH   6  32
ATOM     32  C   UNL     1       4.771   4.689  16.799  0.00  0.00    +0.000 C 
BRANCH  32  33
ATOM     33  N   UNL     1       6.067   4.335  17.384  0.00  0.00    +0.000 NA
ATOM     34  C   UNL     1       6.723   5.475  18.041  0.00  0.00    +0.000 C 
ATOM     35  C   UNL     1       7.286   6.576  17.120  0.00  0.00    +0.000 C 
ATOM     36  O   UNL     1       7.750   6.227  15.817  0.00  0.00    +0.000 OA
ATOM     37  C   UNL     1       7.493   4.916  15.297  0.00  0.00    +0.000 C 
ATOM     38  C   UNL     1       7.006   3.878  16.333  0.00  0.00    +0.000 C 
BRANCH  37  39
ATOM     39  C   UNL     1       6.654   4.937  14.003  0.00  0.00    +0.000 C 
ATOM     40  F   UNL     1       7.407   5.075  12.888  0.00  0.00    +0.000 F 
ATOM     41  F   UNL     1       5.972   3.771  13.857  0.00  0.00    +0.000 F 
ENDBRANCH  37  39
ENDBRANCH  32  33
ENDBRANCH   6  32
TORSDOF 8
ENDMDL
MODEL 9
REMARK VINA RESULT:      -9.6      2.404      3.412
REMARK  Name = 
REMARK  9 active torsions:
REMARK  status: ('A' for Active; 'I' for Inactive)
REMARK    1  A    between atoms: C_1  and  N_2
REMARK    2  A    between atoms: C_6  and  C_7
REMARK    3  A    between atoms: C_7  and  C_8
REMARK    4  A    between atoms: C_8  and  C_9
REMARK    5  A    between atoms: C_13  and  N_14
REMARK    6  A    between atoms: C_19  and  C_20
REMARK    7  A    between atoms: C_20  and  N_21
REMARK    8  A    between atoms: C_25  and  C_26
REMARK    9  A    between atoms: C_31  and  C_32
REMARK                            x       y       z     vdW  Elec       q    Type
REMARK                         _______ _______ _______ _____ _____    ______ ____
ROOT
ATOM      1  N   UNL     1       1.230   8.390  20.529  0.00  0.00    +0.000 N 
ATOM      2  C   UNL     1       1.440   7.029  20.973  0.00  0.00    +0.000 C 
ATOM      3  C   UNL     1       2.030   6.355  19.795  0.00  0.00    +0.000 A 
ATOM      4  C   UNL     1       2.330   7.287  18.801  0.00  0.00    +0.000 A 
ATOM      5  C   UNL     1       3.059   6.913  17.671  0.00  0.00    +0.000 A 
ATOM      6  C   UNL     1       3.435   5.559  17.546  0.00  0.00    +0.000 A 
ATOM      7  C   UNL     1       3.006   4.627  18.533  0.00  0.00    +0.000 A 
ATOM      8  C   UNL     1       2.313   5.005  19.672  0.00  0.00    +0.000 A 
ATOM      9  C   UNL     1       1.749   8.602  19.238  0.00  0.00    +0.000 C 
ATOM     10  O   UNL     1       1.745   9.600  18.545  0.00  0.00    +0.000 OA
ENDROOT
BRANCH   1  15
ATOM     11  C   UNL     1      -0.948  11.311  21.406  0.00  0.00    +0.000 A 
ATOM     12  C   UNL     1      -0.985  11.157  22.800  0.00  0.00    +0.000 A 
ATOM     13  C   UNL     1      -0.400  10.049  23.437  0.00  0.00    +0.000 A 
ATOM     14  C   UNL     1       0.278   9.068  22.701  0.00  0.00    +0.000 A 
ATOM     15  C   UNL     1       0.395   9.209  21.326  0.00  0.00    +0.000 A 
ATOM     16  C   UNL     1      -0.256  10.303  20.713  0.00  0.00    +0.000 A 
BRANCH  11  17
ATOM     17  C   UNL     1      -1.629  12.539  20.608  0.00  0.00    +0.000 C 
ATOM     18  C   UNL     1      -2.555  12.130  19.428  0.00  0.00    +0.000 C 
ATOM     19  O   UNL     1      -1.737  12.807  18.457  0.00  0.00    +0.000 OA
ATOM     20  C   UNL     1      -0.805  13.227  19.475  0.00  0.00    +0.000 C 
BRANCH  17  21
ATOM     21  C   UNL     1      -2.296  13.539  21.581  0.00  0.00    +0.000 C 
BRANCH  21  27
ATOM     22  C   UNL     1      -4.688  15.394  20.611  0.00  0.00    +0.000 C 
ATOM     23  N   UNL     1      -4.777  14.175  21.369  0.00  0.00    +0.000 N 
ATOM     24  C   UNL     1      -5.936  13.647  21.854  0.00  0.00    +0.000 A 
ATOM     25  N   UNL     1      -5.672  12.541  22.504  0.00  0.00    +0.000 NA
ATOM     26  N   UNL     1      -4.316  12.341  22.452  0.00  0.00    +0.000 NA
ATOM     27  C   UNL     1      -3.768  13.333  21.776  0.00  0.00    +0.000 A 
ENDBRANCH  21  27
ENDBRANCH  17  21
ENDBRANCH  11  17
ENDBRANCH   1  15
BRANCH   8  28
ATOM     28  C   UNL     1       1.913   3.988  20.707  0.00  0.00    +0.000 C 
ATOM     29  F   UNL     1       2.328   2.726  20.424  0.00  0.00    +0.000 F 
ATOM     30  F   UNL     1       2.426   4.283  21.931  0.00  0.00    +0.000 F 
ATOM     31  F   UNL     1       0.565   3.908  20.866  0.00  0.00    +0.000 F 
ENDBRANCH   8  28
BRANCH   6  32
ATOM     32  C   UNL     1       4.460   5.031  16.552  0.00  0.00    +0.000 C 
BRANCH  32  33
ATOM     33  N   UNL     1       5.401   5.967  15.932  0.00  0.00    +0.000 NA
ATOM     34  C   UNL     1       6.272   5.323  14.938  0.00  0.00    +0.000 C 
ATOM     35  C   UNL     1       7.361   4.376  15.482  0.00  0.00    +0.000 C 
ATOM     36  O   UNL     1       7.923   4.624  16.769  0.00  0.00    +0.000 OA
ATOM     37  C   UNL     1       7.329   5.605  17.628  0.00  0.00    +0.000 C 
ATOM     38  C   UNL     1       6.308   6.547  16.951  0.00  0.00    +0.000 C 
BRANCH  37  39
ATOM     39  C   UNL     1       6.831   5.013  18.962  0.00  0.00    +0.000 C 
ATOM     40  F   UNL     1       5.950   5.816  19.601  0.00  0.00    +0.000 F 
ATOM     41  F   UNL     1       6.185   3.836  18.751  0.00  0.00    +0.000 F 
ENDBRANCH  37  39
ENDBRANCH  32  33
ENDBRANCH   6  32
TORSDOF 8
ENDMDL
