MODEL 1
REMARK VINA RESULT:      -8.9      0.000      0.000
REMARK  Name = 
REMARK  10 active torsions:
REMARK  status: ('A' for Active; 'I' for Inactive)
REMARK    1  A    between atoms: C_1  and  C_2
REMARK    2  A    between atoms: C_2  and  C_3
REMARK    3  A    between atoms: C_2  and  N_32
REMARK    4  A    between atoms: C_5  and  C_6
REMARK    5  A    between atoms: N_8  and  C_9
REMARK    6  A    between atoms: C_13  and  C_14
REMARK    7  A    between atoms: C_14  and  C_15
REMARK    8  A    between atoms: C_15  and  C_16
REMARK    9  A    between atoms: N_20  and  C_21
REMARK   10  A    between atoms: C_27  and  C_28
REMARK                            x       y       z     vdW  Elec       q    Type
REMARK                         _______ _______ _______ _____ _____    ______ ____
ROOT
ATOM      1  C   UNL     1       2.190   8.084  18.141  0.00  0.00    +0.000 C 
ATOM      2  O   UNL     1       2.585   8.574  17.087  0.00  0.00    +0.000 OA
ATOM      3  N   UNL     1       1.224   8.600  18.986  0.00  0.00    +0.000 N 
ATOM      4  H   UNL     1       1.105   8.092  19.861  0.00  0.00    +0.000 HD
ENDROOT
BRANCH   1   7
ATOM      5  C   UNL     1       4.328   5.075  18.367  0.00  0.00    +0.000 A 
ATOM      6  C   UNL     1       3.866   6.288  17.922  0.00  0.00    +0.000 A 
ATOM      7  C   UNL     1       2.783   6.794  18.605  0.00  0.00    +0.000 A 
ATOM      8  N   UNL     1       2.177   6.189  19.656  0.00  0.00    +0.000 NA
ATOM      9  C   UNL     1       2.712   5.018  20.045  0.00  0.00    +0.000 A 
ATOM     10  N   UNL     1       3.769   4.451  19.429  0.00  0.00    +0.000 NA
BRANCH   9  11
ATOM     11  C   UNL     1       2.128   4.271  21.216  0.00  0.00    +0.000 C 
ATOM     12  C   UNL     1       1.162   3.125  21.039  0.00  0.00    +0.000 C 
ATOM     13  C   UNL     1       2.573   2.846  21.465  0.00  0.00    +0.000 C 
ENDBRANCH   9  11
BRANCH   5  15
ATOM     14  C   UNL     1       5.039   4.237  16.106  0.00  0.00    +0.000 C 
ATOM     15  C   UNL     1       5.421   4.332  17.595  0.00  0.00    +0.000 C 
BRANCH  15  16
ATOM     16  N   UNL     1       6.761   4.884  17.888  0.00  0.00    +0.000 NA
ATOM     17  C   UNL     1       6.938   5.415  19.257  0.00  0.00    +0.000 C 
ATOM     18  C   UNL     1       8.115   6.376  19.105  0.00  0.00    +0.000 C 
ATOM     19  C   UNL     1       7.705   7.020  17.822  0.00  0.00    +0.000 C 
ATOM     20  C   UNL     1       8.199   8.332  17.262  0.00  0.00    +0.000 C 
ATOM     21  C   UNL     1       6.876   8.282  17.973  0.00  0.00    +0.000 C 
ATOM     22  C   UNL     1       7.226   5.904  16.931  0.00  0.00    +0.000 C 
ENDBRANCH  15  16
ENDBRANCH   5  15
ENDBRANCH   1   7
BRANCH   3  23
ATOM     23  C   UNL     1       0.468   9.773  18.792  0.00  0.00    +0.000 A 
ATOM     24  C   UNL     1       0.809  11.003  19.350  0.00  0.00    +0.000 A 
ATOM     25  C   UNL     1       0.005  12.120  19.142  0.00  0.00    +0.000 A 
ATOM     26  C   UNL     1      -1.165  12.006  18.391  0.00  0.00    +0.000 A 
ATOM     27  C   UNL     1      -1.567  10.782  17.823  0.00  0.00    +0.000 A 
ATOM     28  C   UNL     1      -0.691   9.682  18.009  0.00  0.00    +0.000 A 
BRANCH  27  29
ATOM     29  C   UNL     1      -2.955  10.641  17.036  0.00  0.00    +0.000 C 
ATOM     30  C   UNL     1      -3.295  11.673  15.920  0.00  0.00    +0.000 C 
ATOM     31  O   UNL     1      -3.703  10.600  15.024  0.00  0.00    +0.000 OA
ATOM     32  C   UNL     1      -2.935   9.664  15.822  0.00  0.00    +0.000 C 
BRANCH  29  33
ATOM     33  C   UNL     1      -4.131  10.344  17.985  0.00  0.00    +0.000 C 
BRANCH  33  34
ATOM     34  C   UNL     1      -5.081  11.486  18.107  0.00  0.00    +0.000 A 
ATOM     35  N   UNL     1      -6.106  11.727  17.311  0.00  0.00    +0.000 NA
ATOM     36  N   UNL     1      -6.737  12.865  17.751  0.00  0.00    +0.000 NA
ATOM     37  C   UNL     1      -6.091  13.293  18.809  0.00  0.00    +0.000 A 
ATOM     38  N   UNL     1      -5.041  12.466  19.066  0.00  0.00    +0.000 N 
ATOM     39  C   UNL     1      -4.103  12.620  20.144  0.00  0.00    +0.000 C 
ENDBRANCH  33  34
ENDBRANCH  29  33
ENDBRANCH  27  29
ENDBRANCH   3  23
TORSDOF 8
ENDMDL
MODEL 2
REMARK VINA RESULT:      -8.9      2.956      4.356
REMARK  Name = 
REMARK  10 active torsions:
REMARK  status: ('A' for Active; 'I' for Inactive)
REMARK    1  A    between atoms: C_1  and  C_2
REMARK    2  A    between atoms: C_2  and  C_3
REMARK    3  A    between atoms: C_2  and  N_32
REMARK    4  A    between atoms: C_5  and  C_6
REMARK    5  A    between atoms: N_8  and  C_9
REMARK    6  A    between atoms: C_13  and  C_14
REMARK    7  A    between atoms: C_14  and  C_15
REMARK    8  A    between atoms: C_15  and  C_16
REMARK    9  A    between atoms: N_20  and  C_21
REMARK   10  A    between atoms: C_27  and  C_28
REMARK                            x       y       z     vdW  Elec       q    Type
REMARK                         _______ _______ _______ _____ _____    ______ ____
ROOT
ATOM      1  C   UNL     1       2.190   8.282  18.196  0.00  0.00    +0.000 C 
ATOM      2  O   UNL     1       2.542   8.743  17.115  0.00  0.00    +0.000 OA
ATOM      3  N   UNL     1       1.351   8.878  19.120  0.00  0.00    +0.000 N 
ATOM      4  H   UNL     1       1.256   8.376  20.000  0.00  0.00    +0.000 HD
ENDROOT
BRANCH   1   7
ATOM      5  C   UNL     1       4.129   5.135  18.306  0.00  0.00    +0.000 A 
ATOM      6  C   UNL     1       3.751   6.393  17.913  0.00  0.00    +0.000 A 
ATOM      7  C   UNL     1       2.694   6.937  18.607  0.00  0.00    +0.000 A 
ATOM      8  N   UNL     1       2.038   6.326  19.624  0.00  0.00    +0.000 NA
ATOM      9  C   UNL     1       2.491   5.107  19.965  0.00  0.00    +0.000 A 
ATOM     10  N   UNL     1       3.518   4.501  19.334  0.00  0.00    +0.000 NA
BRANCH   9  11
ATOM     11  C   UNL     1       1.846   4.347  21.095  0.00  0.00    +0.000 C 
ATOM     12  C   UNL     1       1.036   3.095  20.864  0.00  0.00    +0.000 C 
ATOM     13  C   UNL     1       2.403   2.992  21.472  0.00  0.00    +0.000 C 
ENDBRANCH   9  11
BRANCH   5  15
ATOM     14  C   UNL     1       4.805   4.340  16.020  0.00  0.00    +0.000 C 
ATOM     15  C   UNL     1       5.182   4.358  17.512  0.00  0.00    +0.000 C 
BRANCH  15  16
ATOM     16  N   UNL     1       6.550   4.819  17.832  0.00  0.00    +0.000 NA
ATOM     17  C   UNL     1       6.735   5.338  19.205  0.00  0.00    +0.000 C 
ATOM     18  C   UNL     1       7.976   6.219  19.076  0.00  0.00    +0.000 C 
ATOM     19  C   UNL     1       7.636   6.887  17.785  0.00  0.00    +0.000 C 
ATOM     20  C   UNL     1       8.228   8.163  17.236  0.00  0.00    +0.000 C 
ATOM     21  C   UNL     1       6.891   8.202  17.920  0.00  0.00    +0.000 C 
ATOM     22  C   UNL     1       7.101   5.804  16.884  0.00  0.00    +0.000 C 
ENDBRANCH  15  16
ENDBRANCH   5  15
ENDBRANCH   1   7
BRANCH   3  23
ATOM     23  C   UNL     1       0.697  10.120  18.991  0.00  0.00    +0.000 A 
ATOM     24  C   UNL     1      -0.632  10.246  18.592  0.00  0.00    +0.000 A 
ATOM     25  C   UNL     1      -1.213  11.504  18.457  0.00  0.00    +0.000 A 
ATOM     26  C   UNL     1      -0.455  12.650  18.699  0.00  0.00    +0.000 A 
ATOM     27  C   UNL     1       0.898  12.580  19.084  0.00  0.00    +0.000 A 
ATOM     28  C   UNL     1       1.434  11.279  19.266  0.00  0.00    +0.000 A 
BRANCH  27  29
ATOM     29  C   UNL     1       1.782  13.900  19.275  0.00  0.00    +0.000 C 
ATOM     30  C   UNL     1       2.758  14.323  18.138  0.00  0.00    +0.000 C 
ATOM     31  O   UNL     1       2.292  15.700  18.221  0.00  0.00    +0.000 OA
ATOM     32  C   UNL     1       1.083  15.233  18.872  0.00  0.00    +0.000 C 
BRANCH  29  33
ATOM     33  C   UNL     1       2.398  13.987  20.684  0.00  0.00    +0.000 C 
BRANCH  33  34
ATOM     34  C   UNL     1       1.485  14.621  21.678  0.00  0.00    +0.000 A 
ATOM     35  N   UNL     1       0.463  14.036  22.272  0.00  0.00    +0.000 NA
ATOM     36  N   UNL     1      -0.125  14.946  23.117  0.00  0.00    +0.000 NA
ATOM     37  C   UNL     1       0.552  16.065  23.027  0.00  0.00    +0.000 A 
ATOM     38  N   UNL     1       1.566  15.913  22.132  0.00  0.00    +0.000 N 
ATOM     39  C   UNL     1       2.516  16.929  21.768  0.00  0.00    +0.000 C 
ENDBRANCH  33  34
ENDBRANCH  29  33
ENDBRANCH  27  29
ENDBRANCH   3  23
TORSDOF 8
ENDMDL
MODEL 3
REMARK VINA RESULT:      -8.8      2.938      4.243
REMARK  Name = 
REMARK  10 active torsions:
REMARK  status: ('A' for Active; 'I' for Inactive)
REMARK    1  A    between atoms: C_1  and  C_2
REMARK    2  A    between atoms: C_2  and  C_3
REMARK    3  A    between atoms: C_2  and  N_32
REMARK    4  A    between atoms: C_5  and  C_6
REMARK    5  A    between atoms: N_8  and  C_9
REMARK    6  A    between atoms: C_13  and  C_14
REMARK    7  A    between atoms: C_14  and  C_15
REMARK    8  A    between atoms: C_15  and  C_16
REMARK    9  A    between atoms: N_20  and  C_21
REMARK   10  A    between atoms: C_27  and  C_28
REMARK                            x       y       z     vdW  Elec       q    Type
REMARK                         _______ _______ _______ _____ _____    ______ ____
ROOT
ATOM      1  C   UNL     1       1.551   9.310  18.302  0.00  0.00    +0.000 C 
ATOM      2  O   UNL     1       1.769  10.140  17.425  0.00  0.00    +0.000 OA
ATOM      3  N   UNL     1       0.539   9.344  19.245  0.00  0.00    +0.000 N 
ATOM      4  H   UNL     1       0.583   8.609  19.948  0.00  0.00    +0.000 HD
ENDROOT
BRANCH   1   7
ATOM      5  C   UNL     1       4.287   6.899  17.687  0.00  0.00    +0.000 A 
ATOM      6  C   UNL     1       3.540   8.044  17.577  0.00  0.00    +0.000 A 
ATOM      7  C   UNL     1       2.443   8.116  18.406  0.00  0.00    +0.000 A 
ATOM      8  N   UNL     1       2.080   7.160  19.297  0.00  0.00    +0.000 NA
ATOM      9  C   UNL     1       2.883   6.084  19.360  0.00  0.00    +0.000 A 
ATOM     10  N   UNL     1       3.973   5.933  18.581  0.00  0.00    +0.000 NA
BRANCH   9  11
ATOM     11  C   UNL     1       2.582   4.970  20.330  0.00  0.00    +0.000 C 
ATOM     12  C   UNL     1       1.179   4.466  20.566  0.00  0.00    +0.000 C 
ATOM     13  C   UNL     1       2.147   3.628  19.784  0.00  0.00    +0.000 C 
ENDBRANCH   9  11
BRANCH   5  15
ATOM     14  C   UNL     1       6.773   7.041  17.350  0.00  0.00    +0.000 C 
ATOM     15  C   UNL     1       5.435   6.625  16.712  0.00  0.00    +0.000 C 
BRANCH  15  16
ATOM     16  N   UNL     1       5.372   5.250  16.174  0.00  0.00    +0.000 NA
ATOM     17  C   UNL     1       6.544   4.400  16.477  0.00  0.00    +0.000 C 
ATOM     18  C   UNL     1       6.483   3.328  15.391  0.00  0.00    +0.000 C 
ATOM     19  C   UNL     1       6.153   4.211  14.232  0.00  0.00    +0.000 C 
ATOM     20  C   UNL     1       6.313   3.889  12.767  0.00  0.00    +0.000 C 
ATOM     21  C   UNL     1       7.350   4.728  13.457  0.00  0.00    +0.000 C 
ATOM     22  C   UNL     1       5.102   5.171  14.727  0.00  0.00    +0.000 C 
ENDBRANCH  15  16
ENDBRANCH   5  15
ENDBRANCH   1   7
BRANCH   3  23
ATOM     23  C   UNL     1      -0.471  10.319  19.367  0.00  0.00    +0.000 A 
ATOM     24  C   UNL     1      -1.499  10.475  18.439  0.00  0.00    +0.000 A 
ATOM     25  C   UNL     1      -2.452  11.476  18.602  0.00  0.00    +0.000 A 
ATOM     26  C   UNL     1      -2.367  12.348  19.688  0.00  0.00    +0.000 A 
ATOM     27  C   UNL     1      -1.337  12.247  20.643  0.00  0.00    +0.000 A 
ATOM     28  C   UNL     1      -0.421  11.179  20.472  0.00  0.00    +0.000 A 
BRANCH  27  29
ATOM     29  C   UNL     1      -1.199  13.305  21.837  0.00  0.00    +0.000 C 
ATOM     30  C   UNL     1       0.129  14.104  21.985  0.00  0.00    +0.000 C 
ATOM     31  O   UNL     1      -0.612  15.344  22.163  0.00  0.00    +0.000 OA
ATOM     32  C   UNL     1      -1.764  14.726  21.536  0.00  0.00    +0.000 C 
BRANCH  29  33
ATOM     33  C   UNL     1      -1.740  12.750  23.168  0.00  0.00    +0.000 C 
BRANCH  33  34
ATOM     34  C   UNL     1      -3.210  12.949  23.326  0.00  0.00    +0.000 A 
ATOM     35  N   UNL     1      -4.153  12.242  22.733  0.00  0.00    +0.000 NA
ATOM     36  N   UNL     1      -5.374  12.728  23.133  0.00  0.00    +0.000 NA
ATOM     37  C   UNL     1      -5.153  13.717  23.966  0.00  0.00    +0.000 A 
ATOM     38  N   UNL     1      -3.811  13.898  24.112  0.00  0.00    +0.000 N 
ATOM     39  C   UNL     1      -3.190  14.894  24.942  0.00  0.00    +0.000 C 
ENDBRANCH  33  34
ENDBRANCH  29  33
ENDBRANCH  27  29
ENDBRANCH   3  23
TORSDOF 8
ENDMDL
MODEL 4
REMARK VINA RESULT:      -8.7      2.920      4.289
REMARK  Name = 
REMARK  10 active torsions:
REMARK  status: ('A' for Active; 'I' for Inactive)
REMARK    1  A    between atoms: C_1  and  C_2
REMARK    2  A    between atoms: C_2  and  C_3
REMARK    3  A    between atoms: C_2  and  N_32
REMARK    4  A    between atoms: C_5  and  C_6
REMARK    5  A    between atoms: N_8  and  C_9
REMARK    6  A    between atoms: C_13  and  C_14
REMARK    7  A    between atoms: C_14  and  C_15
REMARK    8  A    between atoms: C_15  and  C_16
REMARK    9  A    between atoms: N_20  and  C_21
REMARK   10  A    between atoms: C_27  and  C_28
REMARK                            x       y       z     vdW  Elec       q    Type
REMARK                         _______ _______ _______ _____ _____    ______ ____
ROOT
ATOM      1  C   UNL     1       2.147   8.255  18.064  0.00  0.00    +0.000 C 
ATOM      2  O   UNL     1       2.704   8.874  17.163  0.00  0.00    +0.000 OA
ATOM      3  N   UNL     1       1.120   8.708  18.872  0.00  0.00    +0.000 N 
ATOM      4  H   UNL     1       0.857   8.076  19.626  0.00  0.00    +0.000 HD
ENDROOT
BRANCH   1   7
ATOM      5  C   UNL     1       4.018   5.066  17.990  0.00  0.00    +0.000 A 
ATOM      6  C   UNL     1       3.699   6.371  17.711  0.00  0.00    +0.000 A 
ATOM      7  C   UNL     1       2.587   6.859  18.360  0.00  0.00    +0.000 A 
ATOM      8  N   UNL     1       1.826   6.152  19.232  0.00  0.00    +0.000 NA
ATOM      9  C   UNL     1       2.226   4.890  19.469  0.00  0.00    +0.000 A 
ATOM     10  N   UNL     1       3.300   4.334  18.873  0.00  0.00    +0.000 NA
BRANCH   9  11
ATOM     11  C   UNL     1       1.461   4.023  20.436  0.00  0.00    +0.000 C 
ATOM     12  C   UNL     1       1.821   2.578  20.679  0.00  0.00    +0.000 C 
ATOM     13  C   UNL     1       2.132   3.606  21.726  0.00  0.00    +0.000 C 
ENDBRANCH   9  11
BRANCH   5  15
ATOM     14  C   UNL     1       4.866   4.463  15.702  0.00  0.00    +0.000 C 
ATOM     15  C   UNL     1       5.133   4.358  17.215  0.00  0.00    +0.000 C 
BRANCH  15  16
ATOM     16  N   UNL     1       6.469   4.793  17.670  0.00  0.00    +0.000 NA
ATOM     17  C   UNL     1       6.532   5.277  19.067  0.00  0.00    +0.000 C 
ATOM     18  C   UNL     1       7.790   6.144  19.076  0.00  0.00    +0.000 C 
ATOM     19  C   UNL     1       7.578   6.847  17.776  0.00  0.00    +0.000 C 
ATOM     20  C   UNL     1       8.232   8.127  17.316  0.00  0.00    +0.000 C 
ATOM     21  C   UNL     1       6.838   8.168  17.874  0.00  0.00    +0.000 C 
ATOM     22  C   UNL     1       7.117   5.793  16.803  0.00  0.00    +0.000 C 
ENDBRANCH  15  16
ENDBRANCH   5  15
ENDBRANCH   1   7
BRANCH   3  23
ATOM     23  C   UNL     1       0.476   9.959  18.800  0.00  0.00    +0.000 A 
ATOM     24  C   UNL     1      -0.736  10.159  18.144  0.00  0.00    +0.000 A 
ATOM     25  C   UNL     1      -1.308  11.426  18.085  0.00  0.00    +0.000 A 
ATOM     26  C   UNL     1      -0.653  12.513  18.665  0.00  0.00    +0.000 A 
ATOM     27  C   UNL     1       0.585  12.371  19.323  0.00  0.00    +0.000 A 
ATOM     28  C   UNL     1       1.104  11.054  19.410  0.00  0.00    +0.000 A 
BRANCH  27  29
ATOM     29  C   UNL     1       1.370  13.637  19.910  0.00  0.00    +0.000 C 
ATOM     30  C   UNL     1       0.876  14.278  21.240  0.00  0.00    +0.000 C 
ATOM     31  O   UNL     1       2.239  14.319  21.750  0.00  0.00    +0.000 OA
ATOM     32  C   UNL     1       2.612  13.301  20.788  0.00  0.00    +0.000 C 
BRANCH  29  33
ATOM     33  C   UNL     1       1.711  14.665  18.815  0.00  0.00    +0.000 C 
BRANCH  33  34
ATOM     34  C   UNL     1       0.917  15.922  18.932  0.00  0.00    +0.000 A 
ATOM     35  N   UNL     1      -0.339  16.081  18.560  0.00  0.00    +0.000 NA
ATOM     36  N   UNL     1      -0.710  17.375  18.833  0.00  0.00    +0.000 NA
ATOM     37  C   UNL     1       0.322  17.979  19.370  0.00  0.00    +0.000 A 
ATOM     38  N   UNL     1       1.368  17.111  19.447  0.00  0.00    +0.000 N 
ATOM     39  C   UNL     1       2.669  17.418  19.975  0.00  0.00    +0.000 C 
ENDBRANCH  33  34
ENDBRANCH  29  33
ENDBRANCH  27  29
ENDBRANCH   3  23
TORSDOF 8
ENDMDL
MODEL 5
REMARK VINA RESULT:      -8.7      3.029      4.766
REMARK  Name = 
REMARK  10 active torsions:
REMARK  status: ('A' for Active; 'I' for Inactive)
REMARK    1  A    between atoms: C_1  and  C_2
REMARK    2  A    between atoms: C_2  and  C_3
REMARK    3  A    between atoms: C_2  and  N_32
REMARK    4  A    between atoms: C_5  and  C_6
REMARK    5  A    between atoms: N_8  and  C_9
REMARK    6  A    between atoms: C_13  and  C_14
REMARK    7  A    between atoms: C_14  and  C_15
REMARK    8  A    between atoms: C_15  and  C_16
REMARK    9  A    between atoms: N_20  and  C_21
REMARK   10  A    between atoms: C_27  and  C_28
REMARK                            x       y       z     vdW  Elec       q    Type
REMARK                         _______ _______ _______ _____ _____    ______ ____
ROOT
ATOM      1  C   UNL     1       2.144   8.403  18.144  0.00  0.00    +0.000 C 
ATOM      2  O   UNL     1       2.486   8.921  17.086  0.00  0.00    +0.000 OA
ATOM      3  N   UNL     1       1.236   8.905  19.060  0.00  0.00    +0.000 N 
ATOM      4  H   UNL     1       1.159   8.371  19.923  0.00  0.00    +0.000 HD
ENDROOT
BRANCH   1   7
ATOM      5  C   UNL     1       4.268   5.376  18.174  0.00  0.00    +0.000 A 
ATOM      6  C   UNL     1       3.801   6.610  17.797  0.00  0.00    +0.000 A 
ATOM      7  C   UNL     1       2.741   7.090  18.532  0.00  0.00    +0.000 A 
ATOM      8  N   UNL     1       2.161   6.440  19.572  0.00  0.00    +0.000 NA
ATOM      9  C   UNL     1       2.698   5.250  19.892  0.00  0.00    +0.000 A 
ATOM     10  N   UNL     1       3.734   4.706  19.222  0.00  0.00    +0.000 NA
BRANCH   9  11
ATOM     11  C   UNL     1       2.142   4.453  21.044  0.00  0.00    +0.000 C 
ATOM     12  C   UNL     1       0.940   3.553  20.894  0.00  0.00    +0.000 C 
ATOM     13  C   UNL     1       2.307   2.949  21.034  0.00  0.00    +0.000 C 
ENDBRANCH   9  11
BRANCH   5  15
ATOM     14  C   UNL     1       4.966   4.735  15.845  0.00  0.00    +0.000 C 
ATOM     15  C   UNL     1       5.335   4.663  17.339  0.00  0.00    +0.000 C 
BRANCH  15  16
ATOM     16  N   UNL     1       6.695   5.119  17.694  0.00  0.00    +0.000 NA
ATOM     17  C   UNL     1       6.869   5.542  19.101  0.00  0.00    +0.000 C 
ATOM     18  C   UNL     1       8.099   6.446  19.040  0.00  0.00    +0.000 C 
ATOM     19  C   UNL     1       7.752   7.200  17.799  0.00  0.00    +0.000 C 
ATOM     20  C   UNL     1       8.327   8.520  17.343  0.00  0.00    +0.000 C 
ATOM     21  C   UNL     1       6.988   8.491  18.023  0.00  0.00    +0.000 C 
ATOM     22  C   UNL     1       7.234   6.177  16.821  0.00  0.00    +0.000 C 
ENDBRANCH  15  16
ENDBRANCH   5  15
ENDBRANCH   1   7
BRANCH   3  23
ATOM     23  C   UNL     1       0.490  10.094  18.947  0.00  0.00    +0.000 A 
ATOM     24  C   UNL     1      -0.644  10.212  18.146  0.00  0.00    +0.000 A 
ATOM     25  C   UNL     1      -1.322  11.424  18.055  0.00  0.00    +0.000 A 
ATOM     26  C   UNL     1      -0.852  12.539  18.750  0.00  0.00    +0.000 A 
ATOM     27  C   UNL     1       0.301  12.480  19.557  0.00  0.00    +0.000 A 
ATOM     28  C   UNL     1       0.928  11.213  19.668  0.00  0.00    +0.000 A 
BRANCH  27  29
ATOM     29  C   UNL     1       0.881  13.784  20.281  0.00  0.00    +0.000 C 
ATOM     30  C   UNL     1       0.501  14.052  21.767  0.00  0.00    +0.000 C 
ATOM     31  O   UNL     1       1.890  14.344  22.091  0.00  0.00    +0.000 OA
ATOM     32  C   UNL     1       2.302  13.625  20.902  0.00  0.00    +0.000 C 
BRANCH  29  33
ATOM     33  C   UNL     1       0.792  15.033  19.384  0.00  0.00    +0.000 C 
BRANCH  33  34
ATOM     34  C   UNL     1       2.105  15.416  18.789  0.00  0.00    +0.000 A 
ATOM     35  N   UNL     1       2.714  14.795  17.797  0.00  0.00    +0.000 NA
ATOM     36  N   UNL     1       3.894  15.449  17.537  0.00  0.00    +0.000 NA
ATOM     37  C   UNL     1       3.980  16.458  18.370  0.00  0.00    +0.000 A 
ATOM     38  N   UNL     1       2.885  16.474  19.180  0.00  0.00    +0.000 N 
ATOM     39  C   UNL     1       2.633  17.431  20.221  0.00  0.00    +0.000 C 
ENDBRANCH  33  34
ENDBRANCH  29  33
ENDBRANCH  27  29
ENDBRANCH   3  23
TORSDOF 8
ENDMDL
MODEL 6
REMARK VINA RESULT:      -8.7      3.476      9.558
REMARK  Name = 
REMARK  10 active torsions:
REMARK  status: ('A' for Active; 'I' for Inactive)
REMARK    1  A    between atoms: C_1  and  C_2
REMARK    2  A    between atoms: C_2  and  C_3
REMARK    3  A    between atoms: C_2  and  N_32
REMARK    4  A    between atoms: C_5  and  C_6
REMARK    5  A    between atoms: N_8  and  C_9
REMARK    6  A    between atoms: C_13  and  C_14
REMARK    7  A    between atoms: C_14  and  C_15
REMARK    8  A    between atoms: C_15  and  C_16
REMARK    9  A    between atoms: N_20  and  C_21
REMARK   10  A    between atoms: C_27  and  C_28
REMARK                            x       y       z     vdW  Elec       q    Type
REMARK                         _______ _______ _______ _____ _____    ______ ____
ROOT
ATOM      1  C   UNL     1       2.431   7.843  18.391  0.00  0.00    +0.000 C 
ATOM      2  O   UNL     1       3.263   8.146  17.541  0.00  0.00    +0.000 OA
ATOM      3  N   UNL     1       2.116   6.568  18.828  0.00  0.00    +0.000 N 
ATOM      4  H   UNL     1       1.330   6.518  19.472  0.00  0.00    +0.000 HD
ENDROOT
BRANCH   1   7
ATOM      5  C   UNL     1       0.971  11.146  19.184  0.00  0.00    +0.000 A 
ATOM      6  C   UNL     1       1.668  10.186  18.496  0.00  0.00    +0.000 A 
ATOM      7  C   UNL     1       1.648   8.928  19.055  0.00  0.00    +0.000 A 
ATOM      8  N   UNL     1       0.995   8.596  20.196  0.00  0.00    +0.000 NA
ATOM      9  C   UNL     1       0.314   9.591  20.791  0.00  0.00    +0.000 A 
ATOM     10  N   UNL     1       0.285  10.852  20.313  0.00  0.00    +0.000 NA
BRANCH   9  11
ATOM     11  C   UNL     1      -0.462   9.327  22.056  0.00  0.00    +0.000 C 
ATOM     12  C   UNL     1       0.164   9.446  23.424  0.00  0.00    +0.000 C 
ATOM     13  C   UNL     1      -0.804  10.494  22.957  0.00  0.00    +0.000 C 
ENDBRANCH   9  11
BRANCH   5  15
ATOM     14  C   UNL     1      -0.129  13.399  19.367  0.00  0.00    +0.000 C 
ATOM     15  C   UNL     1       1.047  12.615  18.757  0.00  0.00    +0.000 C 
BRANCH  15  16
ATOM     16  N   UNL     1       2.393  13.177  18.991  0.00  0.00    +0.000 NA
ATOM     17  C   UNL     1       2.648  13.650  20.369  0.00  0.00    +0.000 C 
ATOM     18  C   UNL     1       3.798  14.638  20.188  0.00  0.00    +0.000 C 
ATOM     19  C   UNL     1       3.300  15.330  18.963  0.00  0.00    +0.000 C 
ATOM     20  C   UNL     1       3.738  16.674  18.433  0.00  0.00    +0.000 C 
ATOM     21  C   UNL     1       2.463  16.569  19.221  0.00  0.00    +0.000 C 
ATOM     22  C   UNL     1       2.783  14.246  18.054  0.00  0.00    +0.000 C 
ENDBRANCH  15  16
ENDBRANCH   5  15
ENDBRANCH   1   7
BRANCH   3  23
ATOM     23  C   UNL     1       2.713   5.361  18.415  0.00  0.00    +0.000 A 
ATOM     24  C   UNL     1       2.319   4.112  18.888  0.00  0.00    +0.000 A 
ATOM     25  C   UNL     1       2.968   2.957  18.462  0.00  0.00    +0.000 A 
ATOM     26  C   UNL     1       4.039   3.048  17.573  0.00  0.00    +0.000 A 
ATOM     27  C   UNL     1       4.492   4.287  17.079  0.00  0.00    +0.000 A 
ATOM     28  C   UNL     1       3.767   5.434  17.493  0.00  0.00    +0.000 A 
BRANCH  27  29
ATOM     29  C   UNL     1       5.775   4.389  16.127  0.00  0.00    +0.000 C 
ATOM     30  C   UNL     1       5.861   3.463  14.878  0.00  0.00    +0.000 C 
ATOM     31  O   UNL     1       6.263   4.589  14.046  0.00  0.00    +0.000 OA
ATOM     32  C   UNL     1       5.705   5.495  15.031  0.00  0.00    +0.000 C 
BRANCH  29  33
ATOM     33  C   UNL     1       7.087   4.469  16.931  0.00  0.00    +0.000 C 
BRANCH  33  34
ATOM     34  C   UNL     1       7.449   5.865  17.314  0.00  0.00    +0.000 A 
ATOM     35  N   UNL     1       7.538   6.893  16.492  0.00  0.00    +0.000 NA
ATOM     36  N   UNL     1       7.891   8.001  17.223  0.00  0.00    +0.000 NA
ATOM     37  C   UNL     1       8.005   7.630  18.476  0.00  0.00    +0.000 A 
ATOM     38  N   UNL     1       7.744   6.298  18.581  0.00  0.00    +0.000 N 
ATOM     39  C   UNL     1       7.777   5.536  19.800  0.00  0.00    +0.000 C 
ENDBRANCH  33  34
ENDBRANCH  29  33
ENDBRANCH  27  29
ENDBRANCH   3  23
TORSDOF 8
ENDMDL
MODEL 7
REMARK VINA RESULT:      -8.6      2.652      4.112
REMARK  Name = 
REMARK  10 active torsions:
REMARK  status: ('A' for Active; 'I' for Inactive)
REMARK    1  A    between atoms: C_1  and  C_2
REMARK    2  A    between atoms: C_2  and  C_3
REMARK    3  A    between atoms: C_2  and  N_32
REMARK    4  A    between atoms: C_5  and  C_6
REMARK    5  A    between atoms: N_8  and  C_9
REMARK    6  A    between atoms: C_13  and  C_14
REMARK    7  A    between atoms: C_14  and  C_15
REMARK    8  A    between atoms: C_15  and  C_16
REMARK    9  A    between atoms: N_20  and  C_21
REMARK   10  A    between atoms: C_27  and  C_28
REMARK                            x       y       z     vdW  Elec       q    Type
REMARK                         _______ _______ _______ _____ _____    ______ ____
ROOT
ATOM      1  C   UNL     1       1.540   8.662  19.535  0.00  0.00    +0.000 C 
ATOM      2  O   UNL     1       1.195   9.455  18.664  0.00  0.00    +0.000 OA
ATOM      3  N   UNL     1       1.286   8.756  20.892  0.00  0.00    +0.000 N 
ATOM      4  H   UNL     1       1.739   8.045  21.462  0.00  0.00    +0.000 HD
ENDROOT
BRANCH   1   7
ATOM      5  C   UNL     1       3.950   6.426  17.842  0.00  0.00    +0.000 A 
ATOM      6  C   UNL     1       3.311   7.587  18.197  0.00  0.00    +0.000 A 
ATOM      7  C   UNL     1       2.318   7.450  19.141  0.00  0.00    +0.000 A 
ATOM      8  N   UNL     1       1.958   6.279  19.722  0.00  0.00    +0.000 NA
ATOM      9  C   UNL     1       2.655   5.195  19.338  0.00  0.00    +0.000 A 
ATOM     10  N   UNL     1       3.639   5.242  18.418  0.00  0.00    +0.000 NA
BRANCH   9  11
ATOM     11  C   UNL     1       2.348   3.847  19.937  0.00  0.00    +0.000 C 
ATOM     12  C   UNL     1       1.133   3.605  20.798  0.00  0.00    +0.000 C 
ATOM     13  C   UNL     1       1.172   3.062  19.399  0.00  0.00    +0.000 C 
ENDBRANCH   9  11
BRANCH   5  15
ATOM     14  C   UNL     1       6.216   7.215  17.090  0.00  0.00    +0.000 C 
ATOM     15  C   UNL     1       4.960   6.418  16.691  0.00  0.00    +0.000 C 
BRANCH  15  16
ATOM     16  N   UNL     1       5.193   5.049  16.186  0.00  0.00    +0.000 NA
ATOM     17  C   UNL     1       6.522   4.479  16.500  0.00  0.00    +0.000 C 
ATOM     18  C   UNL     1       6.691   3.393  15.440  0.00  0.00    +0.000 C 
ATOM     19  C   UNL     1       6.175   4.154  14.264  0.00  0.00    +0.000 C 
ATOM     20  C   UNL     1       6.397   3.838  12.805  0.00  0.00    +0.000 C 
ATOM     21  C   UNL     1       7.230   4.898  13.467  0.00  0.00    +0.000 C 
ATOM     22  C   UNL     1       4.943   4.877  14.744  0.00  0.00    +0.000 C 
ENDBRANCH  15  16
ENDBRANCH   5  15
ENDBRANCH   1   7
BRANCH   3  23
ATOM     23  C   UNL     1       0.548   9.761  21.547  0.00  0.00    +0.000 A 
ATOM     24  C   UNL     1      -0.368   9.497  22.563  0.00  0.00    +0.000 A 
ATOM     25  C   UNL     1      -1.088  10.532  23.152  0.00  0.00    +0.000 A 
ATOM     26  C   UNL     1      -0.912  11.843  22.708  0.00  0.00    +0.000 A 
ATOM     27  C   UNL     1      -0.015  12.162  21.671  0.00  0.00    +0.000 A 
ATOM     28  C   UNL     1       0.740  11.087  21.137  0.00  0.00    +0.000 A 
BRANCH  27  29
ATOM     29  C   UNL     1       0.116  13.656  21.110  0.00  0.00    +0.000 C 
ATOM     30  C   UNL     1       0.688  14.763  22.044  0.00  0.00    +0.000 C 
ATOM     31  O   UNL     1       1.561  15.239  20.979  0.00  0.00    +0.000 OA
ATOM     32  C   UNL     1       1.423  13.957  20.317  0.00  0.00    +0.000 C 
BRANCH  29  33
ATOM     33  C   UNL     1      -1.136  14.093  20.326  0.00  0.00    +0.000 C 
BRANCH  33  34
ATOM     34  C   UNL     1      -1.638  13.036  19.401  0.00  0.00    +0.000 A 
ATOM     35  N   UNL     1      -1.002  12.569  18.344  0.00  0.00    +0.000 NA
ATOM     36  N   UNL     1      -1.789  11.609  17.755  0.00  0.00    +0.000 NA
ATOM     37  C   UNL     1      -2.886  11.504  18.466  0.00  0.00    +0.000 A 
ATOM     38  N   UNL     1      -2.841  12.385  19.504  0.00  0.00    +0.000 N 
ATOM     39  C   UNL     1      -3.869  12.560  20.493  0.00  0.00    +0.000 C 
ENDBRANCH  33  34
ENDBRANCH  29  33
ENDBRANCH  27  29
ENDBRANCH   3  23
TORSDOF 8
ENDMDL
MODEL 8
REMARK VINA RESULT:      -8.6      2.572     10.707
REMARK  Name = 
REMARK  10 active torsions:
REMARK  status: ('A' for Active; 'I' for Inactive)
REMARK    1  A    between atoms: C_1  and  C_2
REMARK    2  A    between atoms: C_2  and  C_3
REMARK    3  A    between atoms: C_2  and  N_32
REMARK    4  A    between atoms: C_5  and  C_6
REMARK    5  A    between atoms: N_8  and  C_9
REMARK    6  A    between atoms: C_13  and  C_14
REMARK    7  A    between atoms: C_14  and  C_15
REMARK    8  A    between atoms: C_15  and  C_16
REMARK    9  A    between atoms: N_20  and  C_21
REMARK   10  A    between atoms: C_27  and  C_28
REMARK                            x       y       z     vdW  Elec       q    Type
REMARK                         _______ _______ _______ _____ _____    ______ ____
ROOT
ATOM      1  C   UNL     1       1.586   8.380  19.366  0.00  0.00    +0.000 C 
ATOM      2  O   UNL     1       1.462   7.750  20.412  0.00  0.00    +0.000 OA
ATOM      3  N   UNL     1       2.087   7.907  18.166  0.00  0.00    +0.000 N 
ATOM      4  H   UNL     1       2.197   8.612  17.440  0.00  0.00    +0.000 HD
ENDROOT
BRANCH   1   7
ATOM      5  C   UNL     1      -0.439  11.460  19.662  0.00  0.00    +0.000 A 
ATOM      6  C   UNL     1      -0.099  10.135  19.770  0.00  0.00    +0.000 A 
ATOM      7  C   UNL     1       1.166   9.813  19.331  0.00  0.00    +0.000 A 
ATOM      8  N   UNL     1       2.061  10.698  18.826  0.00  0.00    +0.000 NA
ATOM      9  C   UNL     1       1.656  11.979  18.783  0.00  0.00    +0.000 A 
ATOM     10  N   UNL     1       0.434  12.379  19.188  0.00  0.00    +0.000 NA
BRANCH   9  11
ATOM     11  C   UNL     1       2.580  13.048  18.257  0.00  0.00    +0.000 C 
ATOM     12  C   UNL     1       2.230  14.514  18.317  0.00  0.00    +0.000 C 
ATOM     13  C   UNL     1       3.271  13.962  19.245  0.00  0.00    +0.000 C 
ENDBRANCH   9  11
BRANCH   5  15
ATOM     14  C   UNL     1      -1.843  13.060  20.999  0.00  0.00    +0.000 C 
ATOM     15  C   UNL     1      -1.868  11.920  19.964  0.00  0.00    +0.000 C 
BRANCH  15  16
ATOM     16  N   UNL     1      -2.625  12.186  18.723  0.00  0.00    +0.000 NA
ATOM     17  C   UNL     1      -4.008  11.661  18.703  0.00  0.00    +0.000 C 
ATOM     18  C   UNL     1      -4.320  11.565  17.211  0.00  0.00    +0.000 C 
ATOM     19  C   UNL     1      -3.019  10.992  16.754  0.00  0.00    +0.000 C 
ATOM     20  C   UNL     1      -2.744  10.283  15.449  0.00  0.00    +0.000 C 
ATOM     21  C   UNL     1      -2.970   9.477  16.697  0.00  0.00    +0.000 C 
ATOM     22  C   UNL     1      -1.947  11.755  17.487  0.00  0.00    +0.000 C 
ENDBRANCH  15  16
ENDBRANCH   5  15
ENDBRANCH   1   7
BRANCH   3  23
ATOM     23  C   UNL     1       2.522   6.596  17.888  0.00  0.00    +0.000 A 
ATOM     24  C   UNL     1       1.708   5.475  18.031  0.00  0.00    +0.000 A 
ATOM     25  C   UNL     1       2.205   4.202  17.767  0.00  0.00    +0.000 A 
ATOM     26  C   UNL     1       3.536   4.041  17.380  0.00  0.00    +0.000 A 
ATOM     27  C   UNL     1       4.407   5.139  17.240  0.00  0.00    +0.000 A 
ATOM     28  C   UNL     1       3.846   6.422  17.463  0.00  0.00    +0.000 A 
BRANCH  27  29
ATOM     29  C   UNL     1       5.954   4.937  16.880  0.00  0.00    +0.000 C 
ATOM     30  C   UNL     1       6.874   6.190  16.781  0.00  0.00    +0.000 C 
ATOM     31  O   UNL     1       7.894   5.530  17.584  0.00  0.00    +0.000 OA
ATOM     32  C   UNL     1       6.884   4.621  18.090  0.00  0.00    +0.000 C 
BRANCH  29  33
ATOM     33  C   UNL     1       6.155   3.929  15.733  0.00  0.00    +0.000 C 
BRANCH  33  34
ATOM     34  C   UNL     1       6.848   4.522  14.553  0.00  0.00    +0.000 A 
ATOM     35  N   UNL     1       7.811   5.423  14.595  0.00  0.00    +0.000 NA
ATOM     36  N   UNL     1       8.188   5.713  13.307  0.00  0.00    +0.000 NA
ATOM     37  C   UNL     1       7.453   4.982  12.504  0.00  0.00    +0.000 A 
ATOM     38  N   UNL     1       6.592   4.224  13.239  0.00  0.00    +0.000 N 
ATOM     39  C   UNL     1       5.628   3.303  12.704  0.00  0.00    +0.000 C 
ENDBRANCH  33  34
ENDBRANCH  29  33
ENDBRANCH  27  29
ENDBRANCH   3  23
TORSDOF 8
ENDMDL
MODEL 9
REMARK VINA RESULT:      -8.6      0.880      1.329
REMARK  Name = 
REMARK  10 active torsions:
REMARK  status: ('A' for Active; 'I' for Inactive)
REMARK    1  A    between atoms: C_1  and  C_2
REMARK    2  A    between atoms: C_2  and  C_3
REMARK    3  A    between atoms: C_2  and  N_32
REMARK    4  A    between atoms: C_5  and  C_6
REMARK    5  A    between atoms: N_8  and  C_9
REMARK    6  A    between atoms: C_13  and  C_14
REMARK    7  A    between atoms: C_14  and  C_15
REMARK    8  A    between atoms: C_15  and  C_16
REMARK    9  A    between atoms: N_20  and  C_21
REMARK   10  A    between atoms: C_27  and  C_28
REMARK                            x       y       z     vdW  Elec       q    Type
REMARK                         _______ _______ _______ _____ _____    ______ ____
ROOT
ATOM      1  C   UNL     1       2.136   8.222  18.425  0.00  0.00    +0.000 C 
ATOM      2  O   UNL     1       2.482   8.741  17.369  0.00  0.00    +0.000 OA
ATOM      3  N   UNL     1       1.275   8.753  19.369  0.00  0.00    +0.000 N 
ATOM      4  H   UNL     1       1.188   8.208  20.225  0.00  0.00    +0.000 HD
ENDROOT
BRANCH   1   7
ATOM      5  C   UNL     1       4.131   5.108  18.382  0.00  0.00    +0.000 A 
ATOM      6  C   UNL     1       3.722   6.373  18.042  0.00  0.00    +0.000 A 
ATOM      7  C   UNL     1       2.671   6.872  18.777  0.00  0.00    +0.000 A 
ATOM      8  N   UNL     1       2.048   6.213  19.785  0.00  0.00    +0.000 NA
ATOM      9  C   UNL     1       2.530   4.991  20.072  0.00  0.00    +0.000 A 
ATOM     10  N   UNL     1       3.553   4.427  19.399  0.00  0.00    +0.000 NA
BRANCH   9  11
ATOM     11  C   UNL     1       1.922   4.180  21.187  0.00  0.00    +0.000 C 
ATOM     12  C   UNL     1       1.197   2.881  20.935  0.00  0.00    +0.000 C 
ATOM     13  C   UNL     1       2.562   2.861  21.559  0.00  0.00    +0.000 C 
ENDBRANCH   9  11
BRANCH   5  15
ATOM     14  C   UNL     1       4.769   4.403  16.056  0.00  0.00    +0.000 C 
ATOM     15  C   UNL     1       5.180   4.380  17.539  0.00  0.00    +0.000 C 
BRANCH  15  16
ATOM     16  N   UNL     1       6.546   4.859  17.842  0.00  0.00    +0.000 NA
ATOM     17  C   UNL     1       6.740   5.383  19.212  0.00  0.00    +0.000 C 
ATOM     18  C   UNL     1       7.969   6.279  19.067  0.00  0.00    +0.000 C 
ATOM     19  C   UNL     1       7.605   6.940  17.779  0.00  0.00    +0.000 C 
ATOM     20  C   UNL     1       8.175   8.222  17.220  0.00  0.00    +0.000 C 
ATOM     21  C   UNL     1       6.845   8.245  17.919  0.00  0.00    +0.000 C 
ATOM     22  C   UNL     1       7.074   5.849  16.887  0.00  0.00    +0.000 C 
ENDBRANCH  15  16
ENDBRANCH   5  15
ENDBRANCH   1   7
BRANCH   3  23
ATOM     23  C   UNL     1       0.590   9.982  19.293  0.00  0.00    +0.000 A 
ATOM     24  C   UNL     1       1.014  11.135  19.948  0.00  0.00    +0.000 A 
ATOM     25  C   UNL     1       0.278  12.312  19.856  0.00  0.00    +0.000 A 
ATOM     26  C   UNL     1      -0.909  12.335  19.122  0.00  0.00    +0.000 A 
ATOM     27  C   UNL     1      -1.394  11.192  18.458  0.00  0.00    +0.000 A 
ATOM     28  C   UNL     1      -0.584  10.030  18.530  0.00  0.00    +0.000 A 
BRANCH  27  29
ATOM     29  C   UNL     1      -2.800  11.205  17.691  0.00  0.00    +0.000 C 
ATOM     30  C   UNL     1      -2.834  10.842  16.177  0.00  0.00    +0.000 C 
ATOM     31  O   UNL     1      -3.972   9.960  16.394  0.00  0.00    +0.000 OA
ATOM     32  C   UNL     1      -3.629   9.890  17.801  0.00  0.00    +0.000 C 
BRANCH  29  33
ATOM     33  C   UNL     1      -3.645  12.441  18.052  0.00  0.00    +0.000 C 
BRANCH  33  34
ATOM     34  C   UNL     1      -4.534  12.212  19.228  0.00  0.00    +0.000 A 
ATOM     35  N   UNL     1      -4.179  12.307  20.495  0.00  0.00    +0.000 NA
ATOM     36  N   UNL     1      -5.276  12.027  21.273  0.00  0.00    +0.000 NA
ATOM     37  C   UNL     1      -6.279  11.773  20.468  0.00  0.00    +0.000 A 
ATOM     38  N   UNL     1      -5.861  11.869  19.175  0.00  0.00    +0.000 N 
ATOM     39  C   UNL     1      -6.682  11.654  18.016  0.00  0.00    +0.000 C 
ENDBRANCH  33  34
ENDBRANCH  29  33
ENDBRANCH  27  29
ENDBRANCH   3  23
TORSDOF 8
ENDMDL
