MODEL 1
REMARK VINA RESULT:      -9.6      0.000      0.000
REMARK  Name = 
REMARK  8 active torsions:
REMARK  status: ('A' for Active; 'I' for Inactive)
REMARK    1  A    between atoms: C_1  and  N_2
REMARK    2  A    between atoms: C_6  and  C_7
REMARK    3  A    between atoms: C_7  and  C_9
REMARK    4  A    between atoms: C_9  and  C_10
REMARK    5  A    between atoms: C_14  and  N_15
REMARK    6  A    between atoms: C_20  and  C_21
REMARK    7  A    between atoms: C_21  and  N_22
REMARK    8  A    between atoms: C_28  and  C_29
REMARK                            x       y       z     vdW  Elec       q    Type
REMARK                         _______ _______ _______ _____ _____    ______ ____
ROOT
ATOM      1  N   UNL     1       1.328   8.502  20.197  0.00  0.00    +0.000 N 
ATOM      2  C   UNL     1       1.568   7.119  20.534  0.00  0.00    +0.000 C 
ATOM      3  C   UNL     1       2.438   6.615  19.453  0.00  0.00    +0.000 A 
ATOM      4  C   UNL     1       2.682   7.620  18.528  0.00  0.00    +0.000 A 
ATOM      5  C   UNL     1       3.480   7.371  17.419  0.00  0.00    +0.000 A 
ATOM      6  C   UNL     1       4.089   6.097  17.303  0.00  0.00    +0.000 A 
ATOM      7  C   UNL     1       3.844   5.116  18.294  0.00  0.00    +0.000 A 
ATOM      8  C   UNL     1       2.957   5.334  19.344  0.00  0.00    +0.000 A 
ATOM      9  C   UNL     1       1.944   8.837  18.982  0.00  0.00    +0.000 C 
ATOM     10  O   UNL     1       1.917   9.878  18.353  0.00  0.00    +0.000 OA
ENDROOT
BRANCH   1  15
ATOM     11  C   UNL     1      -0.982  11.293  21.167  0.00  0.00    +0.000 A 
ATOM     12  C   UNL     1      -1.087  11.066  22.543  0.00  0.00    +0.000 A 
ATOM     13  C   UNL     1      -0.428   9.987  23.156  0.00  0.00    +0.000 A 
ATOM     14  C   UNL     1       0.375   9.106  22.416  0.00  0.00    +0.000 A 
ATOM     15  C   UNL     1       0.485   9.273  21.042  0.00  0.00    +0.000 A 
ATOM     16  C   UNL     1      -0.246  10.329  20.455  0.00  0.00    +0.000 A 
BRANCH  11  17
ATOM     17  C   UNL     1      -1.456  12.642  20.402  0.00  0.00    +0.000 C 
ATOM     18  C   UNL     1      -1.718  13.933  21.209  0.00  0.00    +0.000 C 
ATOM     19  O   UNL     1      -3.154  13.704  21.174  0.00  0.00    +0.000 OA
ATOM     20  C   UNL     1      -2.973  12.773  20.080  0.00  0.00    +0.000 C 
BRANCH  17  21
ATOM     21  C   UNL     1      -0.607  12.802  19.128  0.00  0.00    +0.000 C 
ATOM     22  F   UNL     1      -1.424  12.754  18.036  0.00  0.00    +0.000 F 
BRANCH  21  28
ATOM     23  C   UNL     1       2.198  13.277  20.439  0.00  0.00    +0.000 C 
ATOM     24  N   UNL     1       1.430  14.228  19.687  0.00  0.00    +0.000 N 
ATOM     25  C   UNL     1       1.796  15.514  19.432  0.00  0.00    +0.000 A 
ATOM     26  N   UNL     1       0.828  16.126  18.793  0.00  0.00    +0.000 NA
ATOM     27  N   UNL     1      -0.183  15.216  18.597  0.00  0.00    +0.000 NA
ATOM     28  C   UNL     1       0.190  14.062  19.116  0.00  0.00    +0.000 A 
ENDBRANCH  21  28
ENDBRANCH  17  21
ENDBRANCH  11  17
ENDBRANCH   1  15
BRANCH   8  29
ATOM     29  C   UNL     1       2.582   4.214  20.277  0.00  0.00    +0.000 C 
ATOM     30  F   UNL     1       1.314   3.751  20.085  0.00  0.00    +0.000 F 
ATOM     31  F   UNL     1       3.390   3.129  20.122  0.00  0.00    +0.000 F 
ATOM     32  F   UNL     1       2.655   4.568  21.585  0.00  0.00    +0.000 F 
ENDBRANCH   8  29
BRANCH   6  33
ATOM     33  C   UNL     1       5.002   5.729  16.147  0.00  0.00    +0.000 C 
BRANCH  33  34
ATOM     34  N   UNL     1       6.434   6.010  16.289  0.00  0.00    +0.000 NA
ATOM     35  C   UNL     1       7.296   4.833  16.363  0.00  0.00    +0.000 C 
ATOM     36  C   UNL     1       7.597   4.654  17.838  0.00  0.00    +0.000 C 
ATOM     37  C   UNL     1       7.623   6.072  18.380  0.00  0.00    +0.000 C 
ATOM     38  C   UNL     1       6.841   6.907  17.369  0.00  0.00    +0.000 C 
ENDBRANCH  33  34
ENDBRANCH   6  33
TORSDOF 7
ENDMDL
MODEL 2
REMARK VINA RESULT:      -9.6      3.192      9.204
REMARK  Name = 
REMARK  8 active torsions:
REMARK  status: ('A' for Active; 'I' for Inactive)
REMARK    1  A    between atoms: C_1  and  N_2
REMARK    2  A    between atoms: C_6  and  C_7
REMARK    3  A    between atoms: C_7  and  C_9
REMARK    4  A    between atoms: C_9  and  C_10
REMARK    5  A    between atoms: C_14  and  N_15
REMARK    6  A    between atoms: C_20  and  C_21
REMARK    7  A    between atoms: C_21  and  N_22
REMARK    8  A    between atoms: C_28  and  C_29
REMARK                            x       y       z     vdW  Elec       q    Type
REMARK                         _______ _______ _______ _____ _____    ______ ____
ROOT
ATOM      1  N   UNL     1       2.226   7.292  19.455  0.00  0.00    +0.000 N 
ATOM      2  C   UNL     1       1.538   7.750  20.638  0.00  0.00    +0.000 C 
ATOM      3  C   UNL     1       0.781   8.938  20.195  0.00  0.00    +0.000 A 
ATOM      4  C   UNL     1       1.017   9.183  18.850  0.00  0.00    +0.000 A 
ATOM      5  C   UNL     1       0.406  10.256  18.217  0.00  0.00    +0.000 A 
ATOM      6  C   UNL     1      -0.510  11.041  18.959  0.00  0.00    +0.000 A 
ATOM      7  C   UNL     1      -0.750  10.729  20.319  0.00  0.00    +0.000 A 
ATOM      8  C   UNL     1      -0.055   9.720  20.978  0.00  0.00    +0.000 A 
ATOM      9  C   UNL     1       1.974   8.142  18.366  0.00  0.00    +0.000 C 
ATOM     10  O   UNL     1       2.418   8.114  17.235  0.00  0.00    +0.000 OA
ENDROOT
BRANCH   1  15
ATOM     11  C   UNL     1       5.358   5.271  19.049  0.00  0.00    +0.000 A 
ATOM     12  C   UNL     1       4.907   4.017  19.474  0.00  0.00    +0.000 A 
ATOM     13  C   UNL     1       3.587   3.832  19.921  0.00  0.00    +0.000 A 
ATOM     14  C   UNL     1       2.667   4.891  19.940  0.00  0.00    +0.000 A 
ATOM     15  C   UNL     1       3.079   6.161  19.556  0.00  0.00    +0.000 A 
ATOM     16  C   UNL     1       4.430   6.319  19.177  0.00  0.00    +0.000 A 
BRANCH  11  17
ATOM     17  C   UNL     1       6.749   5.546  18.260  0.00  0.00    +0.000 C 
ATOM     18  C   UNL     1       7.780   4.406  18.096  0.00  0.00    +0.000 C 
ATOM     19  O   UNL     1       8.583   4.931  19.190  0.00  0.00    +0.000 OA
ATOM     20  C   UNL     1       7.901   6.203  19.072  0.00  0.00    +0.000 C 
BRANCH  17  21
ATOM     21  C   UNL     1       6.434   6.360  16.992  0.00  0.00    +0.000 C 
ATOM     22  F   UNL     1       7.299   7.412  16.908  0.00  0.00    +0.000 F 
BRANCH  21  28
ATOM     23  C   UNL     1       4.363   4.220  16.020  0.00  0.00    +0.000 C 
ATOM     24  N   UNL     1       5.561   4.624  15.342  0.00  0.00    +0.000 N 
ATOM     25  C   UNL     1       6.004   4.124  14.156  0.00  0.00    +0.000 A 
ATOM     26  N   UNL     1       7.168   4.654  13.866  0.00  0.00    +0.000 NA
ATOM     27  N   UNL     1       7.484   5.541  14.866  0.00  0.00    +0.000 NA
ATOM     28  C   UNL     1       6.501   5.543  15.746  0.00  0.00    +0.000 A 
ENDBRANCH  21  28
ENDBRANCH  17  21
ENDBRANCH  11  17
ENDBRANCH   1  15
BRANCH   8  29
ATOM     29  C   UNL     1      -0.202   9.531  22.464  0.00  0.00    +0.000 C 
ATOM     30  F   UNL     1      -0.883   8.400  22.803  0.00  0.00    +0.000 F 
ATOM     31  F   UNL     1       1.004   9.426  23.087  0.00  0.00    +0.000 F 
ATOM     32  F   UNL     1      -0.858  10.556  23.065  0.00  0.00    +0.000 F 
ENDBRANCH   8  29
BRANCH   6  33
ATOM     33  C   UNL     1      -1.254  12.220  18.357  0.00  0.00    +0.000 C 
BRANCH  33  34
ATOM     34  N   UNL     1      -2.458  11.939  17.568  0.00  0.00    +0.000 NA
ATOM     35  C   UNL     1      -3.524  11.243  18.284  0.00  0.00    +0.000 C 
ATOM     36  C   UNL     1      -3.401   9.792  17.864  0.00  0.00    +0.000 C 
ATOM     37  C   UNL     1      -2.906   9.867  16.430  0.00  0.00    +0.000 C 
ATOM     38  C   UNL     1      -2.282  11.253  16.289  0.00  0.00    +0.000 C 
ENDBRANCH  33  34
ENDBRANCH   6  33
TORSDOF 7
ENDMDL
MODEL 3
REMARK VINA RESULT:      -9.5      1.827      2.692
REMARK  Name = 
REMARK  8 active torsions:
REMARK  status: ('A' for Active; 'I' for Inactive)
REMARK    1  A    between atoms: C_1  and  N_2
REMARK    2  A    between atoms: C_6  and  C_7
REMARK    3  A    between atoms: C_7  and  C_9
REMARK    4  A    between atoms: C_9  and  C_10
REMARK    5  A    between atoms: C_14  and  N_15
REMARK    6  A    between atoms: C_20  and  C_21
REMARK    7  A    between atoms: C_21  and  N_22
REMARK    8  A    between atoms: C_28  and  C_29
REMARK                            x       y       z     vdW  Elec       q    Type
REMARK                         _______ _______ _______ _____ _____    ______ ____
ROOT
ATOM      1  N   UNL     1       1.564   7.937  20.175  0.00  0.00    +0.000 N 
ATOM      2  C   UNL     1       1.587   6.598  20.711  0.00  0.00    +0.000 C 
ATOM      3  C   UNL     1       2.406   5.826  19.755  0.00  0.00    +0.000 A 
ATOM      4  C   UNL     1       2.824   6.642  18.714  0.00  0.00    +0.000 A 
ATOM      5  C   UNL     1       3.610   6.126  17.693  0.00  0.00    +0.000 A 
ATOM      6  C   UNL     1       4.027   4.776  17.783  0.00  0.00    +0.000 A 
ATOM      7  C   UNL     1       3.610   3.992  18.886  0.00  0.00    +0.000 A 
ATOM      8  C   UNL     1       2.734   4.482  19.850  0.00  0.00    +0.000 A 
ATOM      9  C   UNL     1       2.260   8.004  18.958  0.00  0.00    +0.000 C 
ATOM     10  O   UNL     1       2.406   8.937  18.192  0.00  0.00    +0.000 OA
ENDROOT
BRANCH   1  15
ATOM     11  C   UNL     1       0.186  11.351  20.891  0.00  0.00    +0.000 A 
ATOM     12  C   UNL     1      -0.424  11.122  22.128  0.00  0.00    +0.000 A 
ATOM     13  C   UNL     1      -0.413   9.848  22.721  0.00  0.00    +0.000 A 
ATOM     14  C   UNL     1       0.226   8.762  22.106  0.00  0.00    +0.000 A 
ATOM     15  C   UNL     1       0.819   8.934  20.861  0.00  0.00    +0.000 A 
ATOM     16  C   UNL     1       0.728  10.212  20.269  0.00  0.00    +0.000 A 
BRANCH  11  17
ATOM     17  C   UNL     1       0.481  12.811  20.248  0.00  0.00    +0.000 C 
ATOM     18  C   UNL     1       1.558  12.967  19.152  0.00  0.00    +0.000 C 
ATOM     19  O   UNL     1       2.518  13.472  20.120  0.00  0.00    +0.000 OA
ATOM     20  C   UNL     1       1.436  13.749  21.040  0.00  0.00    +0.000 C 
BRANCH  17  21
ATOM     21  C   UNL     1      -0.867  13.501  19.976  0.00  0.00    +0.000 C 
ATOM     22  F   UNL     1      -0.642  14.699  19.361  0.00  0.00    +0.000 F 
BRANCH  21  28
ATOM     23  C   UNL     1      -3.802  12.665  20.682  0.00  0.00    +0.000 C 
ATOM     24  N   UNL     1      -3.081  12.337  19.485  0.00  0.00    +0.000 N 
ATOM     25  C   UNL     1      -3.559  11.586  18.457  0.00  0.00    +0.000 A 
ATOM     26  N   UNL     1      -2.614  11.413  17.564  0.00  0.00    +0.000 NA
ATOM     27  N   UNL     1      -1.500  12.089  18.001  0.00  0.00    +0.000 NA
ATOM     28  C   UNL     1      -1.790  12.669  19.150  0.00  0.00    +0.000 A 
ENDBRANCH  21  28
ENDBRANCH  17  21
ENDBRANCH  11  17
ENDBRANCH   1  15
BRANCH   8  29
ATOM     29  C   UNL     1       2.169   3.572  20.907  0.00  0.00    +0.000 C 
ATOM     30  F   UNL     1       0.810   3.468  20.865  0.00  0.00    +0.000 F 
ATOM     31  F   UNL     1       2.632   2.297  20.784  0.00  0.00    +0.000 F 
ATOM     32  F   UNL     1       2.472   3.973  22.168  0.00  0.00    +0.000 F 
ENDBRANCH   8  29
BRANCH   6  33
ATOM     33  C   UNL     1       4.910   4.119  16.737  0.00  0.00    +0.000 C 
BRANCH  33  34
ATOM     34  N   UNL     1       6.335   4.466  16.728  0.00  0.00    +0.000 NA
ATOM     35  C   UNL     1       6.986   4.458  18.035  0.00  0.00    +0.000 C 
ATOM     36  C   UNL     1       7.050   5.912  18.456  0.00  0.00    +0.000 C 
ATOM     37  C   UNL     1       7.219   6.665  17.148  0.00  0.00    +0.000 C 
ATOM     38  C   UNL     1       6.722   5.710  16.065  0.00  0.00    +0.000 C 
ENDBRANCH  33  34
ENDBRANCH   6  33
TORSDOF 7
ENDMDL
MODEL 4
REMARK VINA RESULT:      -9.5      2.099      2.962
REMARK  Name = 
REMARK  8 active torsions:
REMARK  status: ('A' for Active; 'I' for Inactive)
REMARK    1  A    between atoms: C_1  and  N_2
REMARK    2  A    between atoms: C_6  and  C_7
REMARK    3  A    between atoms: C_7  and  C_9
REMARK    4  A    between atoms: C_9  and  C_10
REMARK    5  A    between atoms: C_14  and  N_15
REMARK    6  A    between atoms: C_20  and  C_21
REMARK    7  A    between atoms: C_21  and  N_22
REMARK    8  A    between atoms: C_28  and  C_29
REMARK                            x       y       z     vdW  Elec       q    Type
REMARK                         _______ _______ _______ _____ _____    ______ ____
ROOT
ATOM      1  N   UNL     1       1.314   8.282  20.167  0.00  0.00    +0.000 N 
ATOM      2  C   UNL     1       1.444   6.932  20.660  0.00  0.00    +0.000 C 
ATOM      3  C   UNL     1       2.303   6.252  19.670  0.00  0.00    +0.000 A 
ATOM      4  C   UNL     1       2.643   7.129  18.649  0.00  0.00    +0.000 A 
ATOM      5  C   UNL     1       3.450   6.704  17.602  0.00  0.00    +0.000 A 
ATOM      6  C   UNL     1       3.967   5.387  17.644  0.00  0.00    +0.000 A 
ATOM      7  C   UNL     1       3.625   4.540  18.727  0.00  0.00    +0.000 A 
ATOM      8  C   UNL     1       2.730   4.934  19.717  0.00  0.00    +0.000 A 
ATOM      9  C   UNL     1       1.985   8.437  18.944  0.00  0.00    +0.000 C 
ATOM     10  O   UNL     1       2.050   9.402  18.206  0.00  0.00    +0.000 OA
ENDROOT
BRANCH   1  15
ATOM     11  C   UNL     1      -1.058  11.137  20.703  0.00  0.00    +0.000 A 
ATOM     12  C   UNL     1      -1.023  11.236  22.098  0.00  0.00    +0.000 A 
ATOM     13  C   UNL     1      -0.247  10.354  22.871  0.00  0.00    +0.000 A 
ATOM     14  C   UNL     1       0.535   9.355  22.274  0.00  0.00    +0.000 A 
ATOM     15  C   UNL     1       0.508   9.199  20.894  0.00  0.00    +0.000 A 
ATOM     16  C   UNL     1      -0.334  10.061  20.159  0.00  0.00    +0.000 A 
BRANCH  11  17
ATOM     17  C   UNL     1      -1.679  12.252  19.702  0.00  0.00    +0.000 C 
ATOM     18  C   UNL     1      -0.782  12.908  18.629  0.00  0.00    +0.000 C 
ATOM     19  O   UNL     1      -0.613  14.097  19.450  0.00  0.00    +0.000 OA
ATOM     20  C   UNL     1      -1.764  13.710  20.238  0.00  0.00    +0.000 C 
BRANCH  17  21
ATOM     21  C   UNL     1      -3.056  11.760  19.224  0.00  0.00    +0.000 C 
ATOM     22  F   UNL     1      -3.978  12.746  19.420  0.00  0.00    +0.000 F 
BRANCH  21  28
ATOM     23  C   UNL     1      -5.386  12.093  17.156  0.00  0.00    +0.000 C 
ATOM     24  N   UNL     1      -4.095  11.517  16.909  0.00  0.00    +0.000 N 
ATOM     25  C   UNL     1      -3.675  11.003  15.721  0.00  0.00    +0.000 A 
ATOM     26  N   UNL     1      -2.478  10.486  15.867  0.00  0.00    +0.000 NA
ATOM     27  N   UNL     1      -2.091  10.691  17.169  0.00  0.00    +0.000 NA
ATOM     28  C   UNL     1      -3.058  11.338  17.793  0.00  0.00    +0.000 A 
ENDBRANCH  21  28
ENDBRANCH  17  21
ENDBRANCH  11  17
ENDBRANCH   1  15
BRANCH   8  29
ATOM     29  C   UNL     1       2.250   3.952  20.752  0.00  0.00    +0.000 C 
ATOM     30  F   UNL     1       2.759   2.699  20.589  0.00  0.00    +0.000 F 
ATOM     31  F   UNL     1       2.605   4.325  22.012  0.00  0.00    +0.000 F 
ATOM     32  F   UNL     1       0.901   3.808  20.758  0.00  0.00    +0.000 F 
ENDBRANCH   8  29
BRANCH   6  33
ATOM     33  C   UNL     1       4.879   4.830  16.566  0.00  0.00    +0.000 C 
BRANCH  33  34
ATOM     34  N   UNL     1       6.224   5.405  16.444  0.00  0.00    +0.000 NA
ATOM     35  C   UNL     1       7.320   4.502  16.784  0.00  0.00    +0.000 C 
ATOM     36  C   UNL     1       7.725   4.885  18.193  0.00  0.00    +0.000 C 
ATOM     37  C   UNL     1       7.473   6.381  18.253  0.00  0.00    +0.000 C 
ATOM     38  C   UNL     1       6.481   6.670  17.130  0.00  0.00    +0.000 C 
ENDBRANCH  33  34
ENDBRANCH   6  33
TORSDOF 7
ENDMDL
MODEL 5
REMARK VINA RESULT:      -9.4      1.124      1.243
REMARK  Name = 
REMARK  8 active torsions:
REMARK  status: ('A' for Active; 'I' for Inactive)
REMARK    1  A    between atoms: C_1  and  N_2
REMARK    2  A    between atoms: C_6  and  C_7
REMARK    3  A    between atoms: C_7  and  C_9
REMARK    4  A    between atoms: C_9  and  C_10
REMARK    5  A    between atoms: C_14  and  N_15
REMARK    6  A    between atoms: C_20  and  C_21
REMARK    7  A    between atoms: C_21  and  N_22
REMARK    8  A    between atoms: C_28  and  C_29
REMARK                            x       y       z     vdW  Elec       q    Type
REMARK                         _______ _______ _______ _____ _____    ______ ____
ROOT
ATOM      1  N   UNL     1       1.525   8.032  20.145  0.00  0.00    +0.000 N 
ATOM      2  C   UNL     1       1.649   6.660  20.576  0.00  0.00    +0.000 C 
ATOM      3  C   UNL     1       2.535   6.032  19.575  0.00  0.00    +0.000 A 
ATOM      4  C   UNL     1       2.895   6.958  18.606  0.00  0.00    +0.000 A 
ATOM      5  C   UNL     1       3.728   6.587  17.560  0.00  0.00    +0.000 A 
ATOM      6  C   UNL     1       4.251   5.270  17.552  0.00  0.00    +0.000 A 
ATOM      7  C   UNL     1       3.887   4.372  18.584  0.00  0.00    +0.000 A 
ATOM      8  C   UNL     1       2.967   4.715  19.570  0.00  0.00    +0.000 A 
ATOM      9  C   UNL     1       2.224   8.248  18.948  0.00  0.00    +0.000 C 
ATOM     10  O   UNL     1       2.302   9.247  18.258  0.00  0.00    +0.000 OA
ENDROOT
BRANCH   1  15
ATOM     11  C   UNL     1      -0.798  10.908  20.773  0.00  0.00    +0.000 A 
ATOM     12  C   UNL     1      -0.854  10.887  22.170  0.00  0.00    +0.000 A 
ATOM     13  C   UNL     1      -0.156   9.918  22.912  0.00  0.00    +0.000 A 
ATOM     14  C   UNL     1       0.637   8.948  22.283  0.00  0.00    +0.000 A 
ATOM     15  C   UNL     1       0.697   8.910  20.896  0.00  0.00    +0.000 A 
ATOM     16  C   UNL     1      -0.070   9.859  20.185  0.00  0.00    +0.000 A 
BRANCH  11  17
ATOM     17  C   UNL     1      -1.320  12.124  19.834  0.00  0.00    +0.000 C 
ATOM     18  C   UNL     1      -2.251  13.207  20.424  0.00  0.00    +0.000 C 
ATOM     19  O   UNL     1      -3.418  12.575  19.830  0.00  0.00    +0.000 OA
ATOM     20  C   UNL     1      -2.555  11.837  18.933  0.00  0.00    +0.000 C 
BRANCH  17  21
ATOM     21  C   UNL     1      -0.134  12.635  18.998  0.00  0.00    +0.000 C 
ATOM     22  F   UNL     1      -0.584  13.555  18.096  0.00  0.00    +0.000 F 
BRANCH  21  28
ATOM     23  C   UNL     1       2.879  12.973  18.211  0.00  0.00    +0.000 C 
ATOM     24  N   UNL     1       2.264  13.375  19.444  0.00  0.00    +0.000 N 
ATOM     25  C   UNL     1       2.904  13.962  20.491  0.00  0.00    +0.000 A 
ATOM     26  N   UNL     1       2.064  14.120  21.485  0.00  0.00    +0.000 NA
ATOM     27  N   UNL     1       0.839  13.653  21.074  0.00  0.00    +0.000 NA
ATOM     28  C   UNL     1       0.953  13.225  19.831  0.00  0.00    +0.000 A 
ENDBRANCH  21  28
ENDBRANCH  17  21
ENDBRANCH  11  17
ENDBRANCH   1  15
BRANCH   8  29
ATOM     29  C   UNL     1       2.467   3.683  20.545  0.00  0.00    +0.000 C 
ATOM     30  F   UNL     1       1.140   3.405  20.408  0.00  0.00    +0.000 F 
ATOM     31  F   UNL     1       3.103   2.489  20.396  0.00  0.00    +0.000 F 
ATOM     32  F   UNL     1       2.638   4.053  21.840  0.00  0.00    +0.000 F 
ENDBRANCH   8  29
BRANCH   6  33
ATOM     33  C   UNL     1       5.191   4.769  16.471  0.00  0.00    +0.000 C 
BRANCH  33  34
ATOM     34  N   UNL     1       6.589   5.213  16.519  0.00  0.00    +0.000 NA
ATOM     35  C   UNL     1       7.428   4.523  17.496  0.00  0.00    +0.000 C 
ATOM     36  C   UNL     1       7.511   5.464  18.682  0.00  0.00    +0.000 C 
ATOM     37  C   UNL     1       7.461   6.847  18.056  0.00  0.00    +0.000 C 
ATOM     38  C   UNL     1       6.836   6.645  16.678  0.00  0.00    +0.000 C 
ENDBRANCH  33  34
ENDBRANCH   6  33
TORSDOF 7
ENDMDL
MODEL 6
REMARK VINA RESULT:      -9.4      1.177      1.661
REMARK  Name = 
REMARK  8 active torsions:
REMARK  status: ('A' for Active; 'I' for Inactive)
REMARK    1  A    between atoms: C_1  and  N_2
REMARK    2  A    between atoms: C_6  and  C_7
REMARK    3  A    between atoms: C_7  and  C_9
REMARK    4  A    between atoms: C_9  and  C_10
REMARK    5  A    between atoms: C_14  and  N_15
REMARK    6  A    between atoms: C_20  and  C_21
REMARK    7  A    between atoms: C_21  and  N_22
REMARK    8  A    between atoms: C_28  and  C_29
REMARK                            x       y       z     vdW  Elec       q    Type
REMARK                         _______ _______ _______ _____ _____    ______ ____
ROOT
ATOM      1  N   UNL     1       1.459   7.852  20.294  0.00  0.00    +0.000 N 
ATOM      2  C   UNL     1       1.484   6.482  20.749  0.00  0.00    +0.000 C 
ATOM      3  C   UNL     1       2.328   5.776  19.764  0.00  0.00    +0.000 A 
ATOM      4  C   UNL     1       2.757   6.657  18.782  0.00  0.00    +0.000 A 
ATOM      5  C   UNL     1       3.567   6.210  17.747  0.00  0.00    +0.000 A 
ATOM      6  C   UNL     1       3.995   4.860  17.764  0.00  0.00    +0.000 A 
ATOM      7  C   UNL     1       3.564   4.007  18.809  0.00  0.00    +0.000 A 
ATOM      8  C   UNL     1       2.665   4.431  19.784  0.00  0.00    +0.000 A 
ATOM      9  C   UNL     1       2.177   7.997  19.097  0.00  0.00    +0.000 C 
ATOM     10  O   UNL     1       2.329   8.976  18.392  0.00  0.00    +0.000 OA
ENDROOT
BRANCH   1  15
ATOM     11  C   UNL     1      -0.648  10.901  20.862  0.00  0.00    +0.000 A 
ATOM     12  C   UNL     1      -0.718  10.903  22.259  0.00  0.00    +0.000 A 
ATOM     13  C   UNL     1      -0.103   9.895  23.020  0.00  0.00    +0.000 A 
ATOM     14  C   UNL     1       0.622   8.859  22.411  0.00  0.00    +0.000 A 
ATOM     15  C   UNL     1       0.693   8.799  21.025  0.00  0.00    +0.000 A 
ATOM     16  C   UNL     1       0.006   9.793  20.295  0.00  0.00    +0.000 A 
BRANCH  11  17
ATOM     17  C   UNL     1      -1.068  12.140  19.903  0.00  0.00    +0.000 C 
ATOM     18  C   UNL     1      -2.187  13.111  20.344  0.00  0.00    +0.000 C 
ATOM     19  O   UNL     1      -3.152  12.441  19.487  0.00  0.00    +0.000 OA
ATOM     20  C   UNL     1      -2.066  11.831  18.750  0.00  0.00    +0.000 C 
BRANCH  17  21
ATOM     21  C   UNL     1       0.216  12.791  19.360  0.00  0.00    +0.000 C 
ATOM     22  F   UNL     1      -0.070  13.449  18.199  0.00  0.00    +0.000 F 
BRANCH  21  28
ATOM     23  C   UNL     1       0.003  15.916  19.393  0.00  0.00    +0.000 C 
ATOM     24  N   UNL     1       0.718  15.095  20.327  0.00  0.00    +0.000 N 
ATOM     25  C   UNL     1       1.442  15.551  21.385  0.00  0.00    +0.000 A 
ATOM     26  N   UNL     1       2.031  14.541  21.980  0.00  0.00    +0.000 NA
ATOM     27  N   UNL     1       1.664  13.395  21.317  0.00  0.00    +0.000 NA
ATOM     28  C   UNL     1       0.850  13.726  20.333  0.00  0.00    +0.000 A 
ENDBRANCH  21  28
ENDBRANCH  17  21
ENDBRANCH  11  17
ENDBRANCH   1  15
BRANCH   8  29
ATOM     29  C   UNL     1       2.089   3.455  20.773  0.00  0.00    +0.000 C 
ATOM     30  F   UNL     1       2.464   2.164  20.544  0.00  0.00    +0.000 F 
ATOM     31  F   UNL     1       2.486   3.724  22.047  0.00  0.00    +0.000 F 
ATOM     32  F   UNL     1       0.732   3.451  20.783  0.00  0.00    +0.000 F 
ENDBRANCH   8  29
BRANCH   6  33
ATOM     33  C   UNL     1       4.903   4.275  16.697  0.00  0.00    +0.000 C 
BRANCH  33  34
ATOM     34  N   UNL     1       6.340   4.550  16.795  0.00  0.00    +0.000 NA
ATOM     35  C   UNL     1       6.891   4.508  18.147  0.00  0.00    +0.000 C 
ATOM     36  C   UNL     1       6.996   5.958  18.576  0.00  0.00    +0.000 C 
ATOM     37  C   UNL     1       7.299   6.701  17.287  0.00  0.00    +0.000 C 
ATOM     38  C   UNL     1       6.837   5.773  16.167  0.00  0.00    +0.000 C 
ENDBRANCH  33  34
ENDBRANCH   6  33
TORSDOF 7
ENDMDL
MODEL 7
REMARK VINA RESULT:      -9.3      2.711      9.162
REMARK  Name = 
REMARK  8 active torsions:
REMARK  status: ('A' for Active; 'I' for Inactive)
REMARK    1  A    between atoms: C_1  and  N_2
REMARK    2  A    between atoms: C_6  and  C_7
REMARK    3  A    between atoms: C_7  and  C_9
REMARK    4  A    between atoms: C_9  and  C_10
REMARK    5  A    between atoms: C_14  and  N_15
REMARK    6  A    between atoms: C_20  and  C_21
REMARK    7  A    between atoms: C_21  and  N_22
REMARK    8  A    between atoms: C_28  and  C_29
REMARK                            x       y       z     vdW  Elec       q    Type
REMARK                         _______ _______ _______ _____ _____    ______ ____
ROOT
ATOM      1  N   UNL     1       2.200   7.467  19.461  0.00  0.00    +0.000 N 
ATOM      2  C   UNL     1       1.485   7.871  20.647  0.00  0.00    +0.000 C 
ATOM      3  C   UNL     1       0.805   9.125  20.267  0.00  0.00    +0.000 A 
ATOM      4  C   UNL     1       1.110   9.456  18.954  0.00  0.00    +0.000 A 
ATOM      5  C   UNL     1       0.579  10.603  18.381  0.00  0.00    +0.000 A 
ATOM      6  C   UNL     1      -0.329  11.376  19.143  0.00  0.00    +0.000 A 
ATOM      7  C   UNL     1      -0.642  10.978  20.465  0.00  0.00    +0.000 A 
ATOM      8  C   UNL     1      -0.025   9.888  21.073  0.00  0.00    +0.000 A 
ATOM      9  C   UNL     1       2.036   8.406  18.431  0.00  0.00    +0.000 C 
ATOM     10  O   UNL     1       2.527   8.440  17.318  0.00  0.00    +0.000 OA
ENDROOT
BRANCH   1  15
ATOM     11  C   UNL     1       5.230   5.311  18.977  0.00  0.00    +0.000 A 
ATOM     12  C   UNL     1       4.710   4.062  19.330  0.00  0.00    +0.000 A 
ATOM     13  C   UNL     1       3.377   3.922  19.754  0.00  0.00    +0.000 A 
ATOM     14  C   UNL     1       2.512   5.024  19.821  0.00  0.00    +0.000 A 
ATOM     15  C   UNL     1       2.993   6.289  19.510  0.00  0.00    +0.000 A 
ATOM     16  C   UNL     1       4.355   6.397  19.152  0.00  0.00    +0.000 A 
BRANCH  11  17
ATOM     17  C   UNL     1       6.642   5.555  18.216  0.00  0.00    +0.000 C 
ATOM     18  C   UNL     1       7.654   4.395  18.080  0.00  0.00    +0.000 C 
ATOM     19  O   UNL     1       8.444   4.910  19.188  0.00  0.00    +0.000 OA
ATOM     20  C   UNL     1       7.790   6.194  19.050  0.00  0.00    +0.000 C 
BRANCH  17  21
ATOM     21  C   UNL     1       6.370   6.368  16.939  0.00  0.00    +0.000 C 
ATOM     22  F   UNL     1       7.234   7.424  16.886  0.00  0.00    +0.000 F 
BRANCH  21  28
ATOM     23  C   UNL     1       4.363   4.195  15.910  0.00  0.00    +0.000 C 
ATOM     24  N   UNL     1       5.573   4.619  15.265  0.00  0.00    +0.000 N 
ATOM     25  C   UNL     1       6.057   4.126  14.093  0.00  0.00    +0.000 A 
ATOM     26  N   UNL     1       7.220   4.674  13.835  0.00  0.00    +0.000 NA
ATOM     27  N   UNL     1       7.493   5.567  14.843  0.00  0.00    +0.000 NA
ATOM     28  C   UNL     1       6.485   5.553  15.695  0.00  0.00    +0.000 A 
ENDBRANCH  21  28
ENDBRANCH  17  21
ENDBRANCH  11  17
ENDBRANCH   1  15
BRANCH   8  29
ATOM     29  C   UNL     1      -0.244   9.598  22.533  0.00  0.00    +0.000 C 
ATOM     30  F   UNL     1      -0.955  10.567  23.179  0.00  0.00    +0.000 F 
ATOM     31  F   UNL     1      -0.946   8.448  22.725  0.00  0.00    +0.000 F 
ATOM     32  F   UNL     1       0.915   9.464  23.226  0.00  0.00    +0.000 F 
ENDBRANCH   8  29
BRANCH   6  33
ATOM     33  C   UNL     1      -0.989  12.633  18.604  0.00  0.00    +0.000 C 
BRANCH  33  34
ATOM     34  N   UNL     1      -0.270  13.902  18.753  0.00  0.00    +0.000 NA
ATOM     35  C   UNL     1       1.184  13.788  18.839  0.00  0.00    +0.000 C 
ATOM     36  C   UNL     1       1.504  13.898  20.316  0.00  0.00    +0.000 C 
ATOM     37  C   UNL     1       0.442  14.842  20.852  0.00  0.00    +0.000 C 
ATOM     38  C   UNL     1      -0.693  14.794  19.832  0.00  0.00    +0.000 C 
ENDBRANCH  33  34
ENDBRANCH   6  33
TORSDOF 7
ENDMDL
MODEL 8
REMARK VINA RESULT:      -9.2      1.228      1.439
REMARK  Name = 
REMARK  8 active torsions:
REMARK  status: ('A' for Active; 'I' for Inactive)
REMARK    1  A    between atoms: C_1  and  N_2
REMARK    2  A    between atoms: C_6  and  C_7
REMARK    3  A    between atoms: C_7  and  C_9
REMARK    4  A    between atoms: C_9  and  C_10
REMARK    5  A    between atoms: C_14  and  N_15
REMARK    6  A    between atoms: C_20  and  C_21
REMARK    7  A    between atoms: C_21  and  N_22
REMARK    8  A    between atoms: C_28  and  C_29
REMARK                            x       y       z     vdW  Elec       q    Type
REMARK                         _______ _______ _______ _____ _____    ______ ____
ROOT
ATOM      1  N   UNL     1       1.642   7.827  20.147  0.00  0.00    +0.000 N 
ATOM      2  C   UNL     1       1.710   6.476  20.650  0.00  0.00    +0.000 C 
ATOM      3  C   UNL     1       2.580   5.763  19.695  0.00  0.00    +0.000 A 
ATOM      4  C   UNL     1       2.986   6.621  18.683  0.00  0.00    +0.000 A 
ATOM      5  C   UNL     1       3.814   6.163  17.668  0.00  0.00    +0.000 A 
ATOM      6  C   UNL     1       4.285   4.830  17.735  0.00  0.00    +0.000 A 
ATOM      7  C   UNL     1       3.877   4.002  18.808  0.00  0.00    +0.000 A 
ATOM      8  C   UNL     1       2.961   4.431  19.764  0.00  0.00    +0.000 A 
ATOM      9  C   UNL     1       2.361   7.953  18.948  0.00  0.00    +0.000 C 
ATOM     10  O   UNL     1       2.485   8.910  18.208  0.00  0.00    +0.000 OA
ENDROOT
BRANCH   1  15
ATOM     11  C   UNL     1      -0.522  10.854  20.605  0.00  0.00    +0.000 A 
ATOM     12  C   UNL     1      -0.633  10.877  21.999  0.00  0.00    +0.000 A 
ATOM     13  C   UNL     1      -0.025   9.889  22.794  0.00  0.00    +0.000 A 
ATOM     14  C   UNL     1       0.731   8.855  22.222  0.00  0.00    +0.000 A 
ATOM     15  C   UNL     1       0.842   8.774  20.840  0.00  0.00    +0.000 A 
ATOM     16  C   UNL     1       0.162   9.747  20.075  0.00  0.00    +0.000 A 
BRANCH  11  17
ATOM     17  C   UNL     1      -0.933  12.072  19.615  0.00  0.00    +0.000 C 
ATOM     18  C   UNL     1      -2.293  12.783  19.791  0.00  0.00    +0.000 C 
ATOM     19  O   UNL     1      -2.871  12.023  18.695  0.00  0.00    +0.000 OA
ATOM     20  C   UNL     1      -1.541  11.683  18.236  0.00  0.00    +0.000 C 
BRANCH  17  21
ATOM     21  C   UNL     1       0.291  12.987  19.438  0.00  0.00    +0.000 C 
ATOM     22  F   UNL     1       0.827  12.787  18.199  0.00  0.00    +0.000 F 
BRANCH  21  28
ATOM     23  C   UNL     1       0.133  14.548  22.149  0.00  0.00    +0.000 C 
ATOM     24  N   UNL     1      -0.073  15.087  20.835  0.00  0.00    +0.000 N 
ATOM     25  C   UNL     1      -0.389  16.380  20.554  0.00  0.00    +0.000 A 
ATOM     26  N   UNL     1      -0.586  16.512  19.264  0.00  0.00    +0.000 NA
ATOM     27  N   UNL     1      -0.366  15.287  18.682  0.00  0.00    +0.000 NA
ATOM     28  C   UNL     1      -0.031  14.431  19.628  0.00  0.00    +0.000 A 
ENDBRANCH  21  28
ENDBRANCH  17  21
ENDBRANCH  11  17
ENDBRANCH   1  15
BRANCH   8  29
ATOM     29  C   UNL     1       2.412   3.472  20.786  0.00  0.00    +0.000 C 
ATOM     30  F   UNL     1       1.079   3.225  20.638  0.00  0.00    +0.000 F 
ATOM     31  F   UNL     1       3.014   2.254  20.718  0.00  0.00    +0.000 F 
ATOM     32  F   UNL     1       2.569   3.910  22.060  0.00  0.00    +0.000 F 
ENDBRANCH   8  29
BRANCH   6  33
ATOM     33  C   UNL     1       5.217   4.237  16.693  0.00  0.00    +0.000 C 
BRANCH  33  34
ATOM     34  N   UNL     1       6.592   4.743  16.636  0.00  0.00    +0.000 NA
ATOM     35  C   UNL     1       7.391   4.512  17.836  0.00  0.00    +0.000 C 
ATOM     36  C   UNL     1       7.367   5.827  18.589  0.00  0.00    +0.000 C 
ATOM     37  C   UNL     1       7.309   6.875  17.491  0.00  0.00    +0.000 C 
ATOM     38  C   UNL     1       6.779   6.144  16.261  0.00  0.00    +0.000 C 
ENDBRANCH  33  34
ENDBRANCH   6  33
TORSDOF 7
ENDMDL
MODEL 9
REMARK VINA RESULT:      -9.2      2.281      3.204
REMARK  Name = 
REMARK  8 active torsions:
REMARK  status: ('A' for Active; 'I' for Inactive)
REMARK    1  A    between atoms: C_1  and  N_2
REMARK    2  A    between atoms: C_6  and  C_7
REMARK    3  A    between atoms: C_7  and  C_9
REMARK    4  A    between atoms: C_9  and  C_10
REMARK    5  A    between atoms: C_14  and  N_15
REMARK    6  A    between atoms: C_20  and  C_21
REMARK    7  A    between atoms: C_21  and  N_22
REMARK    8  A    between atoms: C_28  and  C_29
REMARK                            x       y       z     vdW  Elec       q    Type
REMARK                         _______ _______ _______ _____ _____    ______ ____
ROOT
ATOM      1  N   UNL     1       1.394   7.979  20.251  0.00  0.00    +0.000 N 
ATOM      2  C   UNL     1       1.426   6.636  20.778  0.00  0.00    +0.000 C 
ATOM      3  C   UNL     1       2.283   5.885  19.839  0.00  0.00    +0.000 A 
ATOM      4  C   UNL     1       2.714   6.715  18.814  0.00  0.00    +0.000 A 
ATOM      5  C   UNL     1       3.535   6.220  17.811  0.00  0.00    +0.000 A 
ATOM      6  C   UNL     1       3.973   4.877  17.904  0.00  0.00    +0.000 A 
ATOM      7  C   UNL     1       3.540   4.078  18.990  0.00  0.00    +0.000 A 
ATOM      8  C   UNL     1       2.631   4.546  19.934  0.00  0.00    +0.000 A 
ATOM      9  C   UNL     1       2.120   8.066  19.053  0.00  0.00    +0.000 C 
ATOM     10  O   UNL     1       2.270   9.007  18.296  0.00  0.00    +0.000 OA
ENDROOT
BRANCH   1  15
ATOM     11  C   UNL     1      -0.867  10.948  20.622  0.00  0.00    +0.000 A 
ATOM     12  C   UNL     1      -0.851  11.105  22.012  0.00  0.00    +0.000 A 
ATOM     13  C   UNL     1      -0.126  10.227  22.835  0.00  0.00    +0.000 A 
ATOM     14  C   UNL     1       0.625   9.172  22.295  0.00  0.00    +0.000 A 
ATOM     15  C   UNL     1       0.614   8.958  20.923  0.00  0.00    +0.000 A 
ATOM     16  C   UNL     1      -0.179   9.821  20.137  0.00  0.00    +0.000 A 
BRANCH  11  17
ATOM     17  C   UNL     1      -1.425  12.043  19.563  0.00  0.00    +0.000 C 
ATOM     18  C   UNL     1      -0.504  12.565  18.437  0.00  0.00    +0.000 C 
ATOM     19  O   UNL     1      -0.231  13.785  19.180  0.00  0.00    +0.000 OA
ATOM     20  C   UNL     1      -1.391  13.534  20.008  0.00  0.00    +0.000 C 
BRANCH  17  21
ATOM     21  C   UNL     1      -2.844  11.627  19.138  0.00  0.00    +0.000 C 
ATOM     22  F   UNL     1      -3.697  12.673  19.338  0.00  0.00    +0.000 F 
BRANCH  21  28
ATOM     23  C   UNL     1      -5.233  12.014  17.148  0.00  0.00    +0.000 C 
ATOM     24  N   UNL     1      -3.977  11.378  16.868  0.00  0.00    +0.000 N 
ATOM     25  C   UNL     1      -3.623  10.820  15.679  0.00  0.00    +0.000 A 
ATOM     26  N   UNL     1      -2.444  10.256  15.794  0.00  0.00    +0.000 NA
ATOM     27  N   UNL     1      -2.001  10.473  17.076  0.00  0.00    +0.000 NA
ATOM     28  C   UNL     1      -2.916  11.174  17.719  0.00  0.00    +0.000 A 
ENDBRANCH  21  28
ENDBRANCH  17  21
ENDBRANCH  11  17
ENDBRANCH   1  15
BRANCH   8  29
ATOM     29  C   UNL     1       2.055   3.620  20.970  0.00  0.00    +0.000 C 
ATOM     30  F   UNL     1       0.693   3.555  20.944  0.00  0.00    +0.000 F 
ATOM     31  F   UNL     1       2.480   2.338  20.801  0.00  0.00    +0.000 F 
ATOM     32  F   UNL     1       2.386   3.973  22.238  0.00  0.00    +0.000 F 
ENDBRANCH   8  29
BRANCH   6  33
ATOM     33  C   UNL     1       4.894   4.242  16.877  0.00  0.00    +0.000 C 
BRANCH  33  34
ATOM     34  N   UNL     1       5.344   5.074  15.755  0.00  0.00    +0.000 NA
ATOM     35  C   UNL     1       5.042   4.545  14.428  0.00  0.00    +0.000 C 
ATOM     36  C   UNL     1       6.334   3.912  13.950  0.00  0.00    +0.000 C 
ATOM     37  C   UNL     1       7.417   4.779  14.570  0.00  0.00    +0.000 C 
ATOM     38  C   UNL     1       6.746   5.487  15.743  0.00  0.00    +0.000 C 
ENDBRANCH  33  34
ENDBRANCH   6  33
TORSDOF 7
ENDMDL
