MODEL 1
REMARK VINA RESULT:      -8.2      0.000      0.000
REMARK  Name = 
REMARK  7 active torsions:
REMARK  status: ('A' for Active; 'I' for Inactive)
REMARK    1  A    between atoms: C_1  and  C_2
REMARK    2  A    between atoms: C_2  and  S_3
REMARK    3  A    between atoms: C_2  and  C_10
REMARK    4  A    between atoms: S_3  and  C_4
REMARK    5  A    between atoms: N_8  and  C_9
REMARK    6  A    between atoms: C_16  and  C_18
REMARK    7  A    between atoms: C_22  and  C_23
REMARK                            x       y       z     vdW  Elec       q    Type
REMARK                         _______ _______ _______ _____ _____    ______ ____
ROOT
ATOM      1  C   UNL     1       0.503  10.320  19.516  0.00  0.00    +0.000 A 
ATOM      2  C   UNL     1       0.151  10.030  20.838  0.00  0.00    +0.000 A 
ATOM      3  C   UNL     1       0.623   8.868  21.416  0.00  0.00    +0.000 A 
ATOM      4  N   UNL     1       1.407   7.984  20.775  0.00  0.00    +0.000 NA
ATOM      5  C   UNL     1       1.764   8.242  19.507  0.00  0.00    +0.000 A 
ATOM      6  N   UNL     1       2.539   7.308  18.813  0.00  0.00    +0.000 N 
ATOM      7  C   UNL     1       2.970   6.107  19.351  0.00  0.00    +0.000 C 
ATOM      8  O   UNL     1       2.806   5.690  20.495  0.00  0.00    +0.000 OA
ATOM      9  C   UNL     1       1.357   9.405  18.858  0.00  0.00    +0.000 A 
ATOM     10  H   UNL     1       2.768   7.476  17.840  0.00  0.00    +0.000 HD
ENDROOT
BRANCH   7  11
ATOM     11  C   UNL     1       3.715   5.235  18.393  0.00  0.00    +0.000 A 
ATOM     12  C   UNL     1       3.036   4.225  17.719  0.00  0.00    +0.000 A 
ATOM     13  C   UNL     1       3.728   3.476  16.778  0.00  0.00    +0.000 A 
ATOM     14  C   UNL     1       5.069   3.762  16.538  0.00  0.00    +0.000 A 
ATOM     15  C   UNL     1       5.695   4.787  17.258  0.00  0.00    +0.000 A 
ATOM     16  N   UNL     1       5.030   5.524  18.197  0.00  0.00    +0.000 NA
BRANCH  15  17
ATOM     17  C   UNL     1       7.153   5.127  16.977  0.00  0.00    +0.000 C 
ATOM     18  F   UNL     1       8.038   4.285  17.583  0.00  0.00    +0.000 F 
ATOM     19  F   UNL     1       7.453   5.077  15.647  0.00  0.00    +0.000 F 
ATOM     20  F   UNL     1       7.494   6.380  17.391  0.00  0.00    +0.000 F 
ENDBRANCH  15  17
ENDBRANCH   7  11
BRANCH   1  22
ATOM     21  C   UNL     1       0.831  12.806  18.924  0.00  0.00    +0.000 C 
ATOM     22  C   UNL     1      -0.031  11.542  18.763  0.00  0.00    +0.000 C 
BRANCH  22  23
ATOM     23  S   UNL     1      -1.746  11.873  19.363  0.00  0.00    +0.000 S 
BRANCH  23  24
ATOM     24  C   UNL     1      -2.722  11.515  17.991  0.00  0.00    +0.000 A 
ATOM     25  N   UNL     1      -2.331  11.104  16.808  0.00  0.00    +0.000 NA
ATOM     26  N   UNL     1      -3.451  11.042  16.004  0.00  0.00    +0.000 NA
ATOM     27  C   UNL     1      -4.485  11.402  16.729  0.00  0.00    +0.000 A 
ATOM     28  N   UNL     1      -4.077  11.671  17.999  0.00  0.00    +0.000 N 
ATOM     29  C   UNL     1      -4.916  12.057  19.102  0.00  0.00    +0.000 C 
ENDBRANCH  23  24
ENDBRANCH  22  23
ENDBRANCH   1  22
TORSDOF 5
ENDMDL
MODEL 2
REMARK VINA RESULT:      -8.1      2.698      4.052
REMARK  Name = 
REMARK  7 active torsions:
REMARK  status: ('A' for Active; 'I' for Inactive)
REMARK    1  A    between atoms: C_1  and  C_2
REMARK    2  A    between atoms: C_2  and  S_3
REMARK    3  A    between atoms: C_2  and  C_10
REMARK    4  A    between atoms: S_3  and  C_4
REMARK    5  A    between atoms: N_8  and  C_9
REMARK    6  A    between atoms: C_16  and  C_18
REMARK    7  A    between atoms: C_22  and  C_23
REMARK                            x       y       z     vdW  Elec       q    Type
REMARK                         _______ _______ _______ _____ _____    ______ ____
ROOT
ATOM      1  C   UNL     1       0.368  10.401  20.112  0.00  0.00    +0.000 A 
ATOM      2  C   UNL     1      -0.331   9.881  21.207  0.00  0.00    +0.000 A 
ATOM      3  C   UNL     1      -0.060   8.593  21.625  0.00  0.00    +0.000 A 
ATOM      4  N   UNL     1       0.844   7.795  21.032  0.00  0.00    +0.000 NA
ATOM      5  C   UNL     1       1.533   8.271  19.983  0.00  0.00    +0.000 A 
ATOM      6  N   UNL     1       2.441   7.435  19.326  0.00  0.00    +0.000 N 
ATOM      7  C   UNL     1       2.683   6.120  19.687  0.00  0.00    +0.000 C 
ATOM      8  O   UNL     1       2.208   5.497  20.634  0.00  0.00    +0.000 OA
ATOM      9  C   UNL     1       1.343   9.569  19.515  0.00  0.00    +0.000 A 
ATOM     10  H   UNL     1       2.926   7.775  18.504  0.00  0.00    +0.000 HD
ENDROOT
BRANCH   7  11
ATOM     11  C   UNL     1       3.634   5.400  18.787  0.00  0.00    +0.000 A 
ATOM     12  C   UNL     1       3.134   4.597  17.767  0.00  0.00    +0.000 A 
ATOM     13  C   UNL     1       4.033   3.997  16.896  0.00  0.00    +0.000 A 
ATOM     14  C   UNL     1       5.396   4.222  17.069  0.00  0.00    +0.000 A 
ATOM     15  C   UNL     1       5.833   5.034  18.123  0.00  0.00    +0.000 A 
ATOM     16  N   UNL     1       4.961   5.620  18.996  0.00  0.00    +0.000 NA
BRANCH  15  17
ATOM     17  C   UNL     1       7.321   5.311  18.298  0.00  0.00    +0.000 C 
ATOM     18  F   UNL     1       7.757   6.409  17.616  0.00  0.00    +0.000 F 
ATOM     19  F   UNL     1       7.661   5.529  19.600  0.00  0.00    +0.000 F 
ATOM     20  F   UNL     1       8.104   4.278  17.873  0.00  0.00    +0.000 F 
ENDBRANCH  15  17
ENDBRANCH   7  11
BRANCH   1  22
ATOM     21  C   UNL     1      -1.034  11.808  18.472  0.00  0.00    +0.000 C 
ATOM     22  C   UNL     1       0.085  11.788  19.528  0.00  0.00    +0.000 C 
BRANCH  22  23
ATOM     23  S   UNL     1       1.654  12.425  18.792  0.00  0.00    +0.000 S 
BRANCH  23  24
ATOM     24  C   UNL     1       2.345  13.348  20.071  0.00  0.00    +0.000 A 
ATOM     25  N   UNL     1       2.035  13.320  21.345  0.00  0.00    +0.000 NA
ATOM     26  N   UNL     1       2.783  14.296  21.970  0.00  0.00    +0.000 NA
ATOM     27  C   UNL     1       3.533  14.872  21.060  0.00  0.00    +0.000 A 
ATOM     28  N   UNL     1       3.318  14.278  19.854  0.00  0.00    +0.000 N 
ATOM     29  C   UNL     1       3.978  14.597  18.616  0.00  0.00    +0.000 C 
ENDBRANCH  23  24
ENDBRANCH  22  23
ENDBRANCH   1  22
TORSDOF 5
ENDMDL
MODEL 3
REMARK VINA RESULT:      -8.1      0.988      1.251
REMARK  Name = 
REMARK  7 active torsions:
REMARK  status: ('A' for Active; 'I' for Inactive)
REMARK    1  A    between atoms: C_1  and  C_2
REMARK    2  A    between atoms: C_2  and  S_3
REMARK    3  A    between atoms: C_2  and  C_10
REMARK    4  A    between atoms: S_3  and  C_4
REMARK    5  A    between atoms: N_8  and  C_9
REMARK    6  A    between atoms: C_16  and  C_18
REMARK    7  A    between atoms: C_22  and  C_23
REMARK                            x       y       z     vdW  Elec       q    Type
REMARK                         _______ _______ _______ _____ _____    ______ ____
ROOT
ATOM      1  C   UNL     1       0.394  10.397  19.625  0.00  0.00    +0.000 A 
ATOM      2  C   UNL     1      -0.022  10.125  20.933  0.00  0.00    +0.000 A 
ATOM      3  C   UNL     1       0.377   8.947  21.531  0.00  0.00    +0.000 A 
ATOM      4  N   UNL     1       1.149   8.030  20.923  0.00  0.00    +0.000 NA
ATOM      5  C   UNL     1       1.567   8.268  19.670  0.00  0.00    +0.000 A 
ATOM      6  N   UNL     1       2.329   7.301  19.009  0.00  0.00    +0.000 N 
ATOM      7  C   UNL     1       2.689   6.085  19.566  0.00  0.00    +0.000 C 
ATOM      8  O   UNL     1       2.462   5.678  20.703  0.00  0.00    +0.000 OA
ATOM      9  C   UNL     1       1.235   9.445  19.004  0.00  0.00    +0.000 A 
ATOM     10  H   UNL     1       2.605   7.457  18.046  0.00  0.00    +0.000 HD
ENDROOT
BRANCH   7  11
ATOM     11  C   UNL     1       3.435   5.180  18.640  0.00  0.00    +0.000 A 
ATOM     12  C   UNL     1       3.365   3.803  18.826  0.00  0.00    +0.000 A 
ATOM     13  C   UNL     1       4.002   2.978  17.910  0.00  0.00    +0.000 A 
ATOM     14  C   UNL     1       4.682   3.552  16.839  0.00  0.00    +0.000 A 
ATOM     15  C   UNL     1       4.721   4.947  16.716  0.00  0.00    +0.000 A 
ATOM     16  N   UNL     1       4.110   5.772  17.617  0.00  0.00    +0.000 NA
BRANCH  15  17
ATOM     17  C   UNL     1       5.436   5.581  15.529  0.00  0.00    +0.000 C 
ATOM     18  F   UNL     1       5.279   4.890  14.363  0.00  0.00    +0.000 F 
ATOM     19  F   UNL     1       4.995   6.844  15.269  0.00  0.00    +0.000 F 
ATOM     20  F   UNL     1       6.783   5.685  15.717  0.00  0.00    +0.000 F 
ENDBRANCH  15  17
ENDBRANCH   7  11
BRANCH   1  22
ATOM     21  C   UNL     1       0.805  12.885  19.101  0.00  0.00    +0.000 C 
ATOM     22  C   UNL     1      -0.059  11.638  18.850  0.00  0.00    +0.000 C 
BRANCH  22  23
ATOM     23  S   UNL     1      -1.812  11.986  19.311  0.00  0.00    +0.000 S 
BRANCH  23  24
ATOM     24  C   UNL     1      -2.691  11.523  17.904  0.00  0.00    +0.000 A 
ATOM     25  N   UNL     1      -2.218  11.048  16.777  0.00  0.00    +0.000 NA
ATOM     26  N   UNL     1      -3.283  10.914  15.910  0.00  0.00    +0.000 NA
ATOM     27  C   UNL     1      -4.368  11.295  16.543  0.00  0.00    +0.000 A 
ATOM     28  N   UNL     1      -4.047  11.651  17.818  0.00  0.00    +0.000 N 
ATOM     29  C   UNL     1      -4.962  12.086  18.838  0.00  0.00    +0.000 C 
ENDBRANCH  23  24
ENDBRANCH  22  23
ENDBRANCH   1  22
TORSDOF 5
ENDMDL
MODEL 4
REMARK VINA RESULT:      -7.8      4.213      5.054
REMARK  Name = 
REMARK  7 active torsions:
REMARK  status: ('A' for Active; 'I' for Inactive)
REMARK    1  A    between atoms: C_1  and  C_2
REMARK    2  A    between atoms: C_2  and  S_3
REMARK    3  A    between atoms: C_2  and  C_10
REMARK    4  A    between atoms: S_3  and  C_4
REMARK    5  A    between atoms: N_8  and  C_9
REMARK    6  A    between atoms: C_16  and  C_18
REMARK    7  A    between atoms: C_22  and  C_23
REMARK                            x       y       z     vdW  Elec       q    Type
REMARK                         _______ _______ _______ _____ _____    ______ ____
ROOT
ATOM      1  C   UNL     1       0.258  10.983  20.988  0.00  0.00    +0.000 A 
ATOM      2  C   UNL     1       0.579  11.966  20.045  0.00  0.00    +0.000 A 
ATOM      3  C   UNL     1       1.227  11.593  18.884  0.00  0.00    +0.000 A 
ATOM      4  N   UNL     1       1.578  10.327  18.603  0.00  0.00    +0.000 NA
ATOM      5  C   UNL     1       1.277   9.364  19.488  0.00  0.00    +0.000 A 
ATOM      6  N   UNL     1       1.679   8.050  19.231  0.00  0.00    +0.000 N 
ATOM      7  C   UNL     1       2.386   7.663  18.104  0.00  0.00    +0.000 C 
ATOM      8  O   UNL     1       2.723   8.359  17.148  0.00  0.00    +0.000 OA
ATOM      9  C   UNL     1       0.598   9.648  20.670  0.00  0.00    +0.000 A 
ATOM     10  H   UNL     1       1.497   7.329  19.920  0.00  0.00    +0.000 HD
ENDROOT
BRANCH   7  11
ATOM     11  C   UNL     1       2.776   6.221  18.087  0.00  0.00    +0.000 A 
ATOM     12  C   UNL     1       3.989   5.848  17.517  0.00  0.00    +0.000 A 
ATOM     13  C   UNL     1       4.367   4.515  17.579  0.00  0.00    +0.000 A 
ATOM     14  C   UNL     1       3.528   3.601  18.210  0.00  0.00    +0.000 A 
ATOM     15  C   UNL     1       2.316   4.041  18.756  0.00  0.00    +0.000 A 
ATOM     16  N   UNL     1       1.924   5.348  18.691  0.00  0.00    +0.000 NA
BRANCH  15  17
ATOM     17  C   UNL     1       1.408   3.053  19.476  0.00  0.00    +0.000 C 
ATOM     18  F   UNL     1       2.085   2.086  20.161  0.00  0.00    +0.000 F 
ATOM     19  F   UNL     1       0.604   3.658  20.397  0.00  0.00    +0.000 F 
ATOM     20  F   UNL     1       0.572   2.387  18.629  0.00  0.00    +0.000 F 
ENDBRANCH  15  17
ENDBRANCH   7  11
BRANCH   1  22
ATOM     21  C   UNL     1      -0.818  10.067  23.141  0.00  0.00    +0.000 C 
ATOM     22  C   UNL     1      -0.390  11.306  22.337  0.00  0.00    +0.000 C 
BRANCH  22  23
ATOM     23  S   UNL     1      -1.855  12.384  22.019  0.00  0.00    +0.000 S 
BRANCH  23  24
ATOM     24  C   UNL     1      -1.704  13.619  23.210  0.00  0.00    +0.000 A 
ATOM     25  N   UNL     1      -0.640  14.324  23.512  0.00  0.00    +0.000 NA
ATOM     26  N   UNL     1      -0.968  15.121  24.588  0.00  0.00    +0.000 NA
ATOM     27  C   UNL     1      -2.223  14.886  24.895  0.00  0.00    +0.000 A 
ATOM     28  N   UNL     1      -2.738  13.974  24.026  0.00  0.00    +0.000 N 
ATOM     29  C   UNL     1      -4.091  13.486  24.003  0.00  0.00    +0.000 C 
ENDBRANCH  23  24
ENDBRANCH  22  23
ENDBRANCH   1  22
TORSDOF 5
ENDMDL
MODEL 5
REMARK VINA RESULT:      -7.8      2.774      4.256
REMARK  Name = 
REMARK  7 active torsions:
REMARK  status: ('A' for Active; 'I' for Inactive)
REMARK    1  A    between atoms: C_1  and  C_2
REMARK    2  A    between atoms: C_2  and  S_3
REMARK    3  A    between atoms: C_2  and  C_10
REMARK    4  A    between atoms: S_3  and  C_4
REMARK    5  A    between atoms: N_8  and  C_9
REMARK    6  A    between atoms: C_16  and  C_18
REMARK    7  A    between atoms: C_22  and  C_23
REMARK                            x       y       z     vdW  Elec       q    Type
REMARK                         _______ _______ _______ _____ _____    ______ ____
ROOT
ATOM      1  C   UNL     1       0.277  10.830  20.410  0.00  0.00    +0.000 A 
ATOM      2  C   UNL     1      -0.271  10.391  21.620  0.00  0.00    +0.000 A 
ATOM      3  C   UNL     1      -0.021   9.099  22.038  0.00  0.00    +0.000 A 
ATOM      4  N   UNL     1       0.724   8.224  21.342  0.00  0.00    +0.000 NA
ATOM      5  C   UNL     1       1.267   8.622  20.181  0.00  0.00    +0.000 A 
ATOM      6  N   UNL     1       2.004   7.707  19.422  0.00  0.00    +0.000 N 
ATOM      7  C   UNL     1       2.215   6.389  19.790  0.00  0.00    +0.000 C 
ATOM      8  O   UNL     1       1.858   5.827  20.824  0.00  0.00    +0.000 OA
ATOM      9  C   UNL     1       1.089   9.917  19.700  0.00  0.00    +0.000 A 
ATOM     10  H   UNL     1       2.373   7.990  18.522  0.00  0.00    +0.000 HD
ENDROOT
BRANCH   7  11
ATOM     11  C   UNL     1       2.963   5.580  18.781  0.00  0.00    +0.000 A 
ATOM     12  C   UNL     1       2.659   4.231  18.626  0.00  0.00    +0.000 A 
ATOM     13  C   UNL     1       3.312   3.517  17.631  0.00  0.00    +0.000 A 
ATOM     14  C   UNL     1       4.240   4.170  16.824  0.00  0.00    +0.000 A 
ATOM     15  C   UNL     1       4.505   5.528  17.041  0.00  0.00    +0.000 A 
ATOM     16  N   UNL     1       3.881   6.242  18.024  0.00  0.00    +0.000 NA
BRANCH  15  17
ATOM     17  C   UNL     1       5.495   6.257  16.141  0.00  0.00    +0.000 C 
ATOM     18  F   UNL     1       4.907   6.911  15.098  0.00  0.00    +0.000 F 
ATOM     19  F   UNL     1       6.209   7.206  16.812  0.00  0.00    +0.000 F 
ATOM     20  F   UNL     1       6.415   5.422  15.580  0.00  0.00    +0.000 F 
ENDBRANCH  15  17
ENDBRANCH   7  11
BRANCH   1  22
ATOM     21  C   UNL     1      -1.199  12.258  18.855  0.00  0.00    +0.000 C 
ATOM     22  C   UNL     1      -0.006  12.217  19.825  0.00  0.00    +0.000 C 
BRANCH  22  23
ATOM     23  S   UNL     1       1.523  12.792  18.964  0.00  0.00    +0.000 S 
BRANCH  23  24
ATOM     24  C   UNL     1       2.411  13.574  20.215  0.00  0.00    +0.000 A 
ATOM     25  N   UNL     1       2.175  13.557  21.505  0.00  0.00    +0.000 NA
ATOM     26  N   UNL     1       3.088  14.401  22.101  0.00  0.00    +0.000 NA
ATOM     27  C   UNL     1       3.859  14.890  21.157  0.00  0.00    +0.000 A 
ATOM     28  N   UNL     1       3.492  14.365  19.956  0.00  0.00    +0.000 N 
ATOM     29  C   UNL     1       4.118  14.620  18.686  0.00  0.00    +0.000 C 
ENDBRANCH  23  24
ENDBRANCH  22  23
ENDBRANCH   1  22
TORSDOF 5
ENDMDL
MODEL 6
REMARK VINA RESULT:      -7.7      3.082      4.568
REMARK  Name = 
REMARK  7 active torsions:
REMARK  status: ('A' for Active; 'I' for Inactive)
REMARK    1  A    between atoms: C_1  and  C_2
REMARK    2  A    between atoms: C_2  and  S_3
REMARK    3  A    between atoms: C_2  and  C_10
REMARK    4  A    between atoms: S_3  and  C_4
REMARK    5  A    between atoms: N_8  and  C_9
REMARK    6  A    between atoms: C_16  and  C_18
REMARK    7  A    between atoms: C_22  and  C_23
REMARK                            x       y       z     vdW  Elec       q    Type
REMARK                         _______ _______ _______ _____ _____    ______ ____
ROOT
ATOM      1  C   UNL     1       1.824   6.799  20.293  0.00  0.00    +0.000 A 
ATOM      2  C   UNL     1       1.198   5.607  20.675  0.00  0.00    +0.000 A 
ATOM      3  C   UNL     1       1.583   4.426  20.072  0.00  0.00    +0.000 A 
ATOM      4  N   UNL     1       2.532   4.351  19.124  0.00  0.00    +0.000 NA
ATOM      5  C   UNL     1       3.153   5.479  18.743  0.00  0.00    +0.000 A 
ATOM      6  N   UNL     1       4.108   5.423  17.724  0.00  0.00    +0.000 N 
ATOM      7  C   UNL     1       4.465   4.260  17.061  0.00  0.00    +0.000 C 
ATOM      8  O   UNL     1       4.067   3.117  17.274  0.00  0.00    +0.000 OA
ATOM      9  C   UNL     1       2.846   6.709  19.321  0.00  0.00    +0.000 A 
ATOM     10  H   UNL     1       4.542   6.279  17.401  0.00  0.00    +0.000 HD
ENDROOT
BRANCH   7  11
ATOM     11  C   UNL     1       5.447   4.460  15.953  0.00  0.00    +0.000 A 
ATOM     12  C   UNL     1       6.665   5.076  16.222  0.00  0.00    +0.000 A 
ATOM     13  C   UNL     1       7.592   5.183  15.195  0.00  0.00    +0.000 A 
ATOM     14  C   UNL     1       7.277   4.670  13.940  0.00  0.00    +0.000 A 
ATOM     15  C   UNL     1       6.028   4.071  13.735  0.00  0.00    +0.000 A 
ATOM     16  N   UNL     1       5.100   3.970  14.731  0.00  0.00    +0.000 NA
BRANCH  15  17
ATOM     17  C   UNL     1       5.689   3.479  12.372  0.00  0.00    +0.000 C 
ATOM     18  F   UNL     1       4.389   3.665  12.003  0.00  0.00    +0.000 F 
ATOM     19  F   UNL     1       6.435   4.021  11.368  0.00  0.00    +0.000 F 
ATOM     20  F   UNL     1       5.900   2.133  12.313  0.00  0.00    +0.000 F 
ENDBRANCH  15  17
ENDBRANCH   7  11
BRANCH   1  22
ATOM     21  C   UNL     1       0.122   8.145  21.681  0.00  0.00    +0.000 C 
ATOM     22  C   UNL     1       1.414   8.167  20.846  0.00  0.00    +0.000 C 
BRANCH  22  23
ATOM     23  S   UNL     1       1.219   9.321  19.419  0.00  0.00    +0.000 S 
BRANCH  23  24
ATOM     24  C   UNL     1       0.774  10.807  20.169  0.00  0.00    +0.000 A 
ATOM     25  N   UNL     1       1.270  11.340  21.261  0.00  0.00    +0.000 NA
ATOM     26  N   UNL     1       0.541  12.480  21.528  0.00  0.00    +0.000 NA
ATOM     27  C   UNL     1      -0.361  12.611  20.582  0.00  0.00    +0.000 A 
ATOM     28  N   UNL     1      -0.224  11.598  19.683  0.00  0.00    +0.000 N 
ATOM     29  C   UNL     1      -0.997  11.411  18.484  0.00  0.00    +0.000 C 
ENDBRANCH  23  24
ENDBRANCH  22  23
ENDBRANCH   1  22
TORSDOF 5
ENDMDL
MODEL 7
REMARK VINA RESULT:      -7.7      3.940      4.853
REMARK  Name = 
REMARK  7 active torsions:
REMARK  status: ('A' for Active; 'I' for Inactive)
REMARK    1  A    between atoms: C_1  and  C_2
REMARK    2  A    between atoms: C_2  and  S_3
REMARK    3  A    between atoms: C_2  and  C_10
REMARK    4  A    between atoms: S_3  and  C_4
REMARK    5  A    between atoms: N_8  and  C_9
REMARK    6  A    between atoms: C_16  and  C_18
REMARK    7  A    between atoms: C_22  and  C_23
REMARK                            x       y       z     vdW  Elec       q    Type
REMARK                         _______ _______ _______ _____ _____    ______ ____
ROOT
ATOM      1  C   UNL     1       0.292  10.964  20.807  0.00  0.00    +0.000 A 
ATOM      2  C   UNL     1       0.735  11.859  19.828  0.00  0.00    +0.000 A 
ATOM      3  C   UNL     1       1.472  11.375  18.764  0.00  0.00    +0.000 A 
ATOM      4  N   UNL     1       1.796  10.080  18.613  0.00  0.00    +0.000 NA
ATOM      5  C   UNL     1       1.377   9.200  19.535  0.00  0.00    +0.000 A 
ATOM      6  N   UNL     1       1.749   7.857  19.416  0.00  0.00    +0.000 N 
ATOM      7  C   UNL     1       2.539   7.360  18.393  0.00  0.00    +0.000 C 
ATOM      8  O   UNL     1       2.989   7.968  17.423  0.00  0.00    +0.000 OA
ATOM      9  C   UNL     1       0.606   9.597  20.624  0.00  0.00    +0.000 A 
ATOM     10  H   UNL     1       1.476   7.199  20.137  0.00  0.00    +0.000 HD
ENDROOT
BRANCH   7  11
ATOM     11  C   UNL     1       2.872   5.910  18.520  0.00  0.00    +0.000 A 
ATOM     12  C   UNL     1       3.631   5.293  17.531  0.00  0.00    +0.000 A 
ATOM     13  C   UNL     1       3.993   3.965  17.706  0.00  0.00    +0.000 A 
ATOM     14  C   UNL     1       3.591   3.300  18.862  0.00  0.00    +0.000 A 
ATOM     15  C   UNL     1       2.820   3.977  19.814  0.00  0.00    +0.000 A 
ATOM     16  N   UNL     1       2.445   5.280  19.650  0.00  0.00    +0.000 NA
BRANCH  15  17
ATOM     17  C   UNL     1       2.404   3.265  21.095  0.00  0.00    +0.000 C 
ATOM     18  F   UNL     1       2.263   4.101  22.164  0.00  0.00    +0.000 F 
ATOM     19  F   UNL     1       1.207   2.624  20.971  0.00  0.00    +0.000 F 
ATOM     20  F   UNL     1       3.300   2.315  21.486  0.00  0.00    +0.000 F 
ENDBRANCH  15  17
ENDBRANCH   7  11
BRANCH   1  22
ATOM     21  C   UNL     1      -0.829  10.266  23.019  0.00  0.00    +0.000 C 
ATOM     22  C   UNL     1      -0.464  11.413  22.062  0.00  0.00    +0.000 C 
BRANCH  22  23
ATOM     23  S   UNL     1      -1.995  12.289  21.519  0.00  0.00    +0.000 S 
BRANCH  23  24
ATOM     24  C   UNL     1      -2.773  12.684  23.004  0.00  0.00    +0.000 A 
ATOM     25  N   UNL     1      -3.797  12.084  23.563  0.00  0.00    +0.000 NA
ATOM     26  N   UNL     1      -4.130  12.806  24.690  0.00  0.00    +0.000 NA
ATOM     27  C   UNL     1      -3.288  13.809  24.787  0.00  0.00    +0.000 A 
ATOM     28  N   UNL     1      -2.390  13.748  23.766  0.00  0.00    +0.000 N 
ATOM     29  C   UNL     1      -1.286  14.643  23.546  0.00  0.00    +0.000 C 
ENDBRANCH  23  24
ENDBRANCH  22  23
ENDBRANCH   1  22
TORSDOF 5
ENDMDL
MODEL 8
REMARK VINA RESULT:      -7.7      1.777      2.139
REMARK  Name = 
REMARK  7 active torsions:
REMARK  status: ('A' for Active; 'I' for Inactive)
REMARK    1  A    between atoms: C_1  and  C_2
REMARK    2  A    between atoms: C_2  and  S_3
REMARK    3  A    between atoms: C_2  and  C_10
REMARK    4  A    between atoms: S_3  and  C_4
REMARK    5  A    between atoms: N_8  and  C_9
REMARK    6  A    between atoms: C_16  and  C_18
REMARK    7  A    between atoms: C_22  and  C_23
REMARK                            x       y       z     vdW  Elec       q    Type
REMARK                         _______ _______ _______ _____ _____    ______ ____
ROOT
ATOM      1  C   UNL     1       0.276  10.209  20.174  0.00  0.00    +0.000 A 
ATOM      2  C   UNL     1      -0.309   9.690  21.334  0.00  0.00    +0.000 A 
ATOM      3  C   UNL     1       0.064   8.433  21.766  0.00  0.00    +0.000 A 
ATOM      4  N   UNL     1       0.963   7.665  21.128  0.00  0.00    +0.000 NA
ATOM      5  C   UNL     1       1.544   8.141  20.016  0.00  0.00    +0.000 A 
ATOM      6  N   UNL     1       2.444   7.333  19.316  0.00  0.00    +0.000 N 
ATOM      7  C   UNL     1       2.786   6.046  19.694  0.00  0.00    +0.000 C 
ATOM      8  O   UNL     1       2.419   5.430  20.693  0.00  0.00    +0.000 OA
ATOM      9  C   UNL     1       1.248   9.411  19.527  0.00  0.00    +0.000 A 
ATOM     10  H   UNL     1       2.847   7.672  18.449  0.00  0.00    +0.000 HD
ENDROOT
BRANCH   7  11
ATOM     11  C   UNL     1       3.704   5.348  18.745  0.00  0.00    +0.000 A 
ATOM     12  C   UNL     1       3.169   4.565  17.728  0.00  0.00    +0.000 A 
ATOM     13  C   UNL     1       4.036   3.986  16.812  0.00  0.00    +0.000 A 
ATOM     14  C   UNL     1       5.404   4.212  16.939  0.00  0.00    +0.000 A 
ATOM     15  C   UNL     1       5.878   5.003  17.993  0.00  0.00    +0.000 A 
ATOM     16  N   UNL     1       5.037   5.568  18.909  0.00  0.00    +0.000 NA
BRANCH  15  17
ATOM     17  C   UNL     1       7.370   5.280  18.118  0.00  0.00    +0.000 C 
ATOM     18  F   UNL     1       7.781   5.499  19.401  0.00  0.00    +0.000 F 
ATOM     19  F   UNL     1       8.133   4.246  17.661  0.00  0.00    +0.000 F 
ATOM     20  F   UNL     1       7.766   6.378  17.413  0.00  0.00    +0.000 F 
ENDBRANCH  15  17
ENDBRANCH   7  11
BRANCH   1  22
ATOM     21  C   UNL     1       0.992  12.251  18.775  0.00  0.00    +0.000 C 
ATOM     22  C   UNL     1      -0.127  11.560  19.573  0.00  0.00    +0.000 C 
BRANCH  22  23
ATOM     23  S   UNL     1      -0.679  12.653  20.955  0.00  0.00    +0.000 S 
BRANCH  23  24
ATOM     24  C   UNL     1      -2.396  12.597  20.842  0.00  0.00    +0.000 A 
ATOM     25  N   UNL     1      -3.135  12.605  19.757  0.00  0.00    +0.000 NA
ATOM     26  N   UNL     1      -4.453  12.644  20.159  0.00  0.00    +0.000 NA
ATOM     27  C   UNL     1      -4.474  12.642  21.472  0.00  0.00    +0.000 A 
ATOM     28  N   UNL     1      -3.199  12.573  21.944  0.00  0.00    +0.000 N 
ATOM     29  C   UNL     1      -2.803  12.509  23.326  0.00  0.00    +0.000 C 
ENDBRANCH  23  24
ENDBRANCH  22  23
ENDBRANCH   1  22
TORSDOF 5
ENDMDL
MODEL 9
REMARK VINA RESULT:      -7.7      2.306      3.383
REMARK  Name = 
REMARK  7 active torsions:
REMARK  status: ('A' for Active; 'I' for Inactive)
REMARK    1  A    between atoms: C_1  and  C_2
REMARK    2  A    between atoms: C_2  and  S_3
REMARK    3  A    between atoms: C_2  and  C_10
REMARK    4  A    between atoms: S_3  and  C_4
REMARK    5  A    between atoms: N_8  and  C_9
REMARK    6  A    between atoms: C_16  and  C_18
REMARK    7  A    between atoms: C_22  and  C_23
REMARK                            x       y       z     vdW  Elec       q    Type
REMARK                         _______ _______ _______ _____ _____    ______ ____
ROOT
ATOM      1  C   UNL     1       0.331  10.329  20.009  0.00  0.00    +0.000 A 
ATOM      2  C   UNL     1      -0.258   9.854  21.186  0.00  0.00    +0.000 A 
ATOM      3  C   UNL     1       0.097   8.605  21.654  0.00  0.00    +0.000 A 
ATOM      4  N   UNL     1       0.982   7.804  21.037  0.00  0.00    +0.000 NA
ATOM      5  C   UNL     1       1.566   8.238  19.909  0.00  0.00    +0.000 A 
ATOM      6  N   UNL     1       2.452   7.396  19.230  0.00  0.00    +0.000 N 
ATOM      7  C   UNL     1       2.775   6.115  19.646  0.00  0.00    +0.000 C 
ATOM      8  O   UNL     1       2.402   5.536  20.664  0.00  0.00    +0.000 OA
ATOM      9  C   UNL     1       1.288   9.498  19.383  0.00  0.00    +0.000 A 
ATOM     10  H   UNL     1       2.856   7.702  18.353  0.00  0.00    +0.000 HD
ENDROOT
BRANCH   7  11
ATOM     11  C   UNL     1       3.679   5.375  18.715  0.00  0.00    +0.000 A 
ATOM     12  C   UNL     1       3.129   4.539  17.749  0.00  0.00    +0.000 A 
ATOM     13  C   UNL     1       3.983   3.920  16.846  0.00  0.00    +0.000 A 
ATOM     14  C   UNL     1       5.351   4.159  16.935  0.00  0.00    +0.000 A 
ATOM     15  C   UNL     1       5.840   5.005  17.939  0.00  0.00    +0.000 A 
ATOM     16  N   UNL     1       5.014   5.611  18.842  0.00  0.00    +0.000 NA
BRANCH  15  17
ATOM     17  C   UNL     1       7.333   5.296  18.021  0.00  0.00    +0.000 C 
ATOM     18  F   UNL     1       7.775   5.538  19.289  0.00  0.00    +0.000 F 
ATOM     19  F   UNL     1       8.092   4.261  17.561  0.00  0.00    +0.000 F 
ATOM     20  F   UNL     1       7.701   6.385  17.289  0.00  0.00    +0.000 F 
ENDBRANCH  15  17
ENDBRANCH   7  11
BRANCH   1  22
ATOM     21  C   UNL     1      -1.113  11.551  18.260  0.00  0.00    +0.000 C 
ATOM     22  C   UNL     1      -0.054  11.667  19.369  0.00  0.00    +0.000 C 
BRANCH  22  23
ATOM     23  S   UNL     1       1.483  12.435  18.692  0.00  0.00    +0.000 S 
BRANCH  23  24
ATOM     24  C   UNL     1       1.182  14.123  18.845  0.00  0.00    +0.000 A 
ATOM     25  N   UNL     1       0.085  14.714  19.255  0.00  0.00    +0.000 NA
ATOM     26  N   UNL     1       0.276  16.073  19.119  0.00  0.00    +0.000 NA
ATOM     27  C   UNL     1       1.486  16.264  18.647  0.00  0.00    +0.000 A 
ATOM     28  N   UNL     1       2.108  15.062  18.496  0.00  0.00    +0.000 N 
ATOM     29  C   UNL     1       3.456  14.850  18.042  0.00  0.00    +0.000 C 
ENDBRANCH  23  24
ENDBRANCH  22  23
ENDBRANCH   1  22
TORSDOF 5
ENDMDL
