MODEL 1
REMARK VINA RESULT:      -9.8      0.000      0.000
REMARK  Name = 
REMARK  6 active torsions:
REMARK  status: ('A' for Active; 'I' for Inactive)
REMARK    1  A    between atoms: C_1  and  N_2
REMARK    2  A    between atoms: C_6  and  C_7
REMARK    3  A    between atoms: C_7  and  C_8
REMARK    4  A    between atoms: C_8  and  C_9
REMARK    5  A    between atoms: C_13  and  N_14
REMARK    6  A    between atoms: C_21  and  C_22
REMARK                            x       y       z     vdW  Elec       q    Type
REMARK                         _______ _______ _______ _____ _____    ______ ____
ROOT
ATOM      1  C   UNL     1       2.909   5.859  18.581  0.00  0.00    +0.000 A 
ATOM      2  C   UNL     1       3.538   6.389  17.444  0.00  0.00    +0.000 A 
ATOM      3  C   UNL     1       3.397   7.735  17.088  0.00  0.00    +0.000 A 
ATOM      4  C   UNL     1       2.636   8.606  17.871  0.00  0.00    +0.000 A 
ATOM      5  C   UNL     1       2.009   8.134  19.018  0.00  0.00    +0.000 A 
ATOM      6  C   UNL     1       2.147   6.766  19.327  0.00  0.00    +0.000 A 
ENDROOT
BRANCH   5   7
ATOM      7  N   UNL     1       1.279   8.957  19.908  0.00  0.00    +0.000 N 
ATOM      8  C   UNL     1       0.501  10.066  19.389  0.00  0.00    +0.000 C 
ATOM      9  C   UNL     1      -0.252  10.560  20.566  0.00  0.00    +0.000 A 
ATOM     10  C   UNL     1       0.149   9.858  21.699  0.00  0.00    +0.000 A 
ATOM     11  C   UNL     1      -0.369  10.142  22.946  0.00  0.00    +0.000 A 
ATOM     12  C   UNL     1      -1.319  11.165  23.031  0.00  0.00    +0.000 A 
ATOM     13  C   UNL     1      -1.751  11.854  21.879  0.00  0.00    +0.000 A 
ATOM     14  C   UNL     1      -1.225  11.552  20.613  0.00  0.00    +0.000 A 
ATOM     15  C   UNL     1       1.106   8.811  21.287  0.00  0.00    +0.000 C 
ATOM     16  O   UNL     1       1.591   8.008  22.062  0.00  0.00    +0.000 OA
BRANCH  14  17
ATOM     17  C   UNL     1      -1.724  12.253  19.373  0.00  0.00    +0.000 C 
ATOM     18  F   UNL     1      -2.275  11.412  18.455  0.00  0.00    +0.000 F 
ATOM     19  F   UNL     1      -2.688  13.171  19.656  0.00  0.00    +0.000 F 
ATOM     20  F   UNL     1      -0.740  12.921  18.718  0.00  0.00    +0.000 F 
ENDBRANCH  14  17
ENDBRANCH   5   7
BRANCH   1  21
ATOM     21  C   UNL     1       3.041   4.332  19.071  0.00  0.00    +0.000 C 
ATOM     22  C   UNL     1       1.765   3.444  18.856  0.00  0.00    +0.000 C 
ATOM     23  C   UNL     1       1.392   3.642  20.336  0.00  0.00    +0.000 C 
ATOM     24  F   UNL     1       0.965   2.530  20.976  0.00  0.00    +0.000 F 
ATOM     25  F   UNL     1       0.473   4.603  20.579  0.00  0.00    +0.000 F 
ATOM     26  C   UNL     1       2.851   4.041  20.608  0.00  0.00    +0.000 C 
BRANCH  21  27
ATOM     27  C   UNL     1       4.321   3.703  18.467  0.00  0.00    +0.000 C 
BRANCH  27  33
ATOM     28  C   UNL     1       6.656   4.414  16.399  0.00  0.00    +0.000 C 
ATOM     29  N   UNL     1       6.597   4.710  17.805  0.00  0.00    +0.000 N 
ATOM     30  C   UNL     1       7.606   5.298  18.512  0.00  0.00    +0.000 A 
ATOM     31  N   UNL     1       7.244   5.433  19.763  0.00  0.00    +0.000 NA
ATOM     32  N   UNL     1       5.981   4.910  19.889  0.00  0.00    +0.000 NA
ATOM     33  C   UNL     1       5.592   4.457  18.710  0.00  0.00    +0.000 A 
ENDBRANCH  27  33
ENDBRANCH  21  27
ENDBRANCH   1  21
TORSDOF 5
ENDMDL
MODEL 2
REMARK VINA RESULT:      -9.7      2.514      8.334
REMARK  Name = 
REMARK  6 active torsions:
REMARK  status: ('A' for Active; 'I' for Inactive)
REMARK    1  A    between atoms: C_1  and  N_2
REMARK    2  A    between atoms: C_6  and  C_7
REMARK    3  A    between atoms: C_7  and  C_8
REMARK    4  A    between atoms: C_8  and  C_9
REMARK    5  A    between atoms: C_13  and  N_14
REMARK    6  A    between atoms: C_21  and  C_22
REMARK                            x       y       z     vdW  Elec       q    Type
REMARK                         _______ _______ _______ _____ _____    ______ ____
ROOT
ATOM      1  C   UNL     1      -0.705  11.047  20.213  0.00  0.00    +0.000 A 
ATOM      2  C   UNL     1      -0.775  11.206  21.606  0.00  0.00    +0.000 A 
ATOM      3  C   UNL     1      -0.136  10.321  22.480  0.00  0.00    +0.000 A 
ATOM      4  C   UNL     1       0.619   9.252  21.989  0.00  0.00    +0.000 A 
ATOM      5  C   UNL     1       0.736   9.062  20.618  0.00  0.00    +0.000 A 
ATOM      6  C   UNL     1       0.051   9.955  19.769  0.00  0.00    +0.000 A 
ENDROOT
BRANCH   5   7
ATOM      7  N   UNL     1       1.534   8.052  20.031  0.00  0.00    +0.000 N 
ATOM      8  C   UNL     1       1.576   6.730  20.627  0.00  0.00    +0.000 C 
ATOM      9  C   UNL     1       2.343   5.919  19.652  0.00  0.00    +0.000 A 
ATOM     10  C   UNL     1       2.803   6.742  18.627  0.00  0.00    +0.000 A 
ATOM     11  C   UNL     1       3.581   6.250  17.600  0.00  0.00    +0.000 A 
ATOM     12  C   UNL     1       3.891   4.885  17.623  0.00  0.00    +0.000 A 
ATOM     13  C   UNL     1       3.396   4.045  18.641  0.00  0.00    +0.000 A 
ATOM     14  C   UNL     1       2.599   4.552  19.678  0.00  0.00    +0.000 A 
ATOM     15  C   UNL     1       2.269   8.101  18.843  0.00  0.00    +0.000 C 
ATOM     16  O   UNL     1       2.467   9.026  18.075  0.00  0.00    +0.000 OA
BRANCH  14  17
ATOM     17  C   UNL     1       2.027   3.644  20.740  0.00  0.00    +0.000 C 
ATOM     18  F   UNL     1       2.392   2.340  20.597  0.00  0.00    +0.000 F 
ATOM     19  F   UNL     1       2.427   4.004  21.990  0.00  0.00    +0.000 F 
ATOM     20  F   UNL     1       0.669   3.648  20.755  0.00  0.00    +0.000 F 
ENDBRANCH  14  17
ENDBRANCH   5   7
BRANCH   1  21
ATOM     21  C   UNL     1      -1.390  12.034  19.144  0.00  0.00    +0.000 C 
ATOM     22  C   UNL     1      -2.959  12.061  19.163  0.00  0.00    +0.000 C 
ATOM     23  C   UNL     1      -2.978  11.113  17.950  0.00  0.00    +0.000 C 
ATOM     24  F   UNL     1      -3.872  11.428  16.986  0.00  0.00    +0.000 F 
ATOM     25  F   UNL     1      -3.166   9.806  18.238  0.00  0.00    +0.000 F 
ATOM     26  C   UNL     1      -1.525  11.521  17.660  0.00  0.00    +0.000 C 
BRANCH  21  27
ATOM     27  C   UNL     1      -0.763  13.445  19.266  0.00  0.00    +0.000 C 
BRANCH  27  33
ATOM     28  C   UNL     1       1.164  14.381  21.641  0.00  0.00    +0.000 C 
ATOM     29  N   UNL     1       1.533  13.939  20.324  0.00  0.00    +0.000 N 
ATOM     30  C   UNL     1       2.812  13.922  19.846  0.00  0.00    +0.000 A 
ATOM     31  N   UNL     1       2.815  13.464  18.618  0.00  0.00    +0.000 NA
ATOM     32  N   UNL     1       1.515  13.190  18.275  0.00  0.00    +0.000 NA
ATOM     33  C   UNL     1       0.735  13.490  19.297  0.00  0.00    +0.000 A 
ENDBRANCH  27  33
ENDBRANCH  21  27
ENDBRANCH   1  21
TORSDOF 5
ENDMDL
MODEL 3
REMARK VINA RESULT:      -9.7      2.473      8.925
REMARK  Name = 
REMARK  6 active torsions:
REMARK  status: ('A' for Active; 'I' for Inactive)
REMARK    1  A    between atoms: C_1  and  N_2
REMARK    2  A    between atoms: C_6  and  C_7
REMARK    3  A    between atoms: C_7  and  C_8
REMARK    4  A    between atoms: C_8  and  C_9
REMARK    5  A    between atoms: C_13  and  N_14
REMARK    6  A    between atoms: C_21  and  C_22
REMARK                            x       y       z     vdW  Elec       q    Type
REMARK                         _______ _______ _______ _____ _____    ______ ____
ROOT
ATOM      1  C   UNL     1      -0.650  10.822  20.490  0.00  0.00    +0.000 A 
ATOM      2  C   UNL     1      -0.609  10.975  21.884  0.00  0.00    +0.000 A 
ATOM      3  C   UNL     1       0.112  10.094  22.699  0.00  0.00    +0.000 A 
ATOM      4  C   UNL     1       0.837   9.037  22.142  0.00  0.00    +0.000 A 
ATOM      5  C   UNL     1       0.844   8.855  20.765  0.00  0.00    +0.000 A 
ATOM      6  C   UNL     1       0.081   9.742  19.980  0.00  0.00    +0.000 A 
ENDROOT
BRANCH   5   7
ATOM      7  N   UNL     1       1.606   7.859  20.109  0.00  0.00    +0.000 N 
ATOM      8  C   UNL     1       1.605   6.500  20.619  0.00  0.00    +0.000 C 
ATOM      9  C   UNL     1       2.340   5.728  19.589  0.00  0.00    +0.000 A 
ATOM     10  C   UNL     1       2.823   6.599  18.616  0.00  0.00    +0.000 A 
ATOM     11  C   UNL     1       3.578   6.148  17.554  0.00  0.00    +0.000 A 
ATOM     12  C   UNL     1       3.842   4.775  17.488  0.00  0.00    +0.000 A 
ATOM     13  C   UNL     1       3.324   3.888  18.454  0.00  0.00    +0.000 A 
ATOM     14  C   UNL     1       2.550   4.355  19.527  0.00  0.00    +0.000 A 
ATOM     15  C   UNL     1       2.336   7.959  18.922  0.00  0.00    +0.000 C 
ATOM     16  O   UNL     1       2.561   8.923  18.213  0.00  0.00    +0.000 OA
BRANCH  14  17
ATOM     17  C   UNL     1       1.953   3.401  20.533  0.00  0.00    +0.000 C 
ATOM     18  F   UNL     1       0.602   3.517  20.661  0.00  0.00    +0.000 F 
ATOM     19  F   UNL     1       2.180   2.100  20.203  0.00  0.00    +0.000 F 
ATOM     20  F   UNL     1       2.458   3.574  21.781  0.00  0.00    +0.000 F 
ENDBRANCH  14  17
ENDBRANCH   5   7
BRANCH   1  21
ATOM     21  C   UNL     1      -1.433  11.805  19.485  0.00  0.00    +0.000 C 
ATOM     22  C   UNL     1      -0.585  12.348  18.282  0.00  0.00    +0.000 C 
ATOM     23  C   UNL     1      -0.378  13.671  19.040  0.00  0.00    +0.000 C 
ATOM     24  F   UNL     1      -0.511  14.791  18.294  0.00  0.00    +0.000 F 
ATOM     25  F   UNL     1       0.798  13.785  19.698  0.00  0.00    +0.000 F 
ATOM     26  C   UNL     1      -1.589  13.313  19.914  0.00  0.00    +0.000 C 
BRANCH  21  27
ATOM     27  C   UNL     1      -2.757  11.139  19.036  0.00  0.00    +0.000 C 
BRANCH  27  33
ATOM     28  C   UNL     1      -5.104  12.060  17.067  0.00  0.00    +0.000 C 
ATOM     29  N   UNL     1      -3.942  11.272  16.753  0.00  0.00    +0.000 N 
ATOM     30  C   UNL     1      -3.695  10.716  15.532  0.00  0.00    +0.000 A 
ATOM     31  N   UNL     1      -2.559  10.065  15.569  0.00  0.00    +0.000 NA
ATOM     32  N   UNL     1      -2.055  10.181  16.840  0.00  0.00    +0.000 NA
ATOM     33  C   UNL     1      -2.896  10.897  17.564  0.00  0.00    +0.000 A 
ENDBRANCH  27  33
ENDBRANCH  21  27
ENDBRANCH   1  21
TORSDOF 5
ENDMDL
MODEL 4
REMARK VINA RESULT:      -9.7      2.564      8.622
REMARK  Name = 
REMARK  6 active torsions:
REMARK  status: ('A' for Active; 'I' for Inactive)
REMARK    1  A    between atoms: C_1  and  N_2
REMARK    2  A    between atoms: C_6  and  C_7
REMARK    3  A    between atoms: C_7  and  C_8
REMARK    4  A    between atoms: C_8  and  C_9
REMARK    5  A    between atoms: C_13  and  N_14
REMARK    6  A    between atoms: C_21  and  C_22
REMARK                            x       y       z     vdW  Elec       q    Type
REMARK                         _______ _______ _______ _____ _____    ______ ____
ROOT
ATOM      1  C   UNL     1      -0.758  11.105  20.775  0.00  0.00    +0.000 A 
ATOM      2  C   UNL     1      -0.856  11.107  22.175  0.00  0.00    +0.000 A 
ATOM      3  C   UNL     1      -0.257  10.112  22.954  0.00  0.00    +0.000 A 
ATOM      4  C   UNL     1       0.483   9.086  22.359  0.00  0.00    +0.000 A 
ATOM      5  C   UNL     1       0.626   9.051  20.978  0.00  0.00    +0.000 A 
ATOM      6  C   UNL     1      -0.018  10.052  20.224  0.00  0.00    +0.000 A 
ENDROOT
BRANCH   5   7
ATOM      7  N   UNL     1       1.414   8.094  20.296  0.00  0.00    +0.000 N 
ATOM      8  C   UNL     1       1.519   6.743  20.817  0.00  0.00    +0.000 C 
ATOM      9  C   UNL     1       2.249   6.005  19.759  0.00  0.00    +0.000 A 
ATOM     10  C   UNL     1       2.633   6.892  18.757  0.00  0.00    +0.000 A 
ATOM     11  C   UNL     1       3.364   6.474  17.664  0.00  0.00    +0.000 A 
ATOM     12  C   UNL     1       3.705   5.119  17.597  0.00  0.00    +0.000 A 
ATOM     13  C   UNL     1       3.288   4.214  18.595  0.00  0.00    +0.000 A 
ATOM     14  C   UNL     1       2.537   4.646  19.699  0.00  0.00    +0.000 A 
ATOM     15  C   UNL     1       2.081   8.224  19.074  0.00  0.00    +0.000 C 
ATOM     16  O   UNL     1       2.214   9.192  18.348  0.00  0.00    +0.000 OA
BRANCH  14  17
ATOM     17  C   UNL     1       2.046   3.669  20.740  0.00  0.00    +0.000 C 
ATOM     18  F   UNL     1       2.438   3.980  22.007  0.00  0.00    +0.000 F 
ATOM     19  F   UNL     1       0.688   3.603  20.780  0.00  0.00    +0.000 F 
ATOM     20  F   UNL     1       2.486   2.404  20.518  0.00  0.00    +0.000 F 
ENDBRANCH  14  17
ENDBRANCH   5   7
BRANCH   1  21
ATOM     21  C   UNL     1      -1.395  12.225  19.812  0.00  0.00    +0.000 C 
ATOM     22  C   UNL     1      -2.912  12.027  19.463  0.00  0.00    +0.000 C 
ATOM     23  C   UNL     1      -2.510  11.424  18.106  0.00  0.00    +0.000 C 
ATOM     24  F   UNL     1      -3.240  11.844  17.049  0.00  0.00    +0.000 F 
ATOM     25  F   UNL     1      -2.497  10.073  18.053  0.00  0.00    +0.000 F 
ATOM     26  C   UNL     1      -1.134  12.090  18.263  0.00  0.00    +0.000 C 
BRANCH  21  27
ATOM     27  C   UNL     1      -1.087  13.633  20.380  0.00  0.00    +0.000 C 
BRANCH  27  33
ATOM     28  C   UNL     1       2.080  13.229  20.590  0.00  0.00    +0.000 C 
ATOM     29  N   UNL     1       1.361  14.216  19.830  0.00  0.00    +0.000 N 
ATOM     30  C   UNL     1       1.950  15.217  19.112  0.00  0.00    +0.000 A 
ATOM     31  N   UNL     1       1.028  15.944  18.534  0.00  0.00    +0.000 NA
ATOM     32  N   UNL     1      -0.192  15.425  18.888  0.00  0.00    +0.000 NA
ATOM     33  C   UNL     1       0.004  14.389  19.684  0.00  0.00    +0.000 A 
ENDBRANCH  27  33
ENDBRANCH  21  27
ENDBRANCH   1  21
TORSDOF 5
ENDMDL
MODEL 5
REMARK VINA RESULT:      -9.7      2.499      8.607
REMARK  Name = 
REMARK  6 active torsions:
REMARK  status: ('A' for Active; 'I' for Inactive)
REMARK    1  A    between atoms: C_1  and  N_2
REMARK    2  A    between atoms: C_6  and  C_7
REMARK    3  A    between atoms: C_7  and  C_8
REMARK    4  A    between atoms: C_8  and  C_9
REMARK    5  A    between atoms: C_13  and  N_14
REMARK    6  A    between atoms: C_21  and  C_22
REMARK                            x       y       z     vdW  Elec       q    Type
REMARK                         _______ _______ _______ _____ _____    ______ ____
ROOT
ATOM      1  C   UNL     1      -0.767  11.100  20.789  0.00  0.00    +0.000 A 
ATOM      2  C   UNL     1      -0.894  11.081  22.187  0.00  0.00    +0.000 A 
ATOM      3  C   UNL     1      -0.318  10.070  22.964  0.00  0.00    +0.000 A 
ATOM      4  C   UNL     1       0.428   9.049  22.368  0.00  0.00    +0.000 A 
ATOM      5  C   UNL     1       0.600   9.033  20.990  0.00  0.00    +0.000 A 
ATOM      6  C   UNL     1      -0.023  10.050  20.238  0.00  0.00    +0.000 A 
ENDROOT
BRANCH   5   7
ATOM      7  N   UNL     1       1.395   8.082  20.309  0.00  0.00    +0.000 N 
ATOM      8  C   UNL     1       1.495   6.728  20.821  0.00  0.00    +0.000 C 
ATOM      9  C   UNL     1       2.237   5.997  19.767  0.00  0.00    +0.000 A 
ATOM     10  C   UNL     1       2.632   6.892  18.776  0.00  0.00    +0.000 A 
ATOM     11  C   UNL     1       3.375   6.483  17.688  0.00  0.00    +0.000 A 
ATOM     12  C   UNL     1       3.718   5.128  17.615  0.00  0.00    +0.000 A 
ATOM     13  C   UNL     1       3.289   4.215  18.601  0.00  0.00    +0.000 A 
ATOM     14  C   UNL     1       2.526   4.639  19.699  0.00  0.00    +0.000 A 
ATOM     15  C   UNL     1       2.075   8.221  19.096  0.00  0.00    +0.000 C 
ATOM     16  O   UNL     1       2.217   9.195  18.378  0.00  0.00    +0.000 OA
BRANCH  14  17
ATOM     17  C   UNL     1       2.024   3.654  20.727  0.00  0.00    +0.000 C 
ATOM     18  F   UNL     1       2.402   3.954  22.001  0.00  0.00    +0.000 F 
ATOM     19  F   UNL     1       0.665   3.590  20.753  0.00  0.00    +0.000 F 
ATOM     20  F   UNL     1       2.464   2.390  20.499  0.00  0.00    +0.000 F 
ENDBRANCH  14  17
ENDBRANCH   5   7
BRANCH   1  21
ATOM     21  C   UNL     1      -1.377  12.238  19.831  0.00  0.00    +0.000 C 
ATOM     22  C   UNL     1      -2.923  12.142  19.573  0.00  0.00    +0.000 C 
ATOM     23  C   UNL     1      -2.643  11.477  18.214  0.00  0.00    +0.000 C 
ATOM     24  F   UNL     1      -3.402  11.922  17.188  0.00  0.00    +0.000 F 
ATOM     25  F   UNL     1      -2.730  10.128  18.200  0.00  0.00    +0.000 F 
ATOM     26  C   UNL     1      -1.217  12.045  18.275  0.00  0.00    +0.000 C 
BRANCH  21  27
ATOM     27  C   UNL     1      -0.938  13.634  20.339  0.00  0.00    +0.000 C 
BRANCH  27  33
ATOM     28  C   UNL     1      -0.341  16.211  18.539  0.00  0.00    +0.000 C 
ATOM     29  N   UNL     1       0.593  15.222  19.008  0.00  0.00    +0.000 N 
ATOM     30  C   UNL     1       1.917  15.196  18.681  0.00  0.00    +0.000 A 
ATOM     31  N   UNL     1       2.494  14.177  19.268  0.00  0.00    +0.000 NA
ATOM     32  N   UNL     1       1.531  13.511  19.983  0.00  0.00    +0.000 NA
ATOM     33  C   UNL     1       0.376  14.130  19.817  0.00  0.00    +0.000 A 
ENDBRANCH  27  33
ENDBRANCH  21  27
ENDBRANCH   1  21
TORSDOF 5
ENDMDL
MODEL 6
REMARK VINA RESULT:      -9.4      3.320      9.297
REMARK  Name = 
REMARK  6 active torsions:
REMARK  status: ('A' for Active; 'I' for Inactive)
REMARK    1  A    between atoms: C_1  and  N_2
REMARK    2  A    between atoms: C_6  and  C_7
REMARK    3  A    between atoms: C_7  and  C_8
REMARK    4  A    between atoms: C_8  and  C_9
REMARK    5  A    between atoms: C_13  and  N_14
REMARK    6  A    between atoms: C_21  and  C_22
REMARK                            x       y       z     vdW  Elec       q    Type
REMARK                         _______ _______ _______ _____ _____    ______ ____
ROOT
ATOM      1  C   UNL     1      -1.491  11.062  19.528  0.00  0.00    +0.000 A 
ATOM      2  C   UNL     1      -1.208  11.784  20.698  0.00  0.00    +0.000 A 
ATOM      3  C   UNL     1      -0.094  11.491  21.491  0.00  0.00    +0.000 A 
ATOM      4  C   UNL     1       0.793  10.473  21.128  0.00  0.00    +0.000 A 
ATOM      5  C   UNL     1       0.568   9.742  19.969  0.00  0.00    +0.000 A 
ATOM      6  C   UNL     1      -0.582  10.045  19.213  0.00  0.00    +0.000 A 
ENDROOT
BRANCH   5   7
ATOM      7  N   UNL     1       1.448   8.745  19.487  0.00  0.00    +0.000 N 
ATOM      8  C   UNL     1       1.528   7.465  20.167  0.00  0.00    +0.000 C 
ATOM      9  C   UNL     1       2.386   6.640  19.284  0.00  0.00    +0.000 A 
ATOM     10  C   UNL     1       2.856   7.424  18.234  0.00  0.00    +0.000 A 
ATOM     11  C   UNL     1       3.712   6.915  17.279  0.00  0.00    +0.000 A 
ATOM     12  C   UNL     1       4.091   5.573  17.403  0.00  0.00    +0.000 A 
ATOM     13  C   UNL     1       3.588   4.770  18.447  0.00  0.00    +0.000 A 
ATOM     14  C   UNL     1       2.712   5.294  19.409  0.00  0.00    +0.000 A 
ATOM     15  C   UNL     1       2.241   8.762  18.336  0.00  0.00    +0.000 C 
ATOM     16  O   UNL     1       2.430   9.648  17.523  0.00  0.00    +0.000 OA
BRANCH  14  17
ATOM     17  C   UNL     1       2.133   4.422  20.497  0.00  0.00    +0.000 C 
ATOM     18  F   UNL     1       0.772   4.395  20.509  0.00  0.00    +0.000 F 
ATOM     19  F   UNL     1       2.526   3.125  20.376  0.00  0.00    +0.000 F 
ATOM     20  F   UNL     1       2.506   4.821  21.740  0.00  0.00    +0.000 F 
ENDBRANCH  14  17
ENDBRANCH   5   7
BRANCH   1  21
ATOM     21  C   UNL     1      -2.736  11.354  18.552  0.00  0.00    +0.000 C 
ATOM     22  C   UNL     1      -3.529  10.086  18.077  0.00  0.00    +0.000 C 
ATOM     23  C   UNL     1      -2.770  10.127  16.739  0.00  0.00    +0.000 C 
ATOM     24  F   UNL     1      -3.528   9.914  15.640  0.00  0.00    +0.000 F 
ATOM     25  F   UNL     1      -1.713   9.290  16.645  0.00  0.00    +0.000 F 
ATOM     26  C   UNL     1      -2.424  11.596  17.026  0.00  0.00    +0.000 C 
BRANCH  21  27
ATOM     27  C   UNL     1      -3.649  12.433  19.185  0.00  0.00    +0.000 C 
BRANCH  27  33
ATOM     28  C   UNL     1      -6.059  12.635  17.091  0.00  0.00    +0.000 C 
ATOM     29  N   UNL     1      -6.107  12.183  18.456  0.00  0.00    +0.000 N 
ATOM     30  C   UNL     1      -7.250  11.827  19.111  0.00  0.00    +0.000 A 
ATOM     31  N   UNL     1      -6.959  11.461  20.334  0.00  0.00    +0.000 NA
ATOM     32  N   UNL     1      -5.602  11.592  20.494  0.00  0.00    +0.000 NA
ATOM     33  C   UNL     1      -5.085  12.044  19.366  0.00  0.00    +0.000 A 
ENDBRANCH  27  33
ENDBRANCH  21  27
ENDBRANCH   1  21
TORSDOF 5
ENDMDL
MODEL 7
REMARK VINA RESULT:      -9.4      0.738      1.230
REMARK  Name = 
REMARK  6 active torsions:
REMARK  status: ('A' for Active; 'I' for Inactive)
REMARK    1  A    between atoms: C_1  and  N_2
REMARK    2  A    between atoms: C_6  and  C_7
REMARK    3  A    between atoms: C_7  and  C_8
REMARK    4  A    between atoms: C_8  and  C_9
REMARK    5  A    between atoms: C_13  and  N_14
REMARK    6  A    between atoms: C_21  and  C_22
REMARK                            x       y       z     vdW  Elec       q    Type
REMARK                         _______ _______ _______ _____ _____    ______ ____
ROOT
ATOM      1  C   UNL     1       2.943   6.186  19.039  0.00  0.00    +0.000 A 
ATOM      2  C   UNL     1       3.475   6.647  17.825  0.00  0.00    +0.000 A 
ATOM      3  C   UNL     1       3.186   7.926  17.335  0.00  0.00    +0.000 A 
ATOM      4  C   UNL     1       2.367   8.799  18.056  0.00  0.00    +0.000 A 
ATOM      5  C   UNL     1       1.830   8.396  19.273  0.00  0.00    +0.000 A 
ATOM      6  C   UNL     1       2.118   7.091  19.718  0.00  0.00    +0.000 A 
ENDROOT
BRANCH   5   7
ATOM      7  N   UNL     1       1.051   9.236  20.103  0.00  0.00    +0.000 N 
ATOM      8  C   UNL     1       0.182  10.234  19.505  0.00  0.00    +0.000 C 
ATOM      9  C   UNL     1      -0.591  10.770  20.650  0.00  0.00    +0.000 A 
ATOM     10  C   UNL     1      -0.121  10.202  21.832  0.00  0.00    +0.000 A 
ATOM     11  C   UNL     1      -0.643  10.554  23.059  0.00  0.00    +0.000 A 
ATOM     12  C   UNL     1      -1.668  11.506  23.075  0.00  0.00    +0.000 A 
ATOM     13  C   UNL     1      -2.167  12.056  21.876  0.00  0.00    +0.000 A 
ATOM     14  C   UNL     1      -1.637  11.686  20.631  0.00  0.00    +0.000 A 
ATOM     15  C   UNL     1       0.908   9.199  21.492  0.00  0.00    +0.000 C 
ATOM     16  O   UNL     1       1.464   8.506  22.325  0.00  0.00    +0.000 OA
BRANCH  14  17
ATOM     17  C   UNL     1      -2.205  12.235  19.345  0.00  0.00    +0.000 C 
ATOM     18  F   UNL     1      -2.597  11.272  18.466  0.00  0.00    +0.000 F 
ATOM     19  F   UNL     1      -3.305  13.007  19.560  0.00  0.00    +0.000 F 
ATOM     20  F   UNL     1      -1.318  13.012  18.671  0.00  0.00    +0.000 F 
ENDBRANCH  14  17
ENDBRANCH   5   7
BRANCH   1  21
ATOM     21  C   UNL     1       3.247   4.743  19.681  0.00  0.00    +0.000 C 
ATOM     22  C   UNL     1       2.390   3.559  19.109  0.00  0.00    +0.000 C 
ATOM     23  C   UNL     1       1.466   3.650  20.336  0.00  0.00    +0.000 C 
ATOM     24  F   UNL     1       1.114   2.465  20.882  0.00  0.00    +0.000 F 
ATOM     25  F   UNL     1       0.321   4.344  20.150  0.00  0.00    +0.000 F 
ATOM     26  C   UNL     1       2.583   4.408  21.070  0.00  0.00    +0.000 C 
BRANCH  21  27
ATOM     27  C   UNL     1       4.770   4.463  19.629  0.00  0.00    +0.000 C 
BRANCH  27  33
ATOM     28  C   UNL     1       7.463   5.701  18.425  0.00  0.00    +0.000 C 
ATOM     29  N   UNL     1       6.494   4.873  17.759  0.00  0.00    +0.000 N 
ATOM     30  C   UNL     1       6.544   4.538  16.437  0.00  0.00    +0.000 A 
ATOM     31  N   UNL     1       5.522   3.775  16.139  0.00  0.00    +0.000 NA
ATOM     32  N   UNL     1       4.776   3.616  17.279  0.00  0.00    +0.000 NA
ATOM     33  C   UNL     1       5.352   4.291  18.258  0.00  0.00    +0.000 A 
ENDBRANCH  27  33
ENDBRANCH  21  27
ENDBRANCH   1  21
TORSDOF 5
ENDMDL
MODEL 8
REMARK VINA RESULT:      -9.3      2.654      9.089
REMARK  Name = 
REMARK  6 active torsions:
REMARK  status: ('A' for Active; 'I' for Inactive)
REMARK    1  A    between atoms: C_1  and  N_2
REMARK    2  A    between atoms: C_6  and  C_7
REMARK    3  A    between atoms: C_7  and  C_8
REMARK    4  A    between atoms: C_8  and  C_9
REMARK    5  A    between atoms: C_13  and  N_14
REMARK    6  A    between atoms: C_21  and  C_22
REMARK                            x       y       z     vdW  Elec       q    Type
REMARK                         _______ _______ _______ _____ _____    ______ ____
ROOT
ATOM      1  C   UNL     1      -0.120  10.651  20.126  0.00  0.00    +0.000 A 
ATOM      2  C   UNL     1      -0.127  10.839  21.517  0.00  0.00    +0.000 A 
ATOM      3  C   UNL     1       0.480   9.924  22.385  0.00  0.00    +0.000 A 
ATOM      4  C   UNL     1       1.135   8.794  21.888  0.00  0.00    +0.000 A 
ATOM      5  C   UNL     1       1.186   8.572  20.517  0.00  0.00    +0.000 A 
ATOM      6  C   UNL     1       0.537   9.499  19.677  0.00  0.00    +0.000 A 
ENDROOT
BRANCH   5   7
ATOM      7  N   UNL     1       1.886   7.497  19.922  0.00  0.00    +0.000 N 
ATOM      8  C   UNL     1       1.793   6.169  20.501  0.00  0.00    +0.000 C 
ATOM      9  C   UNL     1       2.484   5.299  19.520  0.00  0.00    +0.000 A 
ATOM     10  C   UNL     1       3.031   6.086  18.510  0.00  0.00    +0.000 A 
ATOM     11  C   UNL     1       3.764   5.533  17.480  0.00  0.00    +0.000 A 
ATOM     12  C   UNL     1       3.938   4.144  17.487  0.00  0.00    +0.000 A 
ATOM     13  C   UNL     1       3.356   3.343  18.492  0.00  0.00    +0.000 A 
ATOM     14  C   UNL     1       2.605   3.914  19.530  0.00  0.00    +0.000 A 
ATOM     15  C   UNL     1       2.631   7.488  18.740  0.00  0.00    +0.000 C 
ATOM     16  O   UNL     1       2.924   8.398  17.986  0.00  0.00    +0.000 OA
BRANCH  14  17
ATOM     17  C   UNL     1       1.939   3.053  20.576  0.00  0.00    +0.000 C 
ATOM     18  F   UNL     1       1.848   1.740  20.226  0.00  0.00    +0.000 F 
ATOM     19  F   UNL     1       2.611   3.073  21.759  0.00  0.00    +0.000 F 
ATOM     20  F   UNL     1       0.669   3.451  20.849  0.00  0.00    +0.000 F 
ENDBRANCH  14  17
ENDBRANCH   5   7
BRANCH   1  21
ATOM     21  C   UNL     1      -0.771  11.667  19.063  0.00  0.00    +0.000 C 
ATOM     22  C   UNL     1       0.212  12.735  18.465  0.00  0.00    +0.000 C 
ATOM     23  C   UNL     1      -0.343  13.779  19.450  0.00  0.00    +0.000 C 
ATOM     24  F   UNL     1      -0.574  15.002  18.923  0.00  0.00    +0.000 F 
ATOM     25  F   UNL     1       0.395  13.974  20.566  0.00  0.00    +0.000 F 
ATOM     26  C   UNL     1      -1.585  12.892  19.628  0.00  0.00    +0.000 C 
BRANCH  21  27
ATOM     27  C   UNL     1      -1.522  10.864  17.972  0.00  0.00    +0.000 C 
BRANCH  27  33
ATOM     28  C   UNL     1      -3.257  10.903  15.285  0.00  0.00    +0.000 C 
ATOM     29  N   UNL     1      -3.676  11.254  16.614  0.00  0.00    +0.000 N 
ATOM     30  C   UNL     1      -4.909  11.748  16.929  0.00  0.00    +0.000 A 
ATOM     31  N   UNL     1      -4.979  11.964  18.219  0.00  0.00    +0.000 NA
ATOM     32  N   UNL     1      -3.766  11.622  18.763  0.00  0.00    +0.000 NA
ATOM     33  C   UNL     1      -2.970  11.207  17.794  0.00  0.00    +0.000 A 
ENDBRANCH  27  33
ENDBRANCH  21  27
ENDBRANCH   1  21
TORSDOF 5
ENDMDL
MODEL 9
REMARK VINA RESULT:      -9.3      2.835      9.292
REMARK  Name = 
REMARK  6 active torsions:
REMARK  status: ('A' for Active; 'I' for Inactive)
REMARK    1  A    between atoms: C_1  and  N_2
REMARK    2  A    between atoms: C_6  and  C_7
REMARK    3  A    between atoms: C_7  and  C_8
REMARK    4  A    between atoms: C_8  and  C_9
REMARK    5  A    between atoms: C_13  and  N_14
REMARK    6  A    between atoms: C_21  and  C_22
REMARK                            x       y       z     vdW  Elec       q    Type
REMARK                         _______ _______ _______ _____ _____    ______ ____
ROOT
ATOM      1  C   UNL     1      -1.048  11.008  20.482  0.00  0.00    +0.000 A 
ATOM      2  C   UNL     1      -0.957  11.242  21.863  0.00  0.00    +0.000 A 
ATOM      3  C   UNL     1      -0.134  10.466  22.687  0.00  0.00    +0.000 A 
ATOM      4  C   UNL     1       0.648   9.438  22.152  0.00  0.00    +0.000 A 
ATOM      5  C   UNL     1       0.608   9.180  20.787  0.00  0.00    +0.000 A 
ATOM      6  C   UNL     1      -0.257   9.960  19.995  0.00  0.00    +0.000 A 
ENDROOT
BRANCH   5   7
ATOM      7  N   UNL     1       1.415   8.209  20.149  0.00  0.00    +0.000 N 
ATOM      8  C   UNL     1       1.505   6.870  20.702  0.00  0.00    +0.000 C 
ATOM      9  C   UNL     1       2.266   6.109  19.683  0.00  0.00    +0.000 A 
ATOM     10  C   UNL     1       2.679   6.975  18.674  0.00  0.00    +0.000 A 
ATOM     11  C   UNL     1       3.442   6.534  17.612  0.00  0.00    +0.000 A 
ATOM     12  C   UNL     1       3.785   5.178  17.584  0.00  0.00    +0.000 A 
ATOM     13  C   UNL     1       3.339   4.295  18.588  0.00  0.00    +0.000 A 
ATOM     14  C   UNL     1       2.556   4.750  19.660  0.00  0.00    +0.000 A 
ATOM     15  C   UNL     1       2.118   8.313  18.945  0.00  0.00    +0.000 C 
ATOM     16  O   UNL     1       2.273   9.265  18.202  0.00  0.00    +0.000 OA
BRANCH  14  17
ATOM     17  C   UNL     1       2.035   3.795  20.707  0.00  0.00    +0.000 C 
ATOM     18  F   UNL     1       2.401   4.125  21.977  0.00  0.00    +0.000 F 
ATOM     19  F   UNL     1       0.675   3.741  20.719  0.00  0.00    +0.000 F 
ATOM     20  F   UNL     1       2.468   2.522  20.516  0.00  0.00    +0.000 F 
ENDBRANCH  14  17
ENDBRANCH   5   7
BRANCH   1  21
ATOM     21  C   UNL     1      -1.950  11.869  19.466  0.00  0.00    +0.000 C 
ATOM     22  C   UNL     1      -2.962  11.041  18.599  0.00  0.00    +0.000 C 
ATOM     23  C   UNL     1      -1.982  11.106  17.414  0.00  0.00    +0.000 C 
ATOM     24  F   UNL     1      -2.545  11.369  16.214  0.00  0.00    +0.000 F 
ATOM     25  F   UNL     1      -1.205  10.012  17.244  0.00  0.00    +0.000 F 
ATOM     26  C   UNL     1      -1.298  12.300  18.098  0.00  0.00    +0.000 C 
BRANCH  21  27
ATOM     27  C   UNL     1      -2.626  13.033  20.233  0.00  0.00    +0.000 C 
BRANCH  27  33
ATOM     28  C   UNL     1      -5.577  13.173  19.006  0.00  0.00    +0.000 C 
ATOM     29  N   UNL     1      -5.190  12.816  20.345  0.00  0.00    +0.000 N 
ATOM     30  C   UNL     1      -6.068  12.544  21.354  0.00  0.00    +0.000 A 
ATOM     31  N   UNL     1      -5.404  12.252  22.445  0.00  0.00    +0.000 NA
ATOM     32  N   UNL     1      -4.067  12.348  22.155  0.00  0.00    +0.000 NA
ATOM     33  C   UNL     1      -3.932  12.705  20.890  0.00  0.00    +0.000 A 
ENDBRANCH  27  33
ENDBRANCH  21  27
ENDBRANCH   1  21
TORSDOF 5
ENDMDL
