MODEL 1
REMARK VINA RESULT:      -9.4      0.000      0.000
REMARK  Name = 
REMARK  10 active torsions:
REMARK  status: ('A' for Active; 'I' for Inactive)
REMARK    1  A    between atoms: C_1  and  C_2
REMARK    2  A    between atoms: C_2  and  C_3
REMARK    3  A    between atoms: C_2  and  C_10
REMARK    4  A    between atoms: C_3  and  C_4
REMARK    5  A    between atoms: N_8  and  C_9
REMARK    6  A    between atoms: C_14  and  N_15
REMARK    7  A    between atoms: C_16  and  C_18
REMARK    8  A    between atoms: C_20  and  C_21
REMARK    9  A    between atoms: C_21  and  O_22
REMARK   10  A    between atoms: C_27  and  C_28
REMARK                            x       y       z     vdW  Elec       q    Type
REMARK                         _______ _______ _______ _____ _____    ______ ____
ROOT
ATOM      1  N   UNL     1       1.947   7.641  20.327  0.00  0.00    +0.000 N 
ATOM      2  C   UNL     1       2.587   7.418  19.121  0.00  0.00    +0.000 C 
ATOM      3  O   UNL     1       2.607   8.163  18.147  0.00  0.00    +0.000 OA
ATOM      4  H   UNL     1       2.129   6.956  21.056  0.00  0.00    +0.000 HD
ENDROOT
BRANCH   1   9
ATOM      5  C   UNL     1      -0.339  10.525  19.832  0.00  0.00    +0.000 A 
ATOM      6  C   UNL     1      -0.550  10.928  21.160  0.00  0.00    +0.000 A 
ATOM      7  C   UNL     1       0.097  10.278  22.206  0.00  0.00    +0.000 A 
ATOM      8  C   UNL     1       0.935   9.198  21.941  0.00  0.00    +0.000 A 
ATOM      9  C   UNL     1       1.120   8.739  20.635  0.00  0.00    +0.000 A 
ATOM     10  C   UNL     1       0.485   9.410  19.584  0.00  0.00    +0.000 A 
BRANCH   5  12
ATOM     11  C   UNL     1      -0.681  12.795  18.803  0.00  0.00    +0.000 C 
ATOM     12  C   UNL     1      -0.950  11.286  18.662  0.00  0.00    +0.000 C 
BRANCH  12  13
ATOM     13  C   UNL     1      -2.444  10.938  18.511  0.00  0.00    +0.000 C 
BRANCH  13  14
ATOM     14  C   UNL     1      -2.823  10.627  17.100  0.00  0.00    +0.000 A 
ATOM     15  N   UNL     1      -2.146   9.880  16.254  0.00  0.00    +0.000 NA
ATOM     16  N   UNL     1      -2.796   9.903  15.044  0.00  0.00    +0.000 NA
ATOM     17  C   UNL     1      -3.865  10.651  15.179  0.00  0.00    +0.000 A 
ATOM     18  N   UNL     1      -3.946  11.095  16.462  0.00  0.00    +0.000 N 
ATOM     19  C   UNL     1      -5.012  11.878  17.022  0.00  0.00    +0.000 C 
ENDBRANCH  13  14
ENDBRANCH  12  13
ENDBRANCH   5  12
ENDBRANCH   1   9
BRANCH   2  20
ATOM     20  C   UNL     1       3.348   6.136  19.047  0.00  0.00    +0.000 A 
ATOM     21  C   UNL     1       4.556   6.123  18.360  0.00  0.00    +0.000 A 
ATOM     22  C   UNL     1       5.302   4.944  18.260  0.00  0.00    +0.000 A 
ATOM     23  C   UNL     1       4.735   3.813  18.879  0.00  0.00    +0.000 A 
ATOM     24  C   UNL     1       3.513   3.886  19.565  0.00  0.00    +0.000 A 
ATOM     25  N   UNL     1       2.810   5.051  19.656  0.00  0.00    +0.000 NA
BRANCH  22  26
ATOM     26  C   UNL     1       6.674   4.887  17.439  0.00  0.00    +0.000 C 
ATOM     27  C   UNL     1       6.599   4.445  15.944  0.00  0.00    +0.000 C 
ATOM     28  O   UNL     1       7.373   5.589  15.516  0.00  0.00    +0.000 OA
ATOM     29  C   UNL     1       7.173   6.219  16.804  0.00  0.00    +0.000 C 
BRANCH  26  30
ATOM     30  O   UNL     1       7.684   4.191  18.228  0.00  0.00    +0.000 OA
ATOM     31  H   UNL     1       8.422   4.040  17.617  0.00  0.00    +0.000 HD
ENDBRANCH  26  30
ENDBRANCH  22  26
BRANCH  24  32
ATOM     32  C   UNL     1       2.951   2.634  20.233  0.00  0.00    +0.000 C 
ATOM     33  F   UNL     1       1.757   2.844  20.858  0.00  0.00    +0.000 F 
ATOM     34  F   UNL     1       2.724   1.625  19.343  0.00  0.00    +0.000 F 
ATOM     35  F   UNL     1       3.780   2.122  21.184  0.00  0.00    +0.000 F 
ENDBRANCH  24  32
ENDBRANCH   2  20
TORSDOF 8
ENDMDL
MODEL 2
REMARK VINA RESULT:      -9.4      1.590      1.907
REMARK  Name = 
REMARK  10 active torsions:
REMARK  status: ('A' for Active; 'I' for Inactive)
REMARK    1  A    between atoms: C_1  and  C_2
REMARK    2  A    between atoms: C_2  and  C_3
REMARK    3  A    between atoms: C_2  and  C_10
REMARK    4  A    between atoms: C_3  and  C_4
REMARK    5  A    between atoms: N_8  and  C_9
REMARK    6  A    between atoms: C_14  and  N_15
REMARK    7  A    between atoms: C_16  and  C_18
REMARK    8  A    between atoms: C_20  and  C_21
REMARK    9  A    between atoms: C_21  and  O_22
REMARK   10  A    between atoms: C_27  and  C_28
REMARK                            x       y       z     vdW  Elec       q    Type
REMARK                         _______ _______ _______ _____ _____    ______ ____
ROOT
ATOM      1  N   UNL     1       1.983   8.366  18.123  0.00  0.00    +0.000 N 
ATOM      2  C   UNL     1       2.222   7.492  19.169  0.00  0.00    +0.000 C 
ATOM      3  O   UNL     1       2.064   7.712  20.365  0.00  0.00    +0.000 OA
ATOM      4  H   UNL     1       2.072   7.971  17.190  0.00  0.00    +0.000 HD
ENDROOT
BRANCH   1   9
ATOM      5  C   UNL     1      -0.221  11.323  18.553  0.00  0.00    +0.000 A 
ATOM      6  C   UNL     1       0.718  12.364  18.500  0.00  0.00    +0.000 A 
ATOM      7  C   UNL     1       2.063  12.091  18.278  0.00  0.00    +0.000 A 
ATOM      8  C   UNL     1       2.491  10.773  18.139  0.00  0.00    +0.000 A 
ATOM      9  C   UNL     1       1.588   9.713  18.242  0.00  0.00    +0.000 A 
ATOM     10  C   UNL     1       0.232   9.994  18.444  0.00  0.00    +0.000 A 
BRANCH   5  12
ATOM     11  C   UNL     1      -2.038  12.125  20.098  0.00  0.00    +0.000 C 
ATOM     12  C   UNL     1      -1.713  11.600  18.687  0.00  0.00    +0.000 C 
BRANCH  12  13
ATOM     13  C   UNL     1      -2.533  10.356  18.291  0.00  0.00    +0.000 C 
BRANCH  13  14
ATOM     14  C   UNL     1      -2.908  10.351  16.845  0.00  0.00    +0.000 A 
ATOM     15  N   UNL     1      -2.274   9.730  15.873  0.00  0.00    +0.000 NA
ATOM     16  N   UNL     1      -2.898  10.034  14.688  0.00  0.00    +0.000 NA
ATOM     17  C   UNL     1      -3.911  10.823  14.961  0.00  0.00    +0.000 A 
ATOM     18  N   UNL     1      -3.982  11.017  16.305  0.00  0.00    +0.000 N 
ATOM     19  C   UNL     1      -4.996  11.758  17.002  0.00  0.00    +0.000 C 
ENDBRANCH  13  14
ENDBRANCH  12  13
ENDBRANCH   5  12
ENDBRANCH   1   9
BRANCH   2  20
ATOM     20  C   UNL     1       2.694   6.138  18.754  0.00  0.00    +0.000 A 
ATOM     21  C   UNL     1       3.849   6.048  17.985  0.00  0.00    +0.000 A 
ATOM     22  C   UNL     1       4.327   4.801  17.569  0.00  0.00    +0.000 A 
ATOM     23  C   UNL     1       3.556   3.692  17.966  0.00  0.00    +0.000 A 
ATOM     24  C   UNL     1       2.400   3.843  18.747  0.00  0.00    +0.000 A 
ATOM     25  N   UNL     1       1.960   5.069  19.150  0.00  0.00    +0.000 NA
BRANCH  22  26
ATOM     26  C   UNL     1       5.629   4.667  16.648  0.00  0.00    +0.000 C 
ATOM     27  C   UNL     1       5.835   5.743  15.536  0.00  0.00    +0.000 C 
ATOM     28  O   UNL     1       7.196   5.990  15.959  0.00  0.00    +0.000 OA
ATOM     29  C   UNL     1       6.949   5.284  17.198  0.00  0.00    +0.000 C 
BRANCH  26  30
ATOM     30  O   UNL     1       5.762   3.290  16.191  0.00  0.00    +0.000 OA
ATOM     31  H   UNL     1       6.020   3.355  15.259  0.00  0.00    +0.000 HD
ENDBRANCH  26  30
ENDBRANCH  22  26
BRANCH  24  32
ATOM     32  C   UNL     1       1.609   2.605  19.165  0.00  0.00    +0.000 C 
ATOM     33  F   UNL     1       0.436   2.457  18.484  0.00  0.00    +0.000 F 
ATOM     34  F   UNL     1       2.301   1.448  18.957  0.00  0.00    +0.000 F 
ATOM     35  F   UNL     1       1.271   2.613  20.484  0.00  0.00    +0.000 F 
ENDBRANCH  24  32
ENDBRANCH   2  20
TORSDOF 8
ENDMDL
MODEL 3
REMARK VINA RESULT:      -9.3      1.894      2.749
REMARK  Name = 
REMARK  10 active torsions:
REMARK  status: ('A' for Active; 'I' for Inactive)
REMARK    1  A    between atoms: C_1  and  C_2
REMARK    2  A    between atoms: C_2  and  C_3
REMARK    3  A    between atoms: C_2  and  C_10
REMARK    4  A    between atoms: C_3  and  C_4
REMARK    5  A    between atoms: N_8  and  C_9
REMARK    6  A    between atoms: C_14  and  N_15
REMARK    7  A    between atoms: C_16  and  C_18
REMARK    8  A    between atoms: C_20  and  C_21
REMARK    9  A    between atoms: C_21  and  O_22
REMARK   10  A    between atoms: C_27  and  C_28
REMARK                            x       y       z     vdW  Elec       q    Type
REMARK                         _______ _______ _______ _____ _____    ______ ____
ROOT
ATOM      1  N   UNL     1       0.999   8.836  18.736  0.00  0.00    +0.000 N 
ATOM      2  C   UNL     1       2.113   8.499  17.989  0.00  0.00    +0.000 C 
ATOM      3  O   UNL     1       2.578   9.118  17.038  0.00  0.00    +0.000 OA
ATOM      4  H   UNL     1       0.825   8.256  19.554  0.00  0.00    +0.000 HD
ENDROOT
BRANCH   1   9
ATOM      5  C   UNL     1      -1.954  10.723  17.511  0.00  0.00    +0.000 A 
ATOM      6  C   UNL     1      -1.652  12.015  17.968  0.00  0.00    +0.000 A 
ATOM      7  C   UNL     1      -0.458  12.266  18.636  0.00  0.00    +0.000 A 
ATOM      8  C   UNL     1       0.432  11.225  18.884  0.00  0.00    +0.000 A 
ATOM      9  C   UNL     1       0.133   9.919  18.491  0.00  0.00    +0.000 A 
ATOM     10  C   UNL     1      -1.059   9.675  17.799  0.00  0.00    +0.000 A 
BRANCH   5  12
ATOM     11  C   UNL     1      -2.815   9.965  15.272  0.00  0.00    +0.000 C 
ATOM     12  C   UNL     1      -3.202  10.442  16.684  0.00  0.00    +0.000 C 
BRANCH  12  13
ATOM     13  C   UNL     1      -4.139  11.666  16.684  0.00  0.00    +0.000 C 
BRANCH  13  14
ATOM     14  C   UNL     1      -5.326  11.482  17.572  0.00  0.00    +0.000 A 
ATOM     15  N   UNL     1      -5.531  10.487  18.410  0.00  0.00    +0.000 NA
ATOM     16  N   UNL     1      -6.768  10.654  18.982  0.00  0.00    +0.000 NA
ATOM     17  C   UNL     1      -7.288  11.756  18.495  0.00  0.00    +0.000 A 
ATOM     18  N   UNL     1      -6.404  12.331  17.637  0.00  0.00    +0.000 N 
ATOM     19  C   UNL     1      -6.574  13.587  16.960  0.00  0.00    +0.000 C 
ENDBRANCH  13  14
ENDBRANCH  12  13
ENDBRANCH   5  12
ENDBRANCH   1   9
BRANCH   2  20
ATOM     20  C   UNL     1       2.812   7.259  18.437  0.00  0.00    +0.000 A 
ATOM     21  C   UNL     1       4.095   7.013  17.960  0.00  0.00    +0.000 A 
ATOM     22  C   UNL     1       4.788   5.862  18.348  0.00  0.00    +0.000 A 
ATOM     23  C   UNL     1       4.092   4.999  19.217  0.00  0.00    +0.000 A 
ATOM     24  C   UNL     1       2.799   5.301  19.671  0.00  0.00    +0.000 A 
ATOM     25  N   UNL     1       2.149   6.436  19.286  0.00  0.00    +0.000 NA
BRANCH  22  26
ATOM     26  C   UNL     1       6.247   5.530  17.783  0.00  0.00    +0.000 C 
ATOM     27  C   UNL     1       6.368   5.189  16.264  0.00  0.00    +0.000 C 
ATOM     28  O   UNL     1       7.439   6.144  16.085  0.00  0.00    +0.000 OA
ATOM     29  C   UNL     1       7.135   6.741  17.368  0.00  0.00    +0.000 C 
BRANCH  26  30
ATOM     30  O   UNL     1       6.910   4.585  18.672  0.00  0.00    +0.000 OA
ATOM     31  H   UNL     1       6.458   4.680  19.525  0.00  0.00    +0.000 HD
ENDBRANCH  26  30
ENDBRANCH  22  26
BRANCH  24  32
ATOM     32  C   UNL     1       2.095   4.339  20.626  0.00  0.00    +0.000 C 
ATOM     33  F   UNL     1       2.493   4.477  21.924  0.00  0.00    +0.000 F 
ATOM     34  F   UNL     1       0.742   4.512  20.638  0.00  0.00    +0.000 F 
ATOM     35  F   UNL     1       2.307   3.031  20.313  0.00  0.00    +0.000 F 
ENDBRANCH  24  32
ENDBRANCH   2  20
TORSDOF 8
ENDMDL
MODEL 4
REMARK VINA RESULT:      -9.3      0.911      1.071
REMARK  Name = 
REMARK  10 active torsions:
REMARK  status: ('A' for Active; 'I' for Inactive)
REMARK    1  A    between atoms: C_1  and  C_2
REMARK    2  A    between atoms: C_2  and  C_3
REMARK    3  A    between atoms: C_2  and  C_10
REMARK    4  A    between atoms: C_3  and  C_4
REMARK    5  A    between atoms: N_8  and  C_9
REMARK    6  A    between atoms: C_14  and  N_15
REMARK    7  A    between atoms: C_16  and  C_18
REMARK    8  A    between atoms: C_20  and  C_21
REMARK    9  A    between atoms: C_21  and  O_22
REMARK   10  A    between atoms: C_27  and  C_28
REMARK                            x       y       z     vdW  Elec       q    Type
REMARK                         _______ _______ _______ _____ _____    ______ ____
ROOT
ATOM      1  N   UNL     1       1.485   7.711  20.109  0.00  0.00    +0.000 N 
ATOM      2  C   UNL     1       2.283   7.596  18.984  0.00  0.00    +0.000 C 
ATOM      3  O   UNL     1       2.628   8.498  18.229  0.00  0.00    +0.000 OA
ATOM      4  H   UNL     1       1.392   6.869  20.671  0.00  0.00    +0.000 HD
ENDROOT
BRANCH   1   9
ATOM      5  C   UNL     1      -0.409  10.902  19.992  0.00  0.00    +0.000 A 
ATOM      6  C   UNL     1      -0.456  11.233  21.355  0.00  0.00    +0.000 A 
ATOM      7  C   UNL     1       0.175  10.430  22.299  0.00  0.00    +0.000 A 
ATOM      8  C   UNL     1       0.831   9.270  21.896  0.00  0.00    +0.000 A 
ATOM      9  C   UNL     1       0.847   8.885  20.554  0.00  0.00    +0.000 A 
ATOM     10  C   UNL     1       0.230   9.709  19.606  0.00  0.00    +0.000 A 
BRANCH   5  12
ATOM     11  C   UNL     1      -0.706  13.294  19.267  0.00  0.00    +0.000 C 
ATOM     12  C   UNL     1      -0.997  11.820  18.928  0.00  0.00    +0.000 C 
BRANCH  12  13
ATOM     13  C   UNL     1      -2.496  11.521  18.725  0.00  0.00    +0.000 C 
BRANCH  13  14
ATOM     14  C   UNL     1      -2.792  10.959  17.372  0.00  0.00    +0.000 A 
ATOM     15  N   UNL     1      -2.017  10.161  16.669  0.00  0.00    +0.000 NA
ATOM     16  N   UNL     1      -2.621   9.931  15.458  0.00  0.00    +0.000 NA
ATOM     17  C   UNL     1      -3.761  10.581  15.451  0.00  0.00    +0.000 A 
ATOM     18  N   UNL     1      -3.931  11.208  16.645  0.00  0.00    +0.000 N 
ATOM     19  C   UNL     1      -5.086  11.958  17.053  0.00  0.00    +0.000 C 
ENDBRANCH  13  14
ENDBRANCH  12  13
ENDBRANCH   5  12
ENDBRANCH   1   9
BRANCH   2  20
ATOM     20  C   UNL     1       2.778   6.215  18.711  0.00  0.00    +0.000 A 
ATOM     21  C   UNL     1       3.915   6.063  17.924  0.00  0.00    +0.000 A 
ATOM     22  C   UNL     1       4.414   4.788  17.638  0.00  0.00    +0.000 A 
ATOM     23  C   UNL     1       3.682   3.715  18.181  0.00  0.00    +0.000 A 
ATOM     24  C   UNL     1       2.544   3.927  18.973  0.00  0.00    +0.000 A 
ATOM     25  N   UNL     1       2.083   5.181  19.247  0.00  0.00    +0.000 NA
BRANCH  22  26
ATOM     26  C   UNL     1       5.694   4.580  16.701  0.00  0.00    +0.000 C 
ATOM     27  C   UNL     1       5.884   5.576  15.513  0.00  0.00    +0.000 C 
ATOM     28  O   UNL     1       7.255   5.838  15.890  0.00  0.00    +0.000 OA
ATOM     29  C   UNL     1       7.030   5.221  17.179  0.00  0.00    +0.000 C 
BRANCH  26  30
ATOM     30  O   UNL     1       5.806   3.173  16.337  0.00  0.00    +0.000 OA
ATOM     31  H   UNL     1       4.914   2.911  16.061  0.00  0.00    +0.000 HD
ENDBRANCH  26  30
ENDBRANCH  22  26
BRANCH  24  32
ATOM     32  C   UNL     1       1.797   2.727  19.552  0.00  0.00    +0.000 C 
ATOM     33  F   UNL     1       1.920   2.615  20.905  0.00  0.00    +0.000 F 
ATOM     34  F   UNL     1       0.455   2.782  19.310  0.00  0.00    +0.000 F 
ATOM     35  F   UNL     1       2.226   1.540  19.042  0.00  0.00    +0.000 F 
ENDBRANCH  24  32
ENDBRANCH   2  20
TORSDOF 8
ENDMDL
MODEL 5
REMARK VINA RESULT:      -9.3      1.279      1.676
REMARK  Name = 
REMARK  10 active torsions:
REMARK  status: ('A' for Active; 'I' for Inactive)
REMARK    1  A    between atoms: C_1  and  C_2
REMARK    2  A    between atoms: C_2  and  C_3
REMARK    3  A    between atoms: C_2  and  C_10
REMARK    4  A    between atoms: C_3  and  C_4
REMARK    5  A    between atoms: N_8  and  C_9
REMARK    6  A    between atoms: C_14  and  N_15
REMARK    7  A    between atoms: C_16  and  C_18
REMARK    8  A    between atoms: C_20  and  C_21
REMARK    9  A    between atoms: C_21  and  O_22
REMARK   10  A    between atoms: C_27  and  C_28
REMARK                            x       y       z     vdW  Elec       q    Type
REMARK                         _______ _______ _______ _____ _____    ______ ____
ROOT
ATOM      1  N   UNL     1       1.693   7.912  20.092  0.00  0.00    +0.000 N 
ATOM      2  C   UNL     1       2.183   7.940  18.798  0.00  0.00    +0.000 C 
ATOM      3  O   UNL     1       2.114   8.872  18.004  0.00  0.00    +0.000 OA
ATOM      4  H   UNL     1       1.936   7.089  20.637  0.00  0.00    +0.000 HD
ENDROOT
BRANCH   1   9
ATOM      5  C   UNL     1      -0.355  10.983  20.490  0.00  0.00    +0.000 A 
ATOM      6  C   UNL     1      -0.569  10.982  21.876  0.00  0.00    +0.000 A 
ATOM      7  C   UNL     1      -0.001   9.998  22.677  0.00  0.00    +0.000 A 
ATOM      8  C   UNL     1       0.760   8.985  22.100  0.00  0.00    +0.000 A 
ATOM      9  C   UNL     1       0.944   8.928  20.717  0.00  0.00    +0.000 A 
ATOM     10  C   UNL     1       0.389   9.933  19.917  0.00  0.00    +0.000 A 
BRANCH   5  12
ATOM     11  C   UNL     1      -0.392  13.473  20.126  0.00  0.00    +0.000 C 
ATOM     12  C   UNL     1      -0.876  12.108  19.603  0.00  0.00    +0.000 C 
BRANCH  12  13
ATOM     13  C   UNL     1      -2.408  12.014  19.455  0.00  0.00    +0.000 C 
BRANCH  13  14
ATOM     14  C   UNL     1      -2.828  11.582  18.087  0.00  0.00    +0.000 A 
ATOM     15  N   UNL     1      -2.034  11.214  17.104  0.00  0.00    +0.000 NA
ATOM     16  N   UNL     1      -2.808  10.962  15.998  0.00  0.00    +0.000 NA
ATOM     17  C   UNL     1      -4.060  11.166  16.332  0.00  0.00    +0.000 A 
ATOM     18  N   UNL     1      -4.127  11.518  17.643  0.00  0.00    +0.000 N 
ATOM     19  C   UNL     1      -5.325  11.751  18.400  0.00  0.00    +0.000 C 
ENDBRANCH  13  14
ENDBRANCH  12  13
ENDBRANCH   5  12
ENDBRANCH   1   9
BRANCH   2  20
ATOM     20  C   UNL     1       2.888   6.696  18.372  0.00  0.00    +0.000 A 
ATOM     21  C   UNL     1       4.177   6.808  17.864  0.00  0.00    +0.000 A 
ATOM     22  C   UNL     1       4.876   5.670  17.447  0.00  0.00    +0.000 A 
ATOM     23  C   UNL     1       4.179   4.453  17.567  0.00  0.00    +0.000 A 
ATOM     24  C   UNL     1       2.879   4.399  18.092  0.00  0.00    +0.000 A 
ATOM     25  N   UNL     1       2.223   5.522  18.501  0.00  0.00    +0.000 NA
BRANCH  22  26
ATOM     26  C   UNL     1       6.344   5.771  16.819  0.00  0.00    +0.000 C 
ATOM     27  C   UNL     1       7.458   4.877  17.449  0.00  0.00    +0.000 C 
ATOM     28  O   UNL     1       7.856   4.375  16.152  0.00  0.00    +0.000 OA
ATOM     29  C   UNL     1       6.638   4.892  15.567  0.00  0.00    +0.000 C 
BRANCH  26  30
ATOM     30  O   UNL     1       6.709   7.173  16.659  0.00  0.00    +0.000 OA
ATOM     31  H   UNL     1       7.652   7.165  16.432  0.00  0.00    +0.000 HD
ENDBRANCH  26  30
ENDBRANCH  22  26
BRANCH  24  32
ATOM     32  C   UNL     1       2.174   3.050  18.216  0.00  0.00    +0.000 C 
ATOM     33  F   UNL     1       2.524   2.165  17.238  0.00  0.00    +0.000 F 
ATOM     34  F   UNL     1       2.452   2.421  19.394  0.00  0.00    +0.000 F 
ATOM     35  F   UNL     1       0.818   3.153  18.152  0.00  0.00    +0.000 F 
ENDBRANCH  24  32
ENDBRANCH   2  20
TORSDOF 8
ENDMDL
MODEL 6
REMARK VINA RESULT:      -9.3      3.022      4.242
REMARK  Name = 
REMARK  10 active torsions:
REMARK  status: ('A' for Active; 'I' for Inactive)
REMARK    1  A    between atoms: C_1  and  C_2
REMARK    2  A    between atoms: C_2  and  C_3
REMARK    3  A    between atoms: C_2  and  C_10
REMARK    4  A    between atoms: C_3  and  C_4
REMARK    5  A    between atoms: N_8  and  C_9
REMARK    6  A    between atoms: C_14  and  N_15
REMARK    7  A    between atoms: C_16  and  C_18
REMARK    8  A    between atoms: C_20  and  C_21
REMARK    9  A    between atoms: C_21  and  O_22
REMARK   10  A    between atoms: C_27  and  C_28
REMARK                            x       y       z     vdW  Elec       q    Type
REMARK                         _______ _______ _______ _____ _____    ______ ____
ROOT
ATOM      1  N   UNL     1       1.636   8.090  19.206  0.00  0.00    +0.000 N 
ATOM      2  C   UNL     1       2.441   7.847  18.107  0.00  0.00    +0.000 C 
ATOM      3  O   UNL     1       2.712   8.631  17.204  0.00  0.00    +0.000 OA
ATOM      4  H   UNL     1       1.611   7.352  19.906  0.00  0.00    +0.000 HD
ENDROOT
BRANCH   1   9
ATOM      5  C   UNL     1      -0.135  10.760  21.083  0.00  0.00    +0.000 A 
ATOM      6  C   UNL     1      -0.542  11.597  20.033  0.00  0.00    +0.000 A 
ATOM      7  C   UNL     1      -0.272  11.255  18.713  0.00  0.00    +0.000 A 
ATOM      8  C   UNL     1       0.436  10.092  18.427  0.00  0.00    +0.000 A 
ATOM      9  C   UNL     1       0.903   9.267  19.453  0.00  0.00    +0.000 A 
ATOM     10  C   UNL     1       0.609   9.603  20.779  0.00  0.00    +0.000 A 
BRANCH   5  12
ATOM     11  C   UNL     1      -0.539   9.754  23.354  0.00  0.00    +0.000 C 
ATOM     12  C   UNL     1      -0.511  11.054  22.530  0.00  0.00    +0.000 C 
BRANCH  12  13
ATOM     13  C   UNL     1      -1.830  11.851  22.594  0.00  0.00    +0.000 C 
BRANCH  13  14
ATOM     14  C   UNL     1      -1.683  13.147  23.323  0.00  0.00    +0.000 A 
ATOM     15  N   UNL     1      -0.582  13.858  23.442  0.00  0.00    +0.000 NA
ATOM     16  N   UNL     1      -0.853  14.941  24.243  0.00  0.00    +0.000 NA
ATOM     17  C   UNL     1      -2.119  14.878  24.584  0.00  0.00    +0.000 A 
ATOM     18  N   UNL     1      -2.691  13.792  23.999  0.00  0.00    +0.000 N 
ATOM     19  C   UNL     1      -4.077  13.423  24.069  0.00  0.00    +0.000 C 
ENDBRANCH  13  14
ENDBRANCH  12  13
ENDBRANCH   5  12
ENDBRANCH   1   9
BRANCH   2  20
ATOM     20  C   UNL     1       3.048   6.485  18.069  0.00  0.00    +0.000 A 
ATOM     21  C   UNL     1       4.377   6.364  17.679  0.00  0.00    +0.000 A 
ATOM     22  C   UNL     1       4.988   5.107  17.624  0.00  0.00    +0.000 A 
ATOM     23  C   UNL     1       4.166   4.017  17.967  0.00  0.00    +0.000 A 
ATOM     24  C   UNL     1       2.831   4.199  18.359  0.00  0.00    +0.000 A 
ATOM     25  N   UNL     1       2.261   5.437  18.415  0.00  0.00    +0.000 NA
BRANCH  22  26
ATOM     26  C   UNL     1       6.503   4.931  17.138  0.00  0.00    +0.000 C 
ATOM     27  C   UNL     1       6.735   4.494  15.657  0.00  0.00    +0.000 C 
ATOM     28  O   UNL     1       7.680   5.567  15.438  0.00  0.00    +0.000 OA
ATOM     29  C   UNL     1       7.242   6.214  16.656  0.00  0.00    +0.000 C 
BRANCH  26  30
ATOM     30  O   UNL     1       7.242   4.154  18.124  0.00  0.00    +0.000 OA
ATOM     31  H   UNL     1       6.797   3.293  18.153  0.00  0.00    +0.000 HD
ENDBRANCH  26  30
ENDBRANCH  22  26
BRANCH  24  32
ATOM     32  C   UNL     1       1.987   2.984  18.737  0.00  0.00    +0.000 C 
ATOM     33  F   UNL     1       2.462   2.313  19.826  0.00  0.00    +0.000 F 
ATOM     34  F   UNL     1       0.701   3.317  19.046  0.00  0.00    +0.000 F 
ATOM     35  F   UNL     1       1.910   2.060  17.740  0.00  0.00    +0.000 F 
ENDBRANCH  24  32
ENDBRANCH   2  20
TORSDOF 8
ENDMDL
MODEL 7
REMARK VINA RESULT:      -9.2      1.085      1.343
REMARK  Name = 
REMARK  10 active torsions:
REMARK  status: ('A' for Active; 'I' for Inactive)
REMARK    1  A    between atoms: C_1  and  C_2
REMARK    2  A    between atoms: C_2  and  C_3
REMARK    3  A    between atoms: C_2  and  C_10
REMARK    4  A    between atoms: C_3  and  C_4
REMARK    5  A    between atoms: N_8  and  C_9
REMARK    6  A    between atoms: C_14  and  N_15
REMARK    7  A    between atoms: C_16  and  C_18
REMARK    8  A    between atoms: C_20  and  C_21
REMARK    9  A    between atoms: C_21  and  O_22
REMARK   10  A    between atoms: C_27  and  C_28
REMARK                            x       y       z     vdW  Elec       q    Type
REMARK                         _______ _______ _______ _____ _____    ______ ____
ROOT
ATOM      1  N   UNL     1       1.371   7.749  20.867  0.00  0.00    +0.000 N 
ATOM      2  C   UNL     1       2.086   7.588  19.693  0.00  0.00    +0.000 C 
ATOM      3  O   UNL     1       2.267   8.428  18.819  0.00  0.00    +0.000 OA
ATOM      4  H   UNL     1       1.417   6.971  21.521  0.00  0.00    +0.000 HD
ENDROOT
BRANCH   1   9
ATOM      5  C   UNL     1      -0.515  10.932  20.555  0.00  0.00    +0.000 A 
ATOM      6  C   UNL     1      -0.827  11.189  21.899  0.00  0.00    +0.000 A 
ATOM      7  C   UNL     1      -0.377  10.338  22.903  0.00  0.00    +0.000 A 
ATOM      8  C   UNL     1       0.362   9.205  22.574  0.00  0.00    +0.000 A 
ATOM      9  C   UNL     1       0.641   8.893  21.242  0.00  0.00    +0.000 A 
ATOM     10  C   UNL     1       0.204   9.764  20.237  0.00  0.00    +0.000 A 
BRANCH   5  12
ATOM     11  C   UNL     1      -0.281  13.287  19.702  0.00  0.00    +0.000 C 
ATOM     12  C   UNL     1      -0.903  11.902  19.447  0.00  0.00    +0.000 C 
BRANCH  12  13
ATOM     13  C   UNL     1      -2.435  11.940  19.272  0.00  0.00    +0.000 C 
BRANCH  13  14
ATOM     14  C   UNL     1      -2.869  11.511  17.909  0.00  0.00    +0.000 A 
ATOM     15  N   UNL     1      -2.086  11.255  16.882  0.00  0.00    +0.000 NA
ATOM     16  N   UNL     1      -2.879  10.961  15.799  0.00  0.00    +0.000 NA
ATOM     17  C   UNL     1      -4.129  11.028  16.190  0.00  0.00    +0.000 A 
ATOM     18  N   UNL     1      -4.173  11.330  17.515  0.00  0.00    +0.000 N 
ATOM     19  C   UNL     1      -5.355  11.418  18.326  0.00  0.00    +0.000 C 
ENDBRANCH  13  14
ENDBRANCH  12  13
ENDBRANCH   5  12
ENDBRANCH   1   9
BRANCH   2  20
ATOM     20  C   UNL     1       2.711   6.244  19.524  0.00  0.00    +0.000 A 
ATOM     21  C   UNL     1       3.796   6.123  18.663  0.00  0.00    +0.000 A 
ATOM     22  C   UNL     1       4.412   4.882  18.469  0.00  0.00    +0.000 A 
ATOM     23  C   UNL     1       3.848   3.806  19.182  0.00  0.00    +0.000 A 
ATOM     24  C   UNL     1       2.754   3.988  20.042  0.00  0.00    +0.000 A 
ATOM     25  N   UNL     1       2.178   5.211  20.222  0.00  0.00    +0.000 NA
BRANCH  22  26
ATOM     26  C   UNL     1       5.635   4.702  17.453  0.00  0.00    +0.000 C 
ATOM     27  C   UNL     1       6.042   5.941  16.595  0.00  0.00    +0.000 C 
ATOM     28  O   UNL     1       7.433   5.801  16.966  0.00  0.00    +0.000 OA
ATOM     29  C   UNL     1       7.068   4.893  18.032  0.00  0.00    +0.000 C 
BRANCH  26  30
ATOM     30  O   UNL     1       5.459   3.470  16.695  0.00  0.00    +0.000 OA
ATOM     31  H   UNL     1       4.580   3.144  16.940  0.00  0.00    +0.000 HD
ENDBRANCH  26  30
ENDBRANCH  22  26
BRANCH  24  32
ATOM     32  C   UNL     1       2.191   2.791  20.804  0.00  0.00    +0.000 C 
ATOM     33  F   UNL     1       1.912   1.722  20.003  0.00  0.00    +0.000 F 
ATOM     34  F   UNL     1       3.053   2.322  21.752  0.00  0.00    +0.000 F 
ATOM     35  F   UNL     1       1.030   3.076  21.456  0.00  0.00    +0.000 F 
ENDBRANCH  24  32
ENDBRANCH   2  20
TORSDOF 8
ENDMDL
MODEL 8
REMARK VINA RESULT:      -9.2      2.634      3.459
REMARK  Name = 
REMARK  10 active torsions:
REMARK  status: ('A' for Active; 'I' for Inactive)
REMARK    1  A    between atoms: C_1  and  C_2
REMARK    2  A    between atoms: C_2  and  C_3
REMARK    3  A    between atoms: C_2  and  C_10
REMARK    4  A    between atoms: C_3  and  C_4
REMARK    5  A    between atoms: N_8  and  C_9
REMARK    6  A    between atoms: C_14  and  N_15
REMARK    7  A    between atoms: C_16  and  C_18
REMARK    8  A    between atoms: C_20  and  C_21
REMARK    9  A    between atoms: C_21  and  O_22
REMARK   10  A    between atoms: C_27  and  C_28
REMARK                            x       y       z     vdW  Elec       q    Type
REMARK                         _______ _______ _______ _____ _____    ______ ____
ROOT
ATOM      1  N   UNL     1       1.950   8.698  18.010  0.00  0.00    +0.000 N 
ATOM      2  C   UNL     1       2.208   7.702  18.935  0.00  0.00    +0.000 C 
ATOM      3  O   UNL     1       1.983   7.738  20.140  0.00  0.00    +0.000 OA
ATOM      4  H   UNL     1       2.108   8.447  17.037  0.00  0.00    +0.000 HD
ENDROOT
BRANCH   1   9
ATOM      5  C   UNL     1      -0.447  11.378  18.934  0.00  0.00    +0.000 A 
ATOM      6  C   UNL     1       0.385  12.507  18.887  0.00  0.00    +0.000 A 
ATOM      7  C   UNL     1       1.718  12.386  18.508  0.00  0.00    +0.000 A 
ATOM      8  C   UNL     1       2.242  11.133  18.203  0.00  0.00    +0.000 A 
ATOM      9  C   UNL     1       1.453   9.985  18.295  0.00  0.00    +0.000 A 
ATOM     10  C   UNL     1       0.107  10.114  18.655  0.00  0.00    +0.000 A 
BRANCH   5  12
ATOM     11  C   UNL     1      -2.770  11.189  17.984  0.00  0.00    +0.000 C 
ATOM     12  C   UNL     1      -1.935  11.496  19.241  0.00  0.00    +0.000 C 
BRANCH  12  13
ATOM     13  C   UNL     1      -2.250  12.870  19.867  0.00  0.00    +0.000 C 
BRANCH  13  14
ATOM     14  C   UNL     1      -3.072  12.760  21.110  0.00  0.00    +0.000 A 
ATOM     15  N   UNL     1      -2.659  12.339  22.287  0.00  0.00    +0.000 NA
ATOM     16  N   UNL     1      -3.734  12.324  23.141  0.00  0.00    +0.000 NA
ATOM     17  C   UNL     1      -4.780  12.751  22.473  0.00  0.00    +0.000 A 
ATOM     18  N   UNL     1      -4.406  13.074  21.207  0.00  0.00    +0.000 N 
ATOM     19  C   UNL     1      -5.247  13.647  20.193  0.00  0.00    +0.000 C 
ENDBRANCH  13  14
ENDBRANCH  12  13
ENDBRANCH   5  12
ENDBRANCH   1   9
BRANCH   2  20
ATOM     20  C   UNL     1       2.795   6.455  18.361  0.00  0.00    +0.000 A 
ATOM     21  C   UNL     1       3.961   6.558  17.612  0.00  0.00    +0.000 A 
ATOM     22  C   UNL     1       4.546   5.418  17.050  0.00  0.00    +0.000 A 
ATOM     23  C   UNL     1       3.865   4.209  17.287  0.00  0.00    +0.000 A 
ATOM     24  C   UNL     1       2.692   4.163  18.056  0.00  0.00    +0.000 A 
ATOM     25  N   UNL     1       2.148   5.288  18.602  0.00  0.00    +0.000 NA
BRANCH  22  26
ATOM     26  C   UNL     1       5.864   5.510  16.148  0.00  0.00    +0.000 C 
ATOM     27  C   UNL     1       7.232   5.646  16.888  0.00  0.00    +0.000 C 
ATOM     28  O   UNL     1       7.807   4.561  16.124  0.00  0.00    +0.000 OA
ATOM     29  C   UNL     1       6.490   4.165  15.675  0.00  0.00    +0.000 C 
BRANCH  26  30
ATOM     30  O   UNL     1       5.654   6.476  15.077  0.00  0.00    +0.000 OA
ATOM     31  H   UNL     1       5.582   5.946  14.268  0.00  0.00    +0.000 HD
ENDBRANCH  26  30
ENDBRANCH  22  26
BRANCH  24  32
ATOM     32  C   UNL     1       2.002   2.823  18.296  0.00  0.00    +0.000 C 
ATOM     33  F   UNL     1       2.340   2.245  19.485  0.00  0.00    +0.000 F 
ATOM     34  F   UNL     1       0.643   2.931  18.315  0.00  0.00    +0.000 F 
ATOM     35  F   UNL     1       2.295   1.897  17.341  0.00  0.00    +0.000 F 
ENDBRANCH  24  32
ENDBRANCH   2  20
TORSDOF 8
ENDMDL
MODEL 9
REMARK VINA RESULT:      -9.2      2.062      2.906
REMARK  Name = 
REMARK  10 active torsions:
REMARK  status: ('A' for Active; 'I' for Inactive)
REMARK    1  A    between atoms: C_1  and  C_2
REMARK    2  A    between atoms: C_2  and  C_3
REMARK    3  A    between atoms: C_2  and  C_10
REMARK    4  A    between atoms: C_3  and  C_4
REMARK    5  A    between atoms: N_8  and  C_9
REMARK    6  A    between atoms: C_14  and  N_15
REMARK    7  A    between atoms: C_16  and  C_18
REMARK    8  A    between atoms: C_20  and  C_21
REMARK    9  A    between atoms: C_21  and  O_22
REMARK   10  A    between atoms: C_27  and  C_28
REMARK                            x       y       z     vdW  Elec       q    Type
REMARK                         _______ _______ _______ _____ _____    ______ ____
ROOT
ATOM      1  N   UNL     1       1.341   8.985  19.147  0.00  0.00    +0.000 N 
ATOM      2  C   UNL     1       2.145   8.443  18.160  0.00  0.00    +0.000 C 
ATOM      3  O   UNL     1       2.374   8.916  17.053  0.00  0.00    +0.000 OA
ATOM      4  H   UNL     1       1.353   8.501  20.041  0.00  0.00    +0.000 HD
ENDROOT
BRANCH   1   9
ATOM      5  C   UNL     1      -1.652  11.148  18.762  0.00  0.00    +0.000 A 
ATOM      6  C   UNL     1      -1.067  12.423  18.806  0.00  0.00    +0.000 A 
ATOM      7  C   UNL     1       0.313  12.562  18.916  0.00  0.00    +0.000 A 
ATOM      8  C   UNL     1       1.120  11.432  19.016  0.00  0.00    +0.000 A 
ATOM      9  C   UNL     1       0.561  10.152  19.031  0.00  0.00    +0.000 A 
ATOM     10  C   UNL     1      -0.825  10.016  18.898  0.00  0.00    +0.000 A 
BRANCH   5  12
ATOM     11  C   UNL     1      -3.411  10.385  17.133  0.00  0.00    +0.000 C 
ATOM     12  C   UNL     1      -3.147  10.965  18.534  0.00  0.00    +0.000 C 
BRANCH  12  13
ATOM     13  C   UNL     1      -3.901  12.283  18.805  0.00  0.00    +0.000 C 
BRANCH  13  14
ATOM     14  C   UNL     1      -5.060  12.103  19.731  0.00  0.00    +0.000 A 
ATOM     15  N   UNL     1      -5.046  12.237  21.040  0.00  0.00    +0.000 NA
ATOM     16  N   UNL     1      -6.292  11.919  21.519  0.00  0.00    +0.000 NA
ATOM     17  C   UNL     1      -7.049  11.611  20.492  0.00  0.00    +0.000 A 
ATOM     18  N   UNL     1      -6.331  11.750  19.346  0.00  0.00    +0.000 N 
ATOM     19  C   UNL     1      -6.827  11.578  18.009  0.00  0.00    +0.000 C 
ENDBRANCH  13  14
ENDBRANCH  12  13
ENDBRANCH   5  12
ENDBRANCH   1   9
BRANCH   2  20
ATOM     20  C   UNL     1       2.809   7.159  18.533  0.00  0.00    +0.000 A 
ATOM     21  C   UNL     1       4.058   6.880  17.992  0.00  0.00    +0.000 A 
ATOM     22  C   UNL     1       4.717   5.687  18.309  0.00  0.00    +0.000 A 
ATOM     23  C   UNL     1       4.022   4.822  19.177  0.00  0.00    +0.000 A 
ATOM     24  C   UNL     1       2.764   5.159  19.697  0.00  0.00    +0.000 A 
ATOM     25  N   UNL     1       2.147   6.333  19.381  0.00  0.00    +0.000 NA
BRANCH  22  26
ATOM     26  C   UNL     1       6.136   5.317  17.670  0.00  0.00    +0.000 C 
ATOM     27  C   UNL     1       6.260   5.378  16.115  0.00  0.00    +0.000 C 
ATOM     28  O   UNL     1       7.457   6.187  16.193  0.00  0.00    +0.000 OA
ATOM     29  C   UNL     1       7.193   6.459  17.590  0.00  0.00    +0.000 C 
BRANCH  26  30
ATOM     30  O   UNL     1       6.635   4.087  18.271  0.00  0.00    +0.000 OA
ATOM     31  H   UNL     1       5.858   3.513  18.355  0.00  0.00    +0.000 HD
ENDBRANCH  26  30
ENDBRANCH  22  26
BRANCH  24  32
ATOM     32  C   UNL     1       2.060   4.192  20.647  0.00  0.00    +0.000 C 
ATOM     33  F   UNL     1       0.702   4.319  20.640  0.00  0.00    +0.000 F 
ATOM     34  F   UNL     1       2.308   2.887  20.341  0.00  0.00    +0.000 F 
ATOM     35  F   UNL     1       2.438   4.355  21.945  0.00  0.00    +0.000 F 
ENDBRANCH  24  32
ENDBRANCH   2  20
TORSDOF 8
ENDMDL
