MODEL 1
REMARK VINA RESULT:      -9.7      0.000      0.000
REMARK  Name = 
REMARK  10 active torsions:
REMARK  status: ('A' for Active; 'I' for Inactive)
REMARK    1  A    between atoms: C_1  and  N_2
REMARK    2  A    between atoms: C_5  and  O_6
REMARK    3  A    between atoms: C_7  and  C_8
REMARK    4  A    between atoms: C_8  and  C_9
REMARK    5  A    between atoms: C_13  and  C_14
REMARK    6  A    between atoms: N_20  and  C_21
REMARK    7  A    between atoms: C_25  and  C_26
REMARK    8  A    between atoms: C_26  and  C_27
REMARK    9  A    between atoms: C_27  and  C_28
REMARK   10  A    between atoms: N_32  and  C_33
REMARK                            x       y       z     vdW  Elec       q    Type
REMARK                         _______ _______ _______ _____ _____    ______ ____
ROOT
ATOM      1  C   UNL     1       0.741  11.724  19.453  0.00  0.00    +0.000 A 
ATOM      2  C   UNL     1       1.314  10.754  18.624  0.00  0.00    +0.000 A 
ATOM      3  C   UNL     1       1.465   9.472  19.110  0.00  0.00    +0.000 A 
ATOM      4  C   UNL     1       1.071   9.068  20.374  0.00  0.00    +0.000 A 
ATOM      5  C   UNL     1       0.441   9.992  21.210  0.00  0.00    +0.000 A 
ATOM      6  C   UNL     1       0.284  11.334  20.729  0.00  0.00    +0.000 A 
ATOM      7  C   UNL     1       1.486   7.632  20.574  0.00  0.00    +0.000 C 
ATOM      8  N   UNL     1       2.205   7.316  19.337  0.00  0.00    +0.000 N 
ATOM      9  C   UNL     1       2.153   8.379  18.439  0.00  0.00    +0.000 C 
ATOM     10  O   UNL     1       2.559   8.501  17.300  0.00  0.00    +0.000 OA
ENDROOT
BRANCH   8  11
ATOM     11  C   UNL     1       2.847   6.074  19.073  0.00  0.00    +0.000 A 
ATOM     12  C   UNL     1       2.707   5.000  19.960  0.00  0.00    +0.000 A 
ATOM     13  C   UNL     1       3.378   3.797  19.759  0.00  0.00    +0.000 A 
ATOM     14  C   UNL     1       4.224   3.659  18.669  0.00  0.00    +0.000 A 
ATOM     15  C   UNL     1       4.413   4.704  17.742  0.00  0.00    +0.000 A 
ATOM     16  C   UNL     1       3.664   5.891  17.949  0.00  0.00    +0.000 A 
BRANCH  15  17
ATOM     17  C   UNL     1       5.489   4.560  16.566  0.00  0.00    +0.000 C 
ATOM     18  C   UNL     1       5.247   3.522  15.433  0.00  0.00    +0.000 C 
ATOM     19  O   UNL     1       5.567   4.520  14.421  0.00  0.00    +0.000 OA
ATOM     20  C   UNL     1       5.294   5.563  15.388  0.00  0.00    +0.000 C 
BRANCH  17  21
ATOM     21  C   UNL     1       6.932   4.570  17.099  0.00  0.00    +0.000 C 
BRANCH  21  22
ATOM     22  C   UNL     1       7.422   5.939  17.433  0.00  0.00    +0.000 A 
ATOM     23  N   UNL     1       7.535   6.949  16.592  0.00  0.00    +0.000 NA
ATOM     24  N   UNL     1       7.983   8.046  17.289  0.00  0.00    +0.000 NA
ATOM     25  C   UNL     1       8.133   7.686  18.540  0.00  0.00    +0.000 A 
ATOM     26  N   UNL     1       7.811   6.370  18.676  0.00  0.00    +0.000 N 
ATOM     27  C   UNL     1       7.871   5.618  19.899  0.00  0.00    +0.000 C 
ENDBRANCH  21  22
ENDBRANCH  17  21
ENDBRANCH  15  17
ENDBRANCH   8  11
BRANCH   5  28
ATOM     28  C   UNL     1      -0.015   9.615  22.602  0.00  0.00    +0.000 C 
ATOM     29  F   UNL     1      -0.694  10.609  23.240  0.00  0.00    +0.000 F 
ATOM     30  F   UNL     1      -0.850   8.540  22.603  0.00  0.00    +0.000 F 
ATOM     31  F   UNL     1       1.020   9.290  23.425  0.00  0.00    +0.000 F 
ENDBRANCH   5  28
BRANCH   1  32
ATOM     32  C   UNL     1       0.890  13.168  18.992  0.00  0.00    +0.000 C 
BRANCH  32  38
ATOM     33  C   UNL     1      -0.166  16.390  18.989  0.00  0.00    +0.000 C 
ATOM     34  N   UNL     1       1.238  16.277  19.338  0.00  0.00    +0.000 NA
ATOM     35  C   UNL     1       1.583  16.345  20.747  0.00  0.00    +0.000 C 
ATOM     36  C   UNL     1       1.997  15.031  21.419  0.00  0.00    +0.000 C 
ATOM     37  C   UNL     1       2.779  14.067  20.523  0.00  0.00    +0.000 C 
ATOM     38  C   UNL     1       2.219  13.941  19.098  0.00  0.00    +0.000 C 
ATOM     39  C   UNL     1       2.040  15.371  18.521  0.00  0.00    +0.000 C 
BRANCH  37  40
ATOM     40  O   UNL     1       4.148  14.492  20.451  0.00  0.00    +0.000 OA
ATOM     41  H   UNL     1       4.702  13.837  20.910  0.00  0.00    +0.000 HD
ENDBRANCH  37  40
ENDBRANCH  32  38
ENDBRANCH   1  32
TORSDOF 8
ENDMDL
MODEL 2
REMARK VINA RESULT:      -9.7      1.111      1.569
REMARK  Name = 
REMARK  10 active torsions:
REMARK  status: ('A' for Active; 'I' for Inactive)
REMARK    1  A    between atoms: C_1  and  N_2
REMARK    2  A    between atoms: C_5  and  O_6
REMARK    3  A    between atoms: C_7  and  C_8
REMARK    4  A    between atoms: C_8  and  C_9
REMARK    5  A    between atoms: C_13  and  C_14
REMARK    6  A    between atoms: N_20  and  C_21
REMARK    7  A    between atoms: C_25  and  C_26
REMARK    8  A    between atoms: C_26  and  C_27
REMARK    9  A    between atoms: C_27  and  C_28
REMARK   10  A    between atoms: N_32  and  C_33
REMARK                            x       y       z     vdW  Elec       q    Type
REMARK                         _______ _______ _______ _____ _____    ______ ____
ROOT
ATOM      1  C   UNL     1       0.487  11.591  19.309  0.00  0.00    +0.000 A 
ATOM      2  C   UNL     1       1.124  10.644  18.501  0.00  0.00    +0.000 A 
ATOM      3  C   UNL     1       1.373   9.390  19.016  0.00  0.00    +0.000 A 
ATOM      4  C   UNL     1       1.017   8.990  20.294  0.00  0.00    +0.000 A 
ATOM      5  C   UNL     1       0.326   9.886  21.112  0.00  0.00    +0.000 A 
ATOM      6  C   UNL     1       0.068  11.200  20.598  0.00  0.00    +0.000 A 
ATOM      7  C   UNL     1       1.538   7.594  20.526  0.00  0.00    +0.000 C 
ATOM      8  N   UNL     1       2.270   7.300  19.291  0.00  0.00    +0.000 N 
ATOM      9  C   UNL     1       2.135   8.333  18.368  0.00  0.00    +0.000 C 
ATOM     10  O   UNL     1       2.524   8.456  17.223  0.00  0.00    +0.000 OA
ENDROOT
BRANCH   8  11
ATOM     11  C   UNL     1       3.001   6.102  19.053  0.00  0.00    +0.000 A 
ATOM     12  C   UNL     1       3.010   5.075  20.005  0.00  0.00    +0.000 A 
ATOM     13  C   UNL     1       3.768   3.922  19.825  0.00  0.00    +0.000 A 
ATOM     14  C   UNL     1       4.554   3.791  18.690  0.00  0.00    +0.000 A 
ATOM     15  C   UNL     1       4.594   4.790  17.697  0.00  0.00    +0.000 A 
ATOM     16  C   UNL     1       3.759   5.920  17.888  0.00  0.00    +0.000 A 
BRANCH  15  17
ATOM     17  C   UNL     1       5.603   4.665  16.461  0.00  0.00    +0.000 C 
ATOM     18  C   UNL     1       5.317   3.621  15.345  0.00  0.00    +0.000 C 
ATOM     19  O   UNL     1       5.558   4.623  14.315  0.00  0.00    +0.000 OA
ATOM     20  C   UNL     1       5.321   5.663  15.295  0.00  0.00    +0.000 C 
BRANCH  17  21
ATOM     21  C   UNL     1       7.074   4.705  16.910  0.00  0.00    +0.000 C 
BRANCH  21  22
ATOM     22  C   UNL     1       7.512   6.059  17.358  0.00  0.00    +0.000 A 
ATOM     23  N   UNL     1       7.644   7.125  16.591  0.00  0.00    +0.000 NA
ATOM     24  N   UNL     1       8.027   8.182  17.380  0.00  0.00    +0.000 NA
ATOM     25  C   UNL     1       8.120   7.744  18.612  0.00  0.00    +0.000 A 
ATOM     26  N   UNL     1       7.824   6.416  18.645  0.00  0.00    +0.000 N 
ATOM     27  C   UNL     1       7.838   5.586  19.819  0.00  0.00    +0.000 C 
ENDBRANCH  21  22
ENDBRANCH  17  21
ENDBRANCH  15  17
ENDBRANCH   8  11
BRANCH   5  28
ATOM     28  C   UNL     1      -0.092   9.512  22.515  0.00  0.00    +0.000 C 
ATOM     29  F   UNL     1      -0.791  10.492  23.155  0.00  0.00    +0.000 F 
ATOM     30  F   UNL     1      -0.892   8.411  22.545  0.00  0.00    +0.000 F 
ATOM     31  F   UNL     1       0.967   9.231  23.324  0.00  0.00    +0.000 F 
ENDBRANCH   5  28
BRANCH   1  32
ATOM     32  C   UNL     1       0.527  13.029  18.812  0.00  0.00    +0.000 C 
BRANCH  32  38
ATOM     33  C   UNL     1       2.787  14.265  21.017  0.00  0.00    +0.000 C 
ATOM     34  N   UNL     1       1.622  15.122  20.893  0.00  0.00    +0.000 NA
ATOM     35  C   UNL     1       1.744  16.294  20.043  0.00  0.00    +0.000 C 
ATOM     36  C   UNL     1       1.024  16.243  18.691  0.00  0.00    +0.000 C 
ATOM     37  C   UNL     1      -0.305  15.482  18.697  0.00  0.00    +0.000 C 
ATOM     38  C   UNL     1      -0.270  14.163  19.485  0.00  0.00    +0.000 C 
ATOM     39  C   UNL     1       0.322  14.457  20.890  0.00  0.00    +0.000 C 
BRANCH  37  40
ATOM     40  O   UNL     1      -1.331  16.324  19.242  0.00  0.00    +0.000 OA
ATOM     41  H   UNL     1      -2.035  15.760  19.608  0.00  0.00    +0.000 HD
ENDBRANCH  37  40
ENDBRANCH  32  38
ENDBRANCH   1  32
TORSDOF 8
ENDMDL
MODEL 3
REMARK VINA RESULT:      -9.7      2.601      8.686
REMARK  Name = 
REMARK  10 active torsions:
REMARK  status: ('A' for Active; 'I' for Inactive)
REMARK    1  A    between atoms: C_1  and  N_2
REMARK    2  A    between atoms: C_5  and  O_6
REMARK    3  A    between atoms: C_7  and  C_8
REMARK    4  A    between atoms: C_8  and  C_9
REMARK    5  A    between atoms: C_13  and  C_14
REMARK    6  A    between atoms: N_20  and  C_21
REMARK    7  A    between atoms: C_25  and  C_26
REMARK    8  A    between atoms: C_26  and  C_27
REMARK    9  A    between atoms: C_27  and  C_28
REMARK   10  A    between atoms: N_32  and  C_33
REMARK                            x       y       z     vdW  Elec       q    Type
REMARK                         _______ _______ _______ _____ _____    ______ ____
ROOT
ATOM      1  C   UNL     1       3.830   4.579  18.044  0.00  0.00    +0.000 A 
ATOM      2  C   UNL     1       3.539   5.946  18.087  0.00  0.00    +0.000 A 
ATOM      3  C   UNL     1       2.763   6.427  19.120  0.00  0.00    +0.000 A 
ATOM      4  C   UNL     1       2.255   5.643  20.142  0.00  0.00    +0.000 A 
ATOM      5  C   UNL     1       2.573   4.284  20.168  0.00  0.00    +0.000 A 
ATOM      6  C   UNL     1       3.369   3.760  19.096  0.00  0.00    +0.000 A 
ATOM      7  C   UNL     1       1.383   6.502  21.023  0.00  0.00    +0.000 C 
ATOM      8  N   UNL     1       1.402   7.801  20.347  0.00  0.00    +0.000 N 
ATOM      9  C   UNL     1       2.258   7.786  19.249  0.00  0.00    +0.000 C 
ATOM     10  O   UNL     1       2.601   8.657  18.474  0.00  0.00    +0.000 OA
ENDROOT
BRANCH   8  11
ATOM     11  C   UNL     1       0.665   8.942  20.773  0.00  0.00    +0.000 A 
ATOM     12  C   UNL     1       0.376   9.134  22.130  0.00  0.00    +0.000 A 
ATOM     13  C   UNL     1      -0.399  10.205  22.565  0.00  0.00    +0.000 A 
ATOM     14  C   UNL     1      -0.919  11.095  21.637  0.00  0.00    +0.000 A 
ATOM     15  C   UNL     1      -0.671  10.954  20.257  0.00  0.00    +0.000 A 
ATOM     16  C   UNL     1       0.174   9.886  19.861  0.00  0.00    +0.000 A 
BRANCH  15  17
ATOM     17  C   UNL     1      -1.386  11.922  19.202  0.00  0.00    +0.000 C 
ATOM     18  C   UNL     1      -1.647  11.415  17.755  0.00  0.00    +0.000 C 
ATOM     19  O   UNL     1      -3.020  11.898  17.810  0.00  0.00    +0.000 OA
ATOM     20  C   UNL     1      -2.945  11.897  19.256  0.00  0.00    +0.000 C 
BRANCH  17  21
ATOM     21  C   UNL     1      -0.830  13.356  19.265  0.00  0.00    +0.000 C 
BRANCH  21  22
ATOM     22  C   UNL     1       0.661  13.407  19.228  0.00  0.00    +0.000 A 
ATOM     23  N   UNL     1       1.422  13.078  18.202  0.00  0.00    +0.000 NA
ATOM     24  N   UNL     1       2.734  13.300  18.548  0.00  0.00    +0.000 NA
ATOM     25  C   UNL     1       2.748  13.761  19.775  0.00  0.00    +0.000 A 
ATOM     26  N   UNL     1       1.473  13.829  20.249  0.00  0.00    +0.000 N 
ATOM     27  C   UNL     1       1.094  14.269  21.564  0.00  0.00    +0.000 C 
ENDBRANCH  21  22
ENDBRANCH  17  21
ENDBRANCH  15  17
ENDBRANCH   8  11
BRANCH   5  28
ATOM     28  C   UNL     1       2.053   3.373  21.257  0.00  0.00    +0.000 C 
ATOM     29  F   UNL     1       2.581   2.117  21.214  0.00  0.00    +0.000 F 
ATOM     30  F   UNL     1       2.326   3.843  22.505  0.00  0.00    +0.000 F 
ATOM     31  F   UNL     1       0.703   3.205  21.204  0.00  0.00    +0.000 F 
ENDBRANCH   5  28
BRANCH   1  32
ATOM     32  C   UNL     1       4.407   4.060  16.735  0.00  0.00    +0.000 C 
BRANCH  32  38
ATOM     33  C   UNL     1       4.954   7.073  15.277  0.00  0.00    +0.000 C 
ATOM     34  N   UNL     1       6.193   6.399  15.617  0.00  0.00    +0.000 NA
ATOM     35  C   UNL     1       6.867   6.816  16.835  0.00  0.00    +0.000 C 
ATOM     36  C   UNL     1       6.795   5.855  18.026  0.00  0.00    +0.000 C 
ATOM     37  C   UNL     1       6.810   4.369  17.657  0.00  0.00    +0.000 C 
ATOM     38  C   UNL     1       5.922   4.011  16.456  0.00  0.00    +0.000 C 
ATOM     39  C   UNL     1       6.272   4.977  15.293  0.00  0.00    +0.000 C 
BRANCH  37  40
ATOM     40  O   UNL     1       8.159   3.964  17.378  0.00  0.00    +0.000 OA
ATOM     41  H   UNL     1       8.173   3.000  17.247  0.00  0.00    +0.000 HD
ENDBRANCH  37  40
ENDBRANCH  32  38
ENDBRANCH   1  32
TORSDOF 8
ENDMDL
MODEL 4
REMARK VINA RESULT:      -9.5      2.645      8.796
REMARK  Name = 
REMARK  10 active torsions:
REMARK  status: ('A' for Active; 'I' for Inactive)
REMARK    1  A    between atoms: C_1  and  N_2
REMARK    2  A    between atoms: C_5  and  O_6
REMARK    3  A    between atoms: C_7  and  C_8
REMARK    4  A    between atoms: C_8  and  C_9
REMARK    5  A    between atoms: C_13  and  C_14
REMARK    6  A    between atoms: N_20  and  C_21
REMARK    7  A    between atoms: C_25  and  C_26
REMARK    8  A    between atoms: C_26  and  C_27
REMARK    9  A    between atoms: C_27  and  C_28
REMARK   10  A    between atoms: N_32  and  C_33
REMARK                            x       y       z     vdW  Elec       q    Type
REMARK                         _______ _______ _______ _____ _____    ______ ____
ROOT
ATOM      1  C   UNL     1       3.933   4.523  18.070  0.00  0.00    +0.000 A 
ATOM      2  C   UNL     1       3.599   5.881  18.074  0.00  0.00    +0.000 A 
ATOM      3  C   UNL     1       2.838   6.375  19.112  0.00  0.00    +0.000 A 
ATOM      4  C   UNL     1       2.385   5.612  20.176  0.00  0.00    +0.000 A 
ATOM      5  C   UNL     1       2.747   4.265  20.240  0.00  0.00    +0.000 A 
ATOM      6  C   UNL     1       3.529   3.729  19.163  0.00  0.00    +0.000 A 
ATOM      7  C   UNL     1       1.511   6.474  21.051  0.00  0.00    +0.000 C 
ATOM      8  N   UNL     1       1.469   7.749  20.330  0.00  0.00    +0.000 N 
ATOM      9  C   UNL     1       2.294   7.721  19.209  0.00  0.00    +0.000 C 
ATOM     10  O   UNL     1       2.586   8.574  18.394  0.00  0.00    +0.000 OA
ENDROOT
BRANCH   8  11
ATOM     11  C   UNL     1       0.708   8.880  20.738  0.00  0.00    +0.000 A 
ATOM     12  C   UNL     1       0.516   9.154  22.098  0.00  0.00    +0.000 A 
ATOM     13  C   UNL     1      -0.278  10.215  22.522  0.00  0.00    +0.000 A 
ATOM     14  C   UNL     1      -0.915  11.011  21.582  0.00  0.00    +0.000 A 
ATOM     15  C   UNL     1      -0.768  10.786  20.199  0.00  0.00    +0.000 A 
ATOM     16  C   UNL     1       0.099   9.734  19.807  0.00  0.00    +0.000 A 
BRANCH  15  17
ATOM     17  C   UNL     1      -1.612  11.642  19.143  0.00  0.00    +0.000 C 
ATOM     18  C   UNL     1      -2.670  10.931  18.254  0.00  0.00    +0.000 C 
ATOM     19  O   UNL     1      -3.653  11.962  18.559  0.00  0.00    +0.000 OA
ATOM     20  C   UNL     1      -2.886  12.320  19.735  0.00  0.00    +0.000 C 
BRANCH  17  21
ATOM     21  C   UNL     1      -0.730  12.644  18.376  0.00  0.00    +0.000 C 
BRANCH  21  22
ATOM     22  C   UNL     1       0.206  13.397  19.261  0.00  0.00    +0.000 A 
ATOM     23  N   UNL     1      -0.136  14.290  20.169  0.00  0.00    +0.000 NA
ATOM     24  N   UNL     1       1.005  14.726  20.799  0.00  0.00    +0.000 NA
ATOM     25  C   UNL     1       2.020  14.090  20.265  0.00  0.00    +0.000 A 
ATOM     26  N   UNL     1       1.570  13.259  19.285  0.00  0.00    +0.000 N 
ATOM     27  C   UNL     1       2.394  12.414  18.464  0.00  0.00    +0.000 C 
ENDBRANCH  21  22
ENDBRANCH  17  21
ENDBRANCH  15  17
ENDBRANCH   8  11
BRANCH   5  28
ATOM     28  C   UNL     1       2.288   3.378  21.375  0.00  0.00    +0.000 C 
ATOM     29  F   UNL     1       2.313   3.993  22.591  0.00  0.00    +0.000 F 
ATOM     30  F   UNL     1       1.009   2.942  21.210  0.00  0.00    +0.000 F 
ATOM     31  F   UNL     1       3.053   2.260  21.513  0.00  0.00    +0.000 F 
ENDBRANCH   5  28
BRANCH   1  32
ATOM     32  C   UNL     1       4.489   3.975  16.763  0.00  0.00    +0.000 C 
BRANCH  32  38
ATOM     33  C   UNL     1       4.917   6.995  15.279  0.00  0.00    +0.000 C 
ATOM     34  N   UNL     1       6.182   6.354  15.586  0.00  0.00    +0.000 NA
ATOM     35  C   UNL     1       6.879   6.794  16.783  0.00  0.00    +0.000 C 
ATOM     36  C   UNL     1       6.865   5.836  17.979  0.00  0.00    +0.000 C 
ATOM     37  C   UNL     1       6.909   4.349  17.616  0.00  0.00    +0.000 C 
ATOM     38  C   UNL     1       5.996   3.964  16.441  0.00  0.00    +0.000 C 
ATOM     39  C   UNL     1       6.288   4.934  15.265  0.00  0.00    +0.000 C 
BRANCH  37  40
ATOM     40  O   UNL     1       8.259   3.978  17.299  0.00  0.00    +0.000 OA
ATOM     41  H   UNL     1       8.844   4.305  18.004  0.00  0.00    +0.000 HD
ENDBRANCH  37  40
ENDBRANCH  32  38
ENDBRANCH   1  32
TORSDOF 8
ENDMDL
MODEL 5
REMARK VINA RESULT:      -9.4      3.205      9.125
REMARK  Name = 
REMARK  10 active torsions:
REMARK  status: ('A' for Active; 'I' for Inactive)
REMARK    1  A    between atoms: C_1  and  N_2
REMARK    2  A    between atoms: C_5  and  O_6
REMARK    3  A    between atoms: C_7  and  C_8
REMARK    4  A    between atoms: C_8  and  C_9
REMARK    5  A    between atoms: C_13  and  C_14
REMARK    6  A    between atoms: N_20  and  C_21
REMARK    7  A    between atoms: C_25  and  C_26
REMARK    8  A    between atoms: C_26  and  C_27
REMARK    9  A    between atoms: C_27  and  C_28
REMARK   10  A    between atoms: N_32  and  C_33
REMARK                            x       y       z     vdW  Elec       q    Type
REMARK                         _______ _______ _______ _____ _____    ______ ____
ROOT
ATOM      1  C   UNL     1       3.749   4.667  18.074  0.00  0.00    +0.000 A 
ATOM      2  C   UNL     1       3.424   6.026  18.142  0.00  0.00    +0.000 A 
ATOM      3  C   UNL     1       2.685   6.479  19.214  0.00  0.00    +0.000 A 
ATOM      4  C   UNL     1       2.247   5.674  20.253  0.00  0.00    +0.000 A 
ATOM      5  C   UNL     1       2.601   4.323  20.252  0.00  0.00    +0.000 A 
ATOM      6  C   UNL     1       3.360   3.829  19.140  0.00  0.00    +0.000 A 
ATOM      7  C   UNL     1       1.395   6.502  21.180  0.00  0.00    +0.000 C 
ATOM      8  N   UNL     1       1.347   7.807  20.516  0.00  0.00    +0.000 N 
ATOM      9  C   UNL     1       2.151   7.823  19.379  0.00  0.00    +0.000 C 
ATOM     10  O   UNL     1       2.435   8.708  18.596  0.00  0.00    +0.000 OA
ENDROOT
BRANCH   8  11
ATOM     11  C   UNL     1       0.601   8.924  20.985  0.00  0.00    +0.000 A 
ATOM     12  C   UNL     1       0.141   8.965  22.307  0.00  0.00    +0.000 A 
ATOM     13  C   UNL     1      -0.646  10.015  22.772  0.00  0.00    +0.000 A 
ATOM     14  C   UNL     1      -1.006  11.036  21.906  0.00  0.00    +0.000 A 
ATOM     15  C   UNL     1      -0.580  11.051  20.562  0.00  0.00    +0.000 A 
ATOM     16  C   UNL     1       0.271   9.996  20.145  0.00  0.00    +0.000 A 
BRANCH  15  17
ATOM     17  C   UNL     1      -1.113  12.176  19.556  0.00  0.00    +0.000 C 
ATOM     18  C   UNL     1      -0.824  13.673  19.862  0.00  0.00    +0.000 C 
ATOM     19  O   UNL     1      -0.383  13.891  18.492  0.00  0.00    +0.000 OA
ATOM     20  C   UNL     1      -0.162  12.467  18.354  0.00  0.00    +0.000 C 
BRANCH  17  21
ATOM     21  C   UNL     1      -2.556  11.904  19.097  0.00  0.00    +0.000 C 
BRANCH  21  22
ATOM     22  C   UNL     1      -2.629  11.110  17.836  0.00  0.00    +0.000 A 
ATOM     23  N   UNL     1      -1.689  10.311  17.367  0.00  0.00    +0.000 NA
ATOM     24  N   UNL     1      -2.149   9.734  16.208  0.00  0.00    +0.000 NA
ATOM     25  C   UNL     1      -3.359  10.190  15.992  0.00  0.00    +0.000 A 
ATOM     26  N   UNL     1      -3.696  11.069  16.975  0.00  0.00    +0.000 N 
ATOM     27  C   UNL     1      -4.938  11.787  17.065  0.00  0.00    +0.000 C 
ENDBRANCH  21  22
ENDBRANCH  17  21
ENDBRANCH  15  17
ENDBRANCH   8  11
BRANCH   5  28
ATOM     28  C   UNL     1       2.157   3.390  21.356  0.00  0.00    +0.000 C 
ATOM     29  F   UNL     1       2.720   2.152  21.282  0.00  0.00    +0.000 F 
ATOM     30  F   UNL     1       2.469   3.863  22.594  0.00  0.00    +0.000 F 
ATOM     31  F   UNL     1       0.812   3.181  21.360  0.00  0.00    +0.000 F 
ENDBRANCH   5  28
BRANCH   1  32
ATOM     32  C   UNL     1       4.278   4.173  16.735  0.00  0.00    +0.000 C 
BRANCH  32  38
ATOM     33  C   UNL     1       4.860   7.239  15.407  0.00  0.00    +0.000 C 
ATOM     34  N   UNL     1       6.091   6.520  15.679  0.00  0.00    +0.000 NA
ATOM     35  C   UNL     1       6.808   6.862  16.896  0.00  0.00    +0.000 C 
ATOM     36  C   UNL     1       6.744   5.846  18.041  0.00  0.00    +0.000 C 
ATOM     37  C   UNL     1       6.712   4.380  17.602  0.00  0.00    +0.000 C 
ATOM     38  C   UNL     1       5.782   4.102  16.411  0.00  0.00    +0.000 C 
ATOM     39  C   UNL     1       6.125   5.114  15.285  0.00  0.00    +0.000 C 
BRANCH  37  40
ATOM     40  O   UNL     1       8.042   3.957  17.266  0.00  0.00    +0.000 OA
ATOM     41  H   UNL     1       8.528   3.775  18.089  0.00  0.00    +0.000 HD
ENDBRANCH  37  40
ENDBRANCH  32  38
ENDBRANCH   1  32
TORSDOF 8
ENDMDL
MODEL 6
REMARK VINA RESULT:      -9.3      1.542      2.390
REMARK  Name = 
REMARK  10 active torsions:
REMARK  status: ('A' for Active; 'I' for Inactive)
REMARK    1  A    between atoms: C_1  and  N_2
REMARK    2  A    between atoms: C_5  and  O_6
REMARK    3  A    between atoms: C_7  and  C_8
REMARK    4  A    between atoms: C_8  and  C_9
REMARK    5  A    between atoms: C_13  and  C_14
REMARK    6  A    between atoms: N_20  and  C_21
REMARK    7  A    between atoms: C_25  and  C_26
REMARK    8  A    between atoms: C_26  and  C_27
REMARK    9  A    between atoms: C_27  and  C_28
REMARK   10  A    between atoms: N_32  and  C_33
REMARK                            x       y       z     vdW  Elec       q    Type
REMARK                         _______ _______ _______ _____ _____    ______ ____
ROOT
ATOM      1  C   UNL     1       0.351  12.144  19.759  0.00  0.00    +0.000 A 
ATOM      2  C   UNL     1       0.936  11.327  18.786  0.00  0.00    +0.000 A 
ATOM      3  C   UNL     1       1.186  10.006  19.092  0.00  0.00    +0.000 A 
ATOM      4  C   UNL     1       0.881   9.418  20.309  0.00  0.00    +0.000 A 
ATOM      5  C   UNL     1       0.242  10.185  21.285  0.00  0.00    +0.000 A 
ATOM      6  C   UNL     1      -0.016  11.565  20.991  0.00  0.00    +0.000 A 
ATOM      7  C   UNL     1       1.388   7.998  20.300  0.00  0.00    +0.000 C 
ATOM      8  N   UNL     1       2.059   7.891  19.002  0.00  0.00    +0.000 N 
ATOM      9  C   UNL     1       1.901   9.055  18.254  0.00  0.00    +0.000 C 
ATOM     10  O   UNL     1       2.240   9.348  17.125  0.00  0.00    +0.000 OA
ENDROOT
BRANCH   8  11
ATOM     11  C   UNL     1       2.758   6.736  18.549  0.00  0.00    +0.000 A 
ATOM     12  C   UNL     1       2.084   5.521  18.376  0.00  0.00    +0.000 A 
ATOM     13  C   UNL     1       2.757   4.363  17.998  0.00  0.00    +0.000 A 
ATOM     14  C   UNL     1       4.130   4.400  17.809  0.00  0.00    +0.000 A 
ATOM     15  C   UNL     1       4.868   5.589  17.973  0.00  0.00    +0.000 A 
ATOM     16  C   UNL     1       4.137   6.760  18.298  0.00  0.00    +0.000 A 
BRANCH  15  17
ATOM     17  C   UNL     1       6.465   5.574  17.869  0.00  0.00    +0.000 C 
ATOM     18  C   UNL     1       7.227   6.905  17.615  0.00  0.00    +0.000 C 
ATOM     19  O   UNL     1       8.164   6.598  18.687  0.00  0.00    +0.000 OA
ATOM     20  C   UNL     1       7.202   5.669  19.240  0.00  0.00    +0.000 C 
BRANCH  17  21
ATOM     21  C   UNL     1       6.976   4.395  17.021  0.00  0.00    +0.000 C 
BRANCH  21  22
ATOM     22  C   UNL     1       7.103   4.728  15.572  0.00  0.00    +0.000 A 
ATOM     23  N   UNL     1       7.999   5.535  15.038  0.00  0.00    +0.000 NA
ATOM     24  N   UNL     1       7.813   5.550  13.677  0.00  0.00    +0.000 NA
ATOM     25  C   UNL     1       6.808   4.752  13.406  0.00  0.00    +0.000 A 
ATOM     26  N   UNL     1       6.320   4.228  14.564  0.00  0.00    +0.000 N 
ATOM     27  C   UNL     1       5.207   3.324  14.667  0.00  0.00    +0.000 C 
ENDBRANCH  21  22
ENDBRANCH  17  21
ENDBRANCH  15  17
ENDBRANCH   8  11
BRANCH   5  28
ATOM     28  C   UNL     1      -0.120   9.604  22.633  0.00  0.00    +0.000 C 
ATOM     29  F   UNL     1      -0.818  10.463  23.427  0.00  0.00    +0.000 F 
ATOM     30  F   UNL     1      -0.893   8.489  22.529  0.00  0.00    +0.000 F 
ATOM     31  F   UNL     1       0.972   9.239  23.360  0.00  0.00    +0.000 F 
ENDBRANCH   5  28
BRANCH   1  32
ATOM     32  C   UNL     1       0.393  13.641  19.486  0.00  0.00    +0.000 C 
BRANCH  32  38
ATOM     33  C   UNL     1      -0.713  16.752  18.708  0.00  0.00    +0.000 C 
ATOM     34  N   UNL     1       0.560  16.784  19.406  0.00  0.00    +0.000 NA
ATOM     35  C   UNL     1       0.533  17.082  20.827  0.00  0.00    +0.000 C 
ATOM     36  C   UNL     1       0.797  15.913  21.782  0.00  0.00    +0.000 C 
ATOM     37  C   UNL     1       1.807  14.880  21.272  0.00  0.00    +0.000 C 
ATOM     38  C   UNL     1       1.630  14.508  19.792  0.00  0.00    +0.000 C 
ATOM     39  C   UNL     1       1.567  15.822  18.968  0.00  0.00    +0.000 C 
BRANCH  37  40
ATOM     40  O   UNL     1       3.137  15.379  21.473  0.00  0.00    +0.000 OA
ATOM     41  H   UNL     1       3.717  14.633  21.706  0.00  0.00    +0.000 HD
ENDBRANCH  37  40
ENDBRANCH  32  38
ENDBRANCH   1  32
TORSDOF 8
ENDMDL
MODEL 7
REMARK VINA RESULT:      -9.3      3.180      9.250
REMARK  Name = 
REMARK  10 active torsions:
REMARK  status: ('A' for Active; 'I' for Inactive)
REMARK    1  A    between atoms: C_1  and  N_2
REMARK    2  A    between atoms: C_5  and  O_6
REMARK    3  A    between atoms: C_7  and  C_8
REMARK    4  A    between atoms: C_8  and  C_9
REMARK    5  A    between atoms: C_13  and  C_14
REMARK    6  A    between atoms: N_20  and  C_21
REMARK    7  A    between atoms: C_25  and  C_26
REMARK    8  A    between atoms: C_26  and  C_27
REMARK    9  A    between atoms: C_27  and  C_28
REMARK   10  A    between atoms: N_32  and  C_33
REMARK                            x       y       z     vdW  Elec       q    Type
REMARK                         _______ _______ _______ _____ _____    ______ ____
ROOT
ATOM      1  C   UNL     1       3.860   4.612  18.039  0.00  0.00    +0.000 A 
ATOM      2  C   UNL     1       3.570   5.980  18.061  0.00  0.00    +0.000 A 
ATOM      3  C   UNL     1       2.796   6.478  19.088  0.00  0.00    +0.000 A 
ATOM      4  C   UNL     1       2.289   5.709  20.123  0.00  0.00    +0.000 A 
ATOM      5  C   UNL     1       2.606   4.350  20.169  0.00  0.00    +0.000 A 
ATOM      6  C   UNL     1       3.400   3.810  19.104  0.00  0.00    +0.000 A 
ATOM      7  C   UNL     1       1.419   6.582  20.991  0.00  0.00    +0.000 C 
ATOM      8  N   UNL     1       1.438   7.871  20.296  0.00  0.00    +0.000 N 
ATOM      9  C   UNL     1       2.292   7.839  19.197  0.00  0.00    +0.000 C 
ATOM     10  O   UNL     1       2.635   8.697  18.408  0.00  0.00    +0.000 OA
ENDROOT
BRANCH   8  11
ATOM     11  C   UNL     1       0.702   9.019  20.706  0.00  0.00    +0.000 A 
ATOM     12  C   UNL     1       0.026   9.029  21.932  0.00  0.00    +0.000 A 
ATOM     13  C   UNL     1      -0.753  10.112  22.326  0.00  0.00    +0.000 A 
ATOM     14  C   UNL     1      -0.887  11.202  21.479  0.00  0.00    +0.000 A 
ATOM     15  C   UNL     1      -0.238  11.252  20.229  0.00  0.00    +0.000 A 
ATOM     16  C   UNL     1       0.596  10.156  19.892  0.00  0.00    +0.000 A 
BRANCH  15  17
ATOM     17  C   UNL     1      -0.510  12.467  19.222  0.00  0.00    +0.000 C 
ATOM     18  C   UNL     1      -0.998  13.831  19.786  0.00  0.00    +0.000 C 
ATOM     19  O   UNL     1      -0.005  14.540  18.991  0.00  0.00    +0.000 OA
ATOM     20  C   UNL     1       0.754  13.312  18.875  0.00  0.00    +0.000 C 
BRANCH  17  21
ATOM     21  C   UNL     1      -1.264  12.012  17.960  0.00  0.00    +0.000 C 
BRANCH  21  22
ATOM     22  C   UNL     1      -2.688  11.655  18.226  0.00  0.00    +0.000 A 
ATOM     23  N   UNL     1      -3.480  12.232  19.109  0.00  0.00    +0.000 NA
ATOM     24  N   UNL     1      -4.721  11.649  19.024  0.00  0.00    +0.000 NA
ATOM     25  C   UNL     1      -4.664  10.730  18.091  0.00  0.00    +0.000 A 
ATOM     26  N   UNL     1      -3.405  10.684  17.574  0.00  0.00    +0.000 N 
ATOM     27  C   UNL     1      -2.957   9.788  16.544  0.00  0.00    +0.000 C 
ENDBRANCH  21  22
ENDBRANCH  17  21
ENDBRANCH  15  17
ENDBRANCH   8  11
BRANCH   5  28
ATOM     28  C   UNL     1       2.086   3.456  21.273  0.00  0.00    +0.000 C 
ATOM     29  F   UNL     1       2.598   2.194  21.237  0.00  0.00    +0.000 F 
ATOM     30  F   UNL     1       2.378   3.936  22.512  0.00  0.00    +0.000 F 
ATOM     31  F   UNL     1       0.733   3.305  21.235  0.00  0.00    +0.000 F 
ENDBRANCH   5  28
BRANCH   1  32
ATOM     32  C   UNL     1       4.435   4.072  16.737  0.00  0.00    +0.000 C 
BRANCH  32  38
ATOM     33  C   UNL     1       4.951   7.090  15.279  0.00  0.00    +0.000 C 
ATOM     34  N   UNL     1       6.198   6.425  15.611  0.00  0.00    +0.000 NA
ATOM     35  C   UNL     1       6.875   6.846  16.826  0.00  0.00    +0.000 C 
ATOM     36  C   UNL     1       6.817   5.883  18.017  0.00  0.00    +0.000 C 
ATOM     37  C   UNL     1       6.841   4.398  17.647  0.00  0.00    +0.000 C 
ATOM     38  C   UNL     1       5.948   4.035  16.450  0.00  0.00    +0.000 C 
ATOM     39  C   UNL     1       6.285   5.005  15.286  0.00  0.00    +0.000 C 
BRANCH  37  40
ATOM     40  O   UNL     1       8.191   4.003  17.359  0.00  0.00    +0.000 OA
ATOM     41  H   UNL     1       8.175   3.334  16.653  0.00  0.00    +0.000 HD
ENDBRANCH  37  40
ENDBRANCH  32  38
ENDBRANCH   1  32
TORSDOF 8
ENDMDL
MODEL 8
REMARK VINA RESULT:      -9.2      1.717      2.651
REMARK  Name = 
REMARK  10 active torsions:
REMARK  status: ('A' for Active; 'I' for Inactive)
REMARK    1  A    between atoms: C_1  and  N_2
REMARK    2  A    between atoms: C_5  and  O_6
REMARK    3  A    between atoms: C_7  and  C_8
REMARK    4  A    between atoms: C_8  and  C_9
REMARK    5  A    between atoms: C_13  and  C_14
REMARK    6  A    between atoms: N_20  and  C_21
REMARK    7  A    between atoms: C_25  and  C_26
REMARK    8  A    between atoms: C_26  and  C_27
REMARK    9  A    between atoms: C_27  and  C_28
REMARK   10  A    between atoms: N_32  and  C_33
REMARK                            x       y       z     vdW  Elec       q    Type
REMARK                         _______ _______ _______ _____ _____    ______ ____
ROOT
ATOM      1  C   UNL     1       0.953  12.075  19.929  0.00  0.00    +0.000 A 
ATOM      2  C   UNL     1       1.408  11.263  18.884  0.00  0.00    +0.000 A 
ATOM      3  C   UNL     1       1.445   9.898  19.073  0.00  0.00    +0.000 A 
ATOM      4  C   UNL     1       1.045   9.262  20.237  0.00  0.00    +0.000 A 
ATOM      5  C   UNL     1       0.529  10.032  21.281  0.00  0.00    +0.000 A 
ATOM      6  C   UNL     1       0.493  11.456  21.109  0.00  0.00    +0.000 A 
ATOM      7  C   UNL     1       1.323   7.786  20.101  0.00  0.00    +0.000 C 
ATOM      8  N   UNL     1       1.976   7.687  18.794  0.00  0.00    +0.000 N 
ATOM      9  C   UNL     1       2.006   8.921  18.151  0.00  0.00    +0.000 C 
ATOM     10  O   UNL     1       2.394   9.254  17.048  0.00  0.00    +0.000 OA
ENDROOT
BRANCH   8  11
ATOM     11  C   UNL     1       2.487   6.480  18.238  0.00  0.00    +0.000 A 
ATOM     12  C   UNL     1       1.697   5.325  18.202  0.00  0.00    +0.000 A 
ATOM     13  C   UNL     1       2.195   4.116  17.725  0.00  0.00    +0.000 A 
ATOM     14  C   UNL     1       3.511   4.042  17.293  0.00  0.00    +0.000 A 
ATOM     15  C   UNL     1       4.360   5.167  17.309  0.00  0.00    +0.000 A 
ATOM     16  C   UNL     1       3.796   6.393  17.744  0.00  0.00    +0.000 A 
BRANCH  15  17
ATOM     17  C   UNL     1       5.906   5.021  16.921  0.00  0.00    +0.000 C 
ATOM     18  C   UNL     1       6.784   6.297  16.788  0.00  0.00    +0.000 C 
ATOM     19  O   UNL     1       7.829   5.691  17.600  0.00  0.00    +0.000 OA
ATOM     20  C   UNL     1       6.853   4.764  18.134  0.00  0.00    +0.000 C 
BRANCH  17  21
ATOM     21  C   UNL     1       6.125   3.997  15.793  0.00  0.00    +0.000 C 
BRANCH  21  22
ATOM     22  C   UNL     1       6.825   4.573  14.609  0.00  0.00    +0.000 A 
ATOM     23  N   UNL     1       7.814   5.447  14.641  0.00  0.00    +0.000 NA
ATOM     24  N   UNL     1       8.212   5.699  13.350  0.00  0.00    +0.000 NA
ATOM     25  C   UNL     1       7.462   4.974  12.556  0.00  0.00    +0.000 A 
ATOM     26  N   UNL     1       6.567   4.266  13.297  0.00  0.00    +0.000 N 
ATOM     27  C   UNL     1       5.568   3.375  12.773  0.00  0.00    +0.000 C 
ENDBRANCH  21  22
ENDBRANCH  17  21
ENDBRANCH  15  17
ENDBRANCH   8  11
BRANCH   5  28
ATOM     28  C   UNL     1       0.073   9.401  22.577  0.00  0.00    +0.000 C 
ATOM     29  F   UNL     1       1.072   8.769  23.255  0.00  0.00    +0.000 F 
ATOM     30  F   UNL     1      -0.442  10.312  23.447  0.00  0.00    +0.000 F 
ATOM     31  F   UNL     1      -0.896   8.463  22.394  0.00  0.00    +0.000 F 
ENDBRANCH   5  28
BRANCH   1  32
ATOM     32  C   UNL     1       1.231  13.564  19.785  0.00  0.00    +0.000 C 
BRANCH  32  38
ATOM     33  C   UNL     1       0.966  16.899  20.343  0.00  0.00    +0.000 C 
ATOM     34  N   UNL     1       1.939  16.595  19.310  0.00  0.00    +0.000 NA
ATOM     35  C   UNL     1       3.340  16.598  19.692  0.00  0.00    +0.000 C 
ATOM     36  C   UNL     1       4.026  15.232  19.807  0.00  0.00    +0.000 C 
ATOM     37  C   UNL     1       3.548  14.184  18.798  0.00  0.00    +0.000 C 
ATOM     38  C   UNL     1       2.024  14.152  18.601  0.00  0.00    +0.000 C 
ATOM     39  C   UNL     1       1.544  15.600  18.317  0.00  0.00    +0.000 C 
BRANCH  37  40
ATOM     40  O   UNL     1       4.177  14.423  17.531  0.00  0.00    +0.000 OA
ATOM     41  H   UNL     1       5.137  14.296  17.632  0.00  0.00    +0.000 HD
ENDBRANCH  37  40
ENDBRANCH  32  38
ENDBRANCH   1  32
TORSDOF 8
ENDMDL
MODEL 9
REMARK VINA RESULT:      -9.0      1.245      1.671
REMARK  Name = 
REMARK  10 active torsions:
REMARK  status: ('A' for Active; 'I' for Inactive)
REMARK    1  A    between atoms: C_1  and  N_2
REMARK    2  A    between atoms: C_5  and  O_6
REMARK    3  A    between atoms: C_7  and  C_8
REMARK    4  A    between atoms: C_8  and  C_9
REMARK    5  A    between atoms: C_13  and  C_14
REMARK    6  A    between atoms: N_20  and  C_21
REMARK    7  A    between atoms: C_25  and  C_26
REMARK    8  A    between atoms: C_26  and  C_27
REMARK    9  A    between atoms: C_27  and  C_28
REMARK   10  A    between atoms: N_32  and  C_33
REMARK                            x       y       z     vdW  Elec       q    Type
REMARK                         _______ _______ _______ _____ _____    ______ ____
ROOT
ATOM      1  C   UNL     1       0.915  11.830  19.648  0.00  0.00    +0.000 A 
ATOM      2  C   UNL     1       1.386  10.892  18.724  0.00  0.00    +0.000 A 
ATOM      3  C   UNL     1       1.464   9.569  19.102  0.00  0.00    +0.000 A 
ATOM      4  C   UNL     1       1.090   9.092  20.348  0.00  0.00    +0.000 A 
ATOM      5  C   UNL     1       0.559   9.988  21.278  0.00  0.00    +0.000 A 
ATOM      6  C   UNL     1       0.480  11.371  20.909  0.00  0.00    +0.000 A 
ATOM      7  C   UNL     1       1.409   7.620  20.418  0.00  0.00    +0.000 C 
ATOM      8  N   UNL     1       2.056   7.356  19.131  0.00  0.00    +0.000 N 
ATOM      9  C   UNL     1       2.047   8.488  18.321  0.00  0.00    +0.000 C 
ATOM     10  O   UNL     1       2.418   8.673  17.178  0.00  0.00    +0.000 OA
ENDROOT
BRANCH   8  11
ATOM     11  C   UNL     1       2.599   6.098  18.745  0.00  0.00    +0.000 A 
ATOM     12  C   UNL     1       2.196   4.923  19.392  0.00  0.00    +0.000 A 
ATOM     13  C   UNL     1       2.759   3.689  19.079  0.00  0.00    +0.000 A 
ATOM     14  C   UNL     1       3.759   3.618  18.120  0.00  0.00    +0.000 A 
ATOM     15  C   UNL     1       4.213   4.764  17.437  0.00  0.00    +0.000 A 
ATOM     16  C   UNL     1       3.571   5.991  17.741  0.00  0.00    +0.000 A 
BRANCH  15  17
ATOM     17  C   UNL     1       5.451   4.668  16.427  0.00  0.00    +0.000 C 
ATOM     18  C   UNL     1       5.373   3.701  15.212  0.00  0.00    +0.000 C 
ATOM     19  O   UNL     1       5.849   4.749  14.319  0.00  0.00    +0.000 OA
ATOM     20  C   UNL     1       5.443   5.740  15.294  0.00  0.00    +0.000 C 
BRANCH  17  21
ATOM     21  C   UNL     1       6.799   4.624  17.169  0.00  0.00    +0.000 C 
BRANCH  21  22
ATOM     22  C   UNL     1       7.343   5.980  17.472  0.00  0.00    +0.000 A 
ATOM     23  N   UNL     1       7.437   6.986  16.624  0.00  0.00    +0.000 NA
ATOM     24  N   UNL     1       7.952   8.070  17.292  0.00  0.00    +0.000 NA
ATOM     25  C   UNL     1       8.161   7.707  18.534  0.00  0.00    +0.000 A 
ATOM     26  N   UNL     1       7.812   6.401  18.691  0.00  0.00    +0.000 N 
ATOM     27  C   UNL     1       7.919   5.648  19.911  0.00  0.00    +0.000 C 
ENDBRANCH  21  22
ENDBRANCH  17  21
ENDBRANCH  15  17
ENDBRANCH   8  11
BRANCH   5  28
ATOM     28  C   UNL     1       0.129   9.533  22.655  0.00  0.00    +0.000 C 
ATOM     29  F   UNL     1      -0.775   8.513  22.634  0.00  0.00    +0.000 F 
ATOM     30  F   UNL     1       1.173   9.083  23.404  0.00  0.00    +0.000 F 
ATOM     31  F   UNL     1      -0.455  10.526  23.380  0.00  0.00    +0.000 F 
ENDBRANCH   5  28
BRANCH   1  32
ATOM     32  C   UNL     1       1.149  13.292  19.294  0.00  0.00    +0.000 C 
BRANCH  32  38
ATOM     33  C   UNL     1       0.170  14.268  22.391  0.00  0.00    +0.000 C 
ATOM     34  N   UNL     1      -0.434  15.076  21.348  0.00  0.00    +0.000 NA
ATOM     35  C   UNL     1       0.162  16.373  21.079  0.00  0.00    +0.000 C 
ATOM     36  C   UNL     1       0.974  16.504  19.786  0.00  0.00    +0.000 C 
ATOM     37  C   UNL     1       0.440  15.689  18.605  0.00  0.00    +0.000 C 
ATOM     38  C   UNL     1      -0.003  14.264  18.974  0.00  0.00    +0.000 C 
ATOM     39  C   UNL     1      -0.962  14.358  20.191  0.00  0.00    +0.000 C 
BRANCH  37  40
ATOM     40  O   UNL     1      -0.667  16.383  18.011  0.00  0.00    +0.000 OA
ATOM     41  H   UNL     1      -0.348  17.228  17.651  0.00  0.00    +0.000 HD
ENDBRANCH  37  40
ENDBRANCH  32  38
ENDBRANCH   1  32
TORSDOF 8
ENDMDL
