MODEL 1
REMARK VINA RESULT:     -10.0      0.000      0.000
REMARK  Name = 
REMARK  8 active torsions:
REMARK  status: ('A' for Active; 'I' for Inactive)
REMARK    1  A    between atoms: C_1  and  N_2
REMARK    2  A    between atoms: C_6  and  C_7
REMARK    3  A    between atoms: C_7  and  C_10
REMARK    4  A    between atoms: C_10  and  C_11
REMARK    5  A    between atoms: C_10  and  O_12
REMARK    6  A    between atoms: C_10  and  C_13
REMARK    7  A    between atoms: C_17  and  N_18
REMARK    8  A    between atoms: C_25  and  C_26
REMARK                            x       y       z     vdW  Elec       q    Type
REMARK                         _______ _______ _______ _____ _____    ______ ____
ROOT
ATOM      1  C   UNL     1       4.864   5.099  17.946  0.00  0.00    +0.000 A 
ATOM      2  C   UNL     1       4.459   3.937  18.613  0.00  0.00    +0.000 A 
ATOM      3  C   UNL     1       3.325   3.939  19.434  0.00  0.00    +0.000 A 
ATOM      4  C   UNL     1       2.569   5.103  19.618  0.00  0.00    +0.000 A 
ATOM      5  C   UNL     1       2.967   6.289  19.015  0.00  0.00    +0.000 A 
ATOM      6  C   UNL     1       4.129   6.265  18.214  0.00  0.00    +0.000 A 
ENDROOT
BRANCH   5   7
ATOM      7  N   UNL     1       2.250   7.505  19.150  0.00  0.00    +0.000 N 
ATOM      8  C   UNL     1       1.566   7.802  20.391  0.00  0.00    +0.000 C 
ATOM      9  C   UNL     1       1.049   9.176  20.205  0.00  0.00    +0.000 A 
ATOM     10  C   UNL     1       1.363   9.617  18.922  0.00  0.00    +0.000 A 
ATOM     11  C   UNL     1       0.998  10.884  18.494  0.00  0.00    +0.000 A 
ATOM     12  C   UNL     1       0.306  11.702  19.398  0.00  0.00    +0.000 A 
ATOM     13  C   UNL     1       0.000  11.249  20.699  0.00  0.00    +0.000 A 
ATOM     14  C   UNL     1       0.374   9.973  21.127  0.00  0.00    +0.000 A 
ATOM     15  C   UNL     1       2.134   8.557  18.232  0.00  0.00    +0.000 C 
ATOM     16  O   UNL     1       2.565   8.683  17.102  0.00  0.00    +0.000 OA
BRANCH  14  17
ATOM     17  C   UNL     1       0.080   9.491  22.529  0.00  0.00    +0.000 C 
ATOM     18  F   UNL     1      -0.587  10.404  23.295  0.00  0.00    +0.000 F 
ATOM     19  F   UNL     1      -0.700   8.376  22.539  0.00  0.00    +0.000 F 
ATOM     20  F   UNL     1       1.203   9.180  23.227  0.00  0.00    +0.000 F 
ENDBRANCH  14  17
ENDBRANCH   5   7
BRANCH   1  21
ATOM     21  C   UNL     1       6.057   5.173  16.982  0.00  0.00    +0.000 C 
ATOM     22  C   UNL     1       7.401   4.803  17.637  0.00  0.00    +0.000 C 
BRANCH  21  23
ATOM     23  C   UNL     1       5.861   4.343  15.645  0.00  0.00    +0.000 C 
ATOM     24  F   UNL     1       4.555   4.478  15.247  0.00  0.00    +0.000 F 
ATOM     25  F   UNL     1       5.961   3.005  15.934  0.00  0.00    +0.000 F 
BRANCH  23  31
ATOM     26  C   UNL     1       5.756   3.393  12.616  0.00  0.00    +0.000 C 
ATOM     27  N   UNL     1       6.695   4.298  13.224  0.00  0.00    +0.000 N 
ATOM     28  C   UNL     1       7.695   4.938  12.554  0.00  0.00    +0.000 A 
ATOM     29  N   UNL     1       8.346   5.722  13.377  0.00  0.00    +0.000 NA
ATOM     30  N   UNL     1       7.763   5.600  14.610  0.00  0.00    +0.000 NA
ATOM     31  C   UNL     1       6.772   4.728  14.527  0.00  0.00    +0.000 A 
ENDBRANCH  23  31
ENDBRANCH  21  23
BRANCH  21  32
ATOM     32  O   UNL     1       6.170   6.594  16.674  0.00  0.00    +0.000 OA
ATOM     33  H   UNL     1       6.033   7.092  17.499  0.00  0.00    +0.000 HD
ENDBRANCH  21  32
ENDBRANCH   1  21
TORSDOF 6
ENDMDL
MODEL 2
REMARK VINA RESULT:      -9.2      1.962      2.800
REMARK  Name = 
REMARK  8 active torsions:
REMARK  status: ('A' for Active; 'I' for Inactive)
REMARK    1  A    between atoms: C_1  and  N_2
REMARK    2  A    between atoms: C_6  and  C_7
REMARK    3  A    between atoms: C_7  and  C_10
REMARK    4  A    between atoms: C_10  and  C_11
REMARK    5  A    between atoms: C_10  and  O_12
REMARK    6  A    between atoms: C_10  and  C_13
REMARK    7  A    between atoms: C_17  and  N_18
REMARK    8  A    between atoms: C_25  and  C_26
REMARK                            x       y       z     vdW  Elec       q    Type
REMARK                         _______ _______ _______ _____ _____    ______ ____
ROOT
ATOM      1  C   UNL     1       4.472   5.384  17.709  0.00  0.00    +0.000 A 
ATOM      2  C   UNL     1       4.422   4.344  18.645  0.00  0.00    +0.000 A 
ATOM      3  C   UNL     1       3.591   4.430  19.768  0.00  0.00    +0.000 A 
ATOM      4  C   UNL     1       2.793   5.557  19.992  0.00  0.00    +0.000 A 
ATOM      5  C   UNL     1       2.852   6.633  19.115  0.00  0.00    +0.000 A 
ATOM      6  C   UNL     1       3.718   6.531  18.005  0.00  0.00    +0.000 A 
ENDROOT
BRANCH   5   7
ATOM      7  N   UNL     1       2.070   7.805  19.273  0.00  0.00    +0.000 N 
ATOM      8  C   UNL     1       1.384   8.047  20.525  0.00  0.00    +0.000 C 
ATOM      9  C   UNL     1       0.790   9.393  20.363  0.00  0.00    +0.000 A 
ATOM     10  C   UNL     1       1.067   9.867  19.083  0.00  0.00    +0.000 A 
ATOM     11  C   UNL     1       0.628  11.118  18.676  0.00  0.00    +0.000 A 
ATOM     12  C   UNL     1      -0.099  11.884  19.597  0.00  0.00    +0.000 A 
ATOM     13  C   UNL     1      -0.367  11.398  20.894  0.00  0.00    +0.000 A 
ATOM     14  C   UNL     1       0.081  10.138  21.301  0.00  0.00    +0.000 A 
ATOM     15  C   UNL     1       1.889   8.861  18.371  0.00  0.00    +0.000 C 
ATOM     16  O   UNL     1       2.301   9.026  17.240  0.00  0.00    +0.000 OA
BRANCH  14  17
ATOM     17  C   UNL     1      -0.173   9.622  22.699  0.00  0.00    +0.000 C 
ATOM     18  F   UNL     1      -0.893   8.462  22.733  0.00  0.00    +0.000 F 
ATOM     19  F   UNL     1       0.981   9.348  23.365  0.00  0.00    +0.000 F 
ATOM     20  F   UNL     1      -0.863  10.503  23.470  0.00  0.00    +0.000 F 
ENDBRANCH  14  17
ENDBRANCH   5   7
BRANCH   1  21
ATOM     21  C   UNL     1       5.307   5.351  16.421  0.00  0.00    +0.000 C 
ATOM     22  C   UNL     1       4.954   6.476  15.430  0.00  0.00    +0.000 C 
BRANCH  21  23
ATOM     23  C   UNL     1       6.873   5.320  16.666  0.00  0.00    +0.000 C 
ATOM     24  F   UNL     1       7.493   5.189  15.449  0.00  0.00    +0.000 F 
ATOM     25  F   UNL     1       7.200   4.152  17.308  0.00  0.00    +0.000 F 
BRANCH  23  31
ATOM     26  C   UNL     1       7.966   5.477  19.645  0.00  0.00    +0.000 C 
ATOM     27  N   UNL     1       7.888   6.540  18.678  0.00  0.00    +0.000 N 
ATOM     28  C   UNL     1       8.324   7.813  18.892  0.00  0.00    +0.000 A 
ATOM     29  N   UNL     1       8.153   8.526  17.808  0.00  0.00    +0.000 NA
ATOM     30  N   UNL     1       7.596   7.709  16.860  0.00  0.00    +0.000 NA
ATOM     31  C   UNL     1       7.420   6.508  17.385  0.00  0.00    +0.000 A 
ENDBRANCH  23  31
ENDBRANCH  21  23
BRANCH  21  32
ATOM     32  O   UNL     1       4.882   4.123  15.759  0.00  0.00    +0.000 OA
ATOM     33  H   UNL     1       3.933   4.204  15.555  0.00  0.00    +0.000 HD
ENDBRANCH  21  32
ENDBRANCH   1  21
TORSDOF 6
ENDMDL
MODEL 3
REMARK VINA RESULT:      -9.1      1.969      2.765
REMARK  Name = 
REMARK  8 active torsions:
REMARK  status: ('A' for Active; 'I' for Inactive)
REMARK    1  A    between atoms: C_1  and  N_2
REMARK    2  A    between atoms: C_6  and  C_7
REMARK    3  A    between atoms: C_7  and  C_10
REMARK    4  A    between atoms: C_10  and  C_11
REMARK    5  A    between atoms: C_10  and  O_12
REMARK    6  A    between atoms: C_10  and  C_13
REMARK    7  A    between atoms: C_17  and  N_18
REMARK    8  A    between atoms: C_25  and  C_26
REMARK                            x       y       z     vdW  Elec       q    Type
REMARK                         _______ _______ _______ _____ _____    ______ ____
ROOT
ATOM      1  C   UNL     1       4.423   5.384  17.471  0.00  0.00    +0.000 A 
ATOM      2  C   UNL     1       4.405   4.336  18.399  0.00  0.00    +0.000 A 
ATOM      3  C   UNL     1       3.629   4.419  19.561  0.00  0.00    +0.000 A 
ATOM      4  C   UNL     1       2.853   5.552  19.832  0.00  0.00    +0.000 A 
ATOM      5  C   UNL     1       2.883   6.635  18.963  0.00  0.00    +0.000 A 
ATOM      6  C   UNL     1       3.695   6.535  17.813  0.00  0.00    +0.000 A 
ENDROOT
BRANCH   5   7
ATOM      7  N   UNL     1       2.122   7.814  19.168  0.00  0.00    +0.000 N 
ATOM      8  C   UNL     1       1.446   8.022  20.431  0.00  0.00    +0.000 C 
ATOM      9  C   UNL     1       0.874   9.382  20.321  0.00  0.00    +0.000 A 
ATOM     10  C   UNL     1       1.152   9.898  19.058  0.00  0.00    +0.000 A 
ATOM     11  C   UNL     1       0.731  11.170  18.698  0.00  0.00    +0.000 A 
ATOM     12  C   UNL     1       0.022  11.913  19.651  0.00  0.00    +0.000 A 
ATOM     13  C   UNL     1      -0.247  11.386  20.931  0.00  0.00    +0.000 A 
ATOM     14  C   UNL     1       0.182  10.105  21.291  0.00  0.00    +0.000 A 
ATOM     15  C   UNL     1       1.952   8.905  18.305  0.00  0.00    +0.000 C 
ATOM     16  O   UNL     1       2.361   9.104  17.178  0.00  0.00    +0.000 OA
BRANCH  14  17
ATOM     17  C   UNL     1      -0.072   9.543  22.670  0.00  0.00    +0.000 C 
ATOM     18  F   UNL     1       1.068   9.252  23.363  0.00  0.00    +0.000 F 
ATOM     19  F   UNL     1      -0.761  10.409  23.462  0.00  0.00    +0.000 F 
ATOM     20  F   UNL     1      -0.789   8.389  22.646  0.00  0.00    +0.000 F 
ENDBRANCH  14  17
ENDBRANCH   5   7
BRANCH   1  21
ATOM     21  C   UNL     1       5.197   5.355  16.145  0.00  0.00    +0.000 C 
ATOM     22  C   UNL     1       5.053   6.648  15.321  0.00  0.00    +0.000 C 
BRANCH  21  23
ATOM     23  C   UNL     1       6.730   4.981  16.300  0.00  0.00    +0.000 C 
ATOM     24  F   UNL     1       7.419   5.575  15.272  0.00  0.00    +0.000 F 
ATOM     25  F   UNL     1       6.889   3.642  16.047  0.00  0.00    +0.000 F 
BRANCH  23  31
ATOM     26  C   UNL     1       7.427   7.895  17.355  0.00  0.00    +0.000 C 
ATOM     27  N   UNL     1       7.629   6.641  18.032  0.00  0.00    +0.000 N 
ATOM     28  C   UNL     1       8.132   6.516  19.292  0.00  0.00    +0.000 A 
ATOM     29  N   UNL     1       8.151   5.253  19.636  0.00  0.00    +0.000 NA
ATOM     30  N   UNL     1       7.647   4.532  18.586  0.00  0.00    +0.000 NA
ATOM     31  C   UNL     1       7.342   5.366  17.606  0.00  0.00    +0.000 A 
ENDBRANCH  23  31
ENDBRANCH  21  23
BRANCH  21  32
ATOM     32  O   UNL     1       4.512   4.333  15.362  0.00  0.00    +0.000 OA
ATOM     33  H   UNL     1       4.780   3.462  15.705  0.00  0.00    +0.000 HD
ENDBRANCH  21  32
ENDBRANCH   1  21
TORSDOF 6
ENDMDL
MODEL 4
REMARK VINA RESULT:      -8.7      2.103      2.619
REMARK  Name = 
REMARK  8 active torsions:
REMARK  status: ('A' for Active; 'I' for Inactive)
REMARK    1  A    between atoms: C_1  and  N_2
REMARK    2  A    between atoms: C_6  and  C_7
REMARK    3  A    between atoms: C_7  and  C_10
REMARK    4  A    between atoms: C_10  and  C_11
REMARK    5  A    between atoms: C_10  and  O_12
REMARK    6  A    between atoms: C_10  and  C_13
REMARK    7  A    between atoms: C_17  and  N_18
REMARK    8  A    between atoms: C_25  and  C_26
REMARK                            x       y       z     vdW  Elec       q    Type
REMARK                         _______ _______ _______ _____ _____    ______ ____
ROOT
ATOM      1  C   UNL     1       4.565   5.381  16.993  0.00  0.00    +0.000 A 
ATOM      2  C   UNL     1       3.914   4.165  16.751  0.00  0.00    +0.000 A 
ATOM      3  C   UNL     1       2.678   3.882  17.345  0.00  0.00    +0.000 A 
ATOM      4  C   UNL     1       2.061   4.801  18.202  0.00  0.00    +0.000 A 
ATOM      5  C   UNL     1       2.698   5.997  18.509  0.00  0.00    +0.000 A 
ATOM      6  C   UNL     1       3.956   6.245  17.917  0.00  0.00    +0.000 A 
ENDROOT
BRANCH   5   7
ATOM      7  N   UNL     1       2.134   6.978  19.363  0.00  0.00    +0.000 N 
ATOM      8  C   UNL     1       1.901   8.317  18.864  0.00  0.00    +0.000 C 
ATOM      9  C   UNL     1       1.203   9.005  19.973  0.00  0.00    +0.000 A 
ATOM     10  C   UNL     1       1.096   8.138  21.058  0.00  0.00    +0.000 A 
ATOM     11  C   UNL     1       0.471   8.537  22.230  0.00  0.00    +0.000 A 
ATOM     12  C   UNL     1      -0.048   9.838  22.280  0.00  0.00    +0.000 A 
ATOM     13  C   UNL     1       0.058  10.706  21.173  0.00  0.00    +0.000 A 
ATOM     14  C   UNL     1       0.685  10.298  19.992  0.00  0.00    +0.000 A 
ATOM     15  C   UNL     1       1.687   6.833  20.683  0.00  0.00    +0.000 C 
ATOM     16  O   UNL     1       1.705   5.877  21.433  0.00  0.00    +0.000 OA
BRANCH  14  17
ATOM     17  C   UNL     1       0.776  11.208  18.789  0.00  0.00    +0.000 C 
ATOM     18  F   UNL     1       0.413  12.499  19.049  0.00  0.00    +0.000 F 
ATOM     19  F   UNL     1       2.040  11.284  18.292  0.00  0.00    +0.000 F 
ATOM     20  F   UNL     1      -0.018  10.806  17.762  0.00  0.00    +0.000 F 
ENDBRANCH  14  17
ENDBRANCH   5   7
BRANCH   1  21
ATOM     21  C   UNL     1       5.890   5.799  16.341  0.00  0.00    +0.000 C 
ATOM     22  C   UNL     1       6.801   6.621  17.271  0.00  0.00    +0.000 C 
BRANCH  21  23
ATOM     23  C   UNL     1       6.708   4.596  15.709  0.00  0.00    +0.000 C 
ATOM     24  F   UNL     1       5.911   3.479  15.734  0.00  0.00    +0.000 F 
ATOM     25  F   UNL     1       7.735   4.264  16.556  0.00  0.00    +0.000 F 
BRANCH  23  31
ATOM     26  C   UNL     1       5.572   3.399  12.995  0.00  0.00    +0.000 C 
ATOM     27  N   UNL     1       6.683   4.298  13.165  0.00  0.00    +0.000 N 
ATOM     28  C   UNL     1       7.417   4.821  12.143  0.00  0.00    +0.000 A 
ATOM     29  N   UNL     1       8.324   5.634  12.621  0.00  0.00    +0.000 NA
ATOM     30  N   UNL     1       8.185   5.651  13.984  0.00  0.00    +0.000 NA
ATOM     31  C   UNL     1       7.202   4.833  14.320  0.00  0.00    +0.000 A 
ENDBRANCH  23  31
ENDBRANCH  21  23
BRANCH  21  32
ATOM     32  O   UNL     1       5.486   6.731  15.294  0.00  0.00    +0.000 OA
ATOM     33  H   UNL     1       5.597   7.635  15.637  0.00  0.00    +0.000 HD
ENDBRANCH  21  32
ENDBRANCH   1  21
TORSDOF 6
ENDMDL
MODEL 5
REMARK VINA RESULT:      -8.6      2.275      3.024
REMARK  Name = 
REMARK  8 active torsions:
REMARK  status: ('A' for Active; 'I' for Inactive)
REMARK    1  A    between atoms: C_1  and  N_2
REMARK    2  A    between atoms: C_6  and  C_7
REMARK    3  A    between atoms: C_7  and  C_10
REMARK    4  A    between atoms: C_10  and  C_11
REMARK    5  A    between atoms: C_10  and  O_12
REMARK    6  A    between atoms: C_10  and  C_13
REMARK    7  A    between atoms: C_17  and  N_18
REMARK    8  A    between atoms: C_25  and  C_26
REMARK                            x       y       z     vdW  Elec       q    Type
REMARK                         _______ _______ _______ _____ _____    ______ ____
ROOT
ATOM      1  C   UNL     1       3.362   4.344  18.887  0.00  0.00    +0.000 A 
ATOM      2  C   UNL     1       3.036   3.489  19.947  0.00  0.00    +0.000 A 
ATOM      3  C   UNL     1       2.237   3.933  21.007  0.00  0.00    +0.000 A 
ATOM      4  C   UNL     1       1.747   5.243  21.043  0.00  0.00    +0.000 A 
ATOM      5  C   UNL     1       2.091   6.138  20.038  0.00  0.00    +0.000 A 
ATOM      6  C   UNL     1       2.919   5.672  18.994  0.00  0.00    +0.000 A 
ENDROOT
BRANCH   5   7
ATOM      7  N   UNL     1       1.629   7.479  20.004  0.00  0.00    +0.000 N 
ATOM      8  C   UNL     1       0.895   8.015  21.131  0.00  0.00    +0.000 C 
ATOM      9  C   UNL     1       0.695   9.442  20.792  0.00  0.00    +0.000 A 
ATOM     10  C   UNL     1       1.225   9.694  19.530  0.00  0.00    +0.000 A 
ATOM     11  C   UNL     1       1.176  10.965  18.977  0.00  0.00    +0.000 A 
ATOM     12  C   UNL     1       0.576  11.981  19.734  0.00  0.00    +0.000 A 
ATOM     13  C   UNL     1       0.050  11.717  21.016  0.00  0.00    +0.000 A 
ATOM     14  C   UNL     1       0.105  10.435  21.571  0.00  0.00    +0.000 A 
ATOM     15  C   UNL     1       1.829   8.446  19.010  0.00  0.00    +0.000 C 
ATOM     16  O   UNL     1       2.392   8.383  17.935  0.00  0.00    +0.000 OA
BRANCH  14  17
ATOM     17  C   UNL     1      -0.427  10.149  22.956  0.00  0.00    +0.000 C 
ATOM     18  F   UNL     1      -1.366   9.158  22.989  0.00  0.00    +0.000 F 
ATOM     19  F   UNL     1       0.551   9.744  23.811  0.00  0.00    +0.000 F 
ATOM     20  F   UNL     1      -1.016  11.230  23.530  0.00  0.00    +0.000 F 
ENDBRANCH  14  17
ENDBRANCH   5   7
BRANCH   1  21
ATOM     21  C   UNL     1       4.181   3.927  17.657  0.00  0.00    +0.000 C 
ATOM     22  C   UNL     1       3.315   3.494  16.460  0.00  0.00    +0.000 C 
BRANCH  21  23
ATOM     23  C   UNL     1       5.245   5.007  17.192  0.00  0.00    +0.000 C 
ATOM     24  F   UNL     1       4.572   6.165  16.892  0.00  0.00    +0.000 F 
ATOM     25  F   UNL     1       5.764   4.627  15.980  0.00  0.00    +0.000 F 
BRANCH  23  31
ATOM     26  C   UNL     1       7.480   7.261  17.060  0.00  0.00    +0.000 C 
ATOM     27  N   UNL     1       7.276   6.281  18.094  0.00  0.00    +0.000 N 
ATOM     28  C   UNL     1       8.017   6.197  19.234  0.00  0.00    +0.000 A 
ATOM     29  N   UNL     1       7.557   5.231  19.989  0.00  0.00    +0.000 NA
ATOM     30  N   UNL     1       6.491   4.671  19.338  0.00  0.00    +0.000 NA
ATOM     31  C   UNL     1       6.324   5.293  18.182  0.00  0.00    +0.000 A 
ENDBRANCH  23  31
ENDBRANCH  21  23
BRANCH  21  32
ATOM     32  O   UNL     1       4.862   2.710  18.086  0.00  0.00    +0.000 OA
ATOM     33  H   UNL     1       5.810   2.913  18.176  0.00  0.00    +0.000 HD
ENDBRANCH  21  32
ENDBRANCH   1  21
TORSDOF 6
ENDMDL
MODEL 6
REMARK VINA RESULT:      -8.5      2.950      4.278
REMARK  Name = 
REMARK  8 active torsions:
REMARK  status: ('A' for Active; 'I' for Inactive)
REMARK    1  A    between atoms: C_1  and  N_2
REMARK    2  A    between atoms: C_6  and  C_7
REMARK    3  A    between atoms: C_7  and  C_10
REMARK    4  A    between atoms: C_10  and  C_11
REMARK    5  A    between atoms: C_10  and  O_12
REMARK    6  A    between atoms: C_10  and  C_13
REMARK    7  A    between atoms: C_17  and  N_18
REMARK    8  A    between atoms: C_25  and  C_26
REMARK                            x       y       z     vdW  Elec       q    Type
REMARK                         _______ _______ _______ _____ _____    ______ ____
ROOT
ATOM      1  C   UNL     1       2.747   6.188  18.831  0.00  0.00    +0.000 A 
ATOM      2  C   UNL     1       3.367   6.698  17.685  0.00  0.00    +0.000 A 
ATOM      3  C   UNL     1       3.230   8.047  17.334  0.00  0.00    +0.000 A 
ATOM      4  C   UNL     1       2.464   8.921  18.113  0.00  0.00    +0.000 A 
ATOM      5  C   UNL     1       1.789   8.443  19.230  0.00  0.00    +0.000 A 
ATOM      6  C   UNL     1       1.924   7.074  19.545  0.00  0.00    +0.000 A 
ENDROOT
BRANCH   5   7
ATOM      7  N   UNL     1       1.000   9.269  20.070  0.00  0.00    +0.000 N 
ATOM      8  C   UNL     1       0.073  10.214  19.482  0.00  0.00    +0.000 C 
ATOM      9  C   UNL     1      -0.645  10.791  20.641  0.00  0.00    +0.000 A 
ATOM     10  C   UNL     1      -0.124  10.258  21.818  0.00  0.00    +0.000 A 
ATOM     11  C   UNL     1      -0.630  10.630  23.054  0.00  0.00    +0.000 A 
ATOM     12  C   UNL     1      -1.682  11.556  23.074  0.00  0.00    +0.000 A 
ATOM     13  C   UNL     1      -2.209  12.083  21.876  0.00  0.00    +0.000 A 
ATOM     14  C   UNL     1      -1.698  11.703  20.632  0.00  0.00    +0.000 A 
ATOM     15  C   UNL     1       0.932   9.279  21.469  0.00  0.00    +0.000 C 
ATOM     16  O   UNL     1       1.540   8.638  22.304  0.00  0.00    +0.000 OA
BRANCH  14  17
ATOM     17  C   UNL     1      -2.276  12.238  19.342  0.00  0.00    +0.000 C 
ATOM     18  F   UNL     1      -1.387  12.963  18.602  0.00  0.00    +0.000 F 
ATOM     19  F   UNL     1      -2.703  11.244  18.518  0.00  0.00    +0.000 F 
ATOM     20  F   UNL     1      -3.341  13.057  19.541  0.00  0.00    +0.000 F 
ENDBRANCH  14  17
ENDBRANCH   5   7
BRANCH   1  21
ATOM     21  C   UNL     1       2.891   4.741  19.323  0.00  0.00    +0.000 C 
ATOM     22  C   UNL     1       1.556   3.975  19.380  0.00  0.00    +0.000 C 
BRANCH  21  23
ATOM     23  C   UNL     1       3.967   3.891  18.527  0.00  0.00    +0.000 C 
ATOM     24  F   UNL     1       3.570   3.822  17.215  0.00  0.00    +0.000 F 
ATOM     25  F   UNL     1       3.898   2.585  18.941  0.00  0.00    +0.000 F 
BRANCH  23  31
ATOM     26  C   UNL     1       6.092   4.165  16.182  0.00  0.00    +0.000 C 
ATOM     27  N   UNL     1       6.257   4.520  17.566  0.00  0.00    +0.000 N 
ATOM     28  C   UNL     1       7.380   5.087  18.089  0.00  0.00    +0.000 A 
ATOM     29  N   UNL     1       7.201   5.328  19.363  0.00  0.00    +0.000 NA
ATOM     30  N   UNL     1       5.935   4.918  19.687  0.00  0.00    +0.000 NA
ATOM     31  C   UNL     1       5.363   4.414  18.605  0.00  0.00    +0.000 A 
ENDBRANCH  23  31
ENDBRANCH  21  23
BRANCH  21  32
ATOM     32  O   UNL     1       3.299   4.884  20.716  0.00  0.00    +0.000 OA
ATOM     33  H   UNL     1       3.731   5.752  20.815  0.00  0.00    +0.000 HD
ENDBRANCH  21  32
ENDBRANCH   1  21
TORSDOF 6
ENDMDL
MODEL 7
REMARK VINA RESULT:      -8.5      4.173      8.978
REMARK  Name = 
REMARK  8 active torsions:
REMARK  status: ('A' for Active; 'I' for Inactive)
REMARK    1  A    between atoms: C_1  and  N_2
REMARK    2  A    between atoms: C_6  and  C_7
REMARK    3  A    between atoms: C_7  and  C_10
REMARK    4  A    between atoms: C_10  and  C_11
REMARK    5  A    between atoms: C_10  and  O_12
REMARK    6  A    between atoms: C_10  and  C_13
REMARK    7  A    between atoms: C_17  and  N_18
REMARK    8  A    between atoms: C_25  and  C_26
REMARK                            x       y       z     vdW  Elec       q    Type
REMARK                         _______ _______ _______ _____ _____    ______ ____
ROOT
ATOM      1  C   UNL     1      -0.565  10.742  20.294  0.00  0.00    +0.000 A 
ATOM      2  C   UNL     1      -0.517  10.975  21.673  0.00  0.00    +0.000 A 
ATOM      3  C   UNL     1       0.262  10.168  22.511  0.00  0.00    +0.000 A 
ATOM      4  C   UNL     1       1.009   9.102  21.996  0.00  0.00    +0.000 A 
ATOM      5  C   UNL     1       0.948   8.805  20.641  0.00  0.00    +0.000 A 
ATOM      6  C   UNL     1       0.134   9.619  19.823  0.00  0.00    +0.000 A 
ENDROOT
BRANCH   5   7
ATOM      7  N   UNL     1       1.680   7.746  20.046  0.00  0.00    +0.000 N 
ATOM      8  C   UNL     1       1.660   6.431  20.652  0.00  0.00    +0.000 C 
ATOM      9  C   UNL     1       2.416   5.580  19.705  0.00  0.00    +0.000 A 
ATOM     10  C   UNL     1       2.888   6.366  18.656  0.00  0.00    +0.000 A 
ATOM     11  C   UNL     1       3.624   5.807  17.622  0.00  0.00    +0.000 A 
ATOM     12  C   UNL     1       3.871   4.429  17.671  0.00  0.00    +0.000 A 
ATOM     13  C   UNL     1       3.381   3.640  18.733  0.00  0.00    +0.000 A 
ATOM     14  C   UNL     1       2.636   4.207  19.771  0.00  0.00    +0.000 A 
ATOM     15  C   UNL     1       2.424   7.758  18.859  0.00  0.00    +0.000 C 
ATOM     16  O   UNL     1       2.667   8.656  18.077  0.00  0.00    +0.000 OA
BRANCH  14  17
ATOM     17  C   UNL     1       2.079   3.365  20.896  0.00  0.00    +0.000 C 
ATOM     18  F   UNL     1       2.444   2.052  20.831  0.00  0.00    +0.000 F 
ATOM     19  F   UNL     1       2.496   3.795  22.117  0.00  0.00    +0.000 F 
ATOM     20  F   UNL     1       0.721   3.365  20.932  0.00  0.00    +0.000 F 
ENDBRANCH  14  17
ENDBRANCH   5   7
BRANCH   1  21
ATOM     21  C   UNL     1      -1.343  11.610  19.295  0.00  0.00    +0.000 C 
ATOM     22  C   UNL     1      -0.459  12.615  18.534  0.00  0.00    +0.000 C 
BRANCH  21  23
ATOM     23  C   UNL     1      -2.225  10.783  18.269  0.00  0.00    +0.000 C 
ATOM     24  F   UNL     1      -2.410   9.524  18.784  0.00  0.00    +0.000 F 
ATOM     25  F   UNL     1      -1.487  10.549  17.136  0.00  0.00    +0.000 F 
BRANCH  23  31
ATOM     26  C   UNL     1      -3.621  11.028  15.426  0.00  0.00    +0.000 C 
ATOM     27  N   UNL     1      -4.123  11.481  16.696  0.00  0.00    +0.000 N 
ATOM     28  C   UNL     1      -5.338  12.069  16.881  0.00  0.00    +0.000 A 
ATOM     29  N   UNL     1      -5.516  12.324  18.152  0.00  0.00    +0.000 NA
ATOM     30  N   UNL     1      -4.401  11.892  18.820  0.00  0.00    +0.000 NA
ATOM     31  C   UNL     1      -3.547  11.393  17.941  0.00  0.00    +0.000 A 
ENDBRANCH  23  31
ENDBRANCH  21  23
BRANCH  21  32
ATOM     32  O   UNL     1      -2.202  12.432  20.140  0.00  0.00    +0.000 OA
ATOM     33  H   UNL     1      -2.935  11.874  20.456  0.00  0.00    +0.000 HD
ENDBRANCH  21  32
ENDBRANCH   1  21
TORSDOF 6
ENDMDL
MODEL 8
REMARK VINA RESULT:      -8.4      3.966      8.693
REMARK  Name = 
REMARK  8 active torsions:
REMARK  status: ('A' for Active; 'I' for Inactive)
REMARK    1  A    between atoms: C_1  and  N_2
REMARK    2  A    between atoms: C_6  and  C_7
REMARK    3  A    between atoms: C_7  and  C_10
REMARK    4  A    between atoms: C_10  and  C_11
REMARK    5  A    between atoms: C_10  and  O_12
REMARK    6  A    between atoms: C_10  and  C_13
REMARK    7  A    between atoms: C_17  and  N_18
REMARK    8  A    between atoms: C_25  and  C_26
REMARK                            x       y       z     vdW  Elec       q    Type
REMARK                         _______ _______ _______ _____ _____    ______ ____
ROOT
ATOM      1  C   UNL     1       0.536  10.525  20.121  0.00  0.00    +0.000 A 
ATOM      2  C   UNL     1       0.325  10.498  21.505  0.00  0.00    +0.000 A 
ATOM      3  C   UNL     1       0.716   9.392  22.269  0.00  0.00    +0.000 A 
ATOM      4  C   UNL     1       1.323   8.281  21.673  0.00  0.00    +0.000 A 
ATOM      5  C   UNL     1       1.503   8.246  20.296  0.00  0.00    +0.000 A 
ATOM      6  C   UNL     1       1.075   9.363  19.547  0.00  0.00    +0.000 A 
ENDROOT
BRANCH   5   7
ATOM      7  N   UNL     1       2.114   7.158  19.622  0.00  0.00    +0.000 N 
ATOM      8  C   UNL     1       1.830   5.802  20.043  0.00  0.00    +0.000 C 
ATOM      9  C   UNL     1       2.531   4.956  19.050  0.00  0.00    +0.000 A 
ATOM     10  C   UNL     1       3.220   5.771  18.156  0.00  0.00    +0.000 A 
ATOM     11  C   UNL     1       3.956   5.225  17.115  0.00  0.00    +0.000 A 
ATOM     12  C   UNL     1       3.978   3.829  16.997  0.00  0.00    +0.000 A 
ATOM     13  C   UNL     1       3.270   3.012  17.903  0.00  0.00    +0.000 A 
ATOM     14  C   UNL     1       2.526   3.567  18.948  0.00  0.00    +0.000 A 
ATOM     15  C   UNL     1       2.963   7.187  18.508  0.00  0.00    +0.000 C 
ATOM     16  O   UNL     1       3.419   8.118  17.874  0.00  0.00    +0.000 OA
BRANCH  14  17
ATOM     17  C   UNL     1       1.737   2.703  19.905  0.00  0.00    +0.000 C 
ATOM     18  F   UNL     1       0.420   3.052  20.000  0.00  0.00    +0.000 F 
ATOM     19  F   UNL     1       1.735   1.393  19.536  0.00  0.00    +0.000 F 
ATOM     20  F   UNL     1       2.219   2.744  21.174  0.00  0.00    +0.000 F 
ENDBRANCH  14  17
ENDBRANCH   5   7
BRANCH   1  21
ATOM     21  C   UNL     1       0.194  11.717  19.215  0.00  0.00    +0.000 C 
ATOM     22  C   UNL     1      -1.037  12.513  19.685  0.00  0.00    +0.000 C 
BRANCH  21  23
ATOM     23  C   UNL     1       1.408  12.703  18.958  0.00  0.00    +0.000 C 
ATOM     24  F   UNL     1       1.129  13.440  17.834  0.00  0.00    +0.000 F 
ATOM     25  F   UNL     1       2.506  11.970  18.584  0.00  0.00    +0.000 F 
BRANCH  23  31
ATOM     26  C   UNL     1       0.556  15.742  19.325  0.00  0.00    +0.000 C 
ATOM     27  N   UNL     1       1.338  14.931  20.221  0.00  0.00    +0.000 N 
ATOM     28  C   UNL     1       1.813  15.352  21.427  0.00  0.00    +0.000 A 
ATOM     29  N   UNL     1       2.446  14.371  22.018  0.00  0.00    +0.000 NA
ATOM     30  N   UNL     1       2.384  13.281  21.191  0.00  0.00    +0.000 NA
ATOM     31  C   UNL     1       1.726  13.618  20.094  0.00  0.00    +0.000 A 
ENDBRANCH  23  31
ENDBRANCH  21  23
BRANCH  21  32
ATOM     32  O   UNL     1      -0.218  11.096  17.961  0.00  0.00    +0.000 OA
ATOM     33  H   UNL     1      -0.010  11.715  17.238  0.00  0.00    +0.000 HD
ENDBRANCH  21  32
ENDBRANCH   1  21
TORSDOF 6
ENDMDL
MODEL 9
REMARK VINA RESULT:      -8.4      4.149      9.107
REMARK  Name = 
REMARK  8 active torsions:
REMARK  status: ('A' for Active; 'I' for Inactive)
REMARK    1  A    between atoms: C_1  and  N_2
REMARK    2  A    between atoms: C_6  and  C_7
REMARK    3  A    between atoms: C_7  and  C_10
REMARK    4  A    between atoms: C_10  and  C_11
REMARK    5  A    between atoms: C_10  and  O_12
REMARK    6  A    between atoms: C_10  and  C_13
REMARK    7  A    between atoms: C_17  and  N_18
REMARK    8  A    between atoms: C_25  and  C_26
REMARK                            x       y       z     vdW  Elec       q    Type
REMARK                         _______ _______ _______ _____ _____    ______ ____
ROOT
ATOM      1  C   UNL     1       0.153  10.894  20.448  0.00  0.00    +0.000 A 
ATOM      2  C   UNL     1      -0.132  10.856  21.818  0.00  0.00    +0.000 A 
ATOM      3  C   UNL     1       0.234   9.752  22.597  0.00  0.00    +0.000 A 
ATOM      4  C   UNL     1       0.889   8.653  22.029  0.00  0.00    +0.000 A 
ATOM      5  C   UNL     1       1.144   8.629  20.664  0.00  0.00    +0.000 A 
ATOM      6  C   UNL     1       0.740   9.743  19.898  0.00  0.00    +0.000 A 
ENDROOT
BRANCH   5   7
ATOM      7  N   UNL     1       1.808   7.554  20.019  0.00  0.00    +0.000 N 
ATOM      8  C   UNL     1       1.710   6.217  20.567  0.00  0.00    +0.000 C 
ATOM      9  C   UNL     1       2.408   5.364  19.579  0.00  0.00    +0.000 A 
ATOM     10  C   UNL     1       2.923   6.165  18.563  0.00  0.00    +0.000 A 
ATOM     11  C   UNL     1       3.620   5.608  17.501  0.00  0.00    +0.000 A 
ATOM     12  C   UNL     1       3.782   4.216  17.488  0.00  0.00    +0.000 A 
ATOM     13  C   UNL     1       3.249   3.413  18.518  0.00  0.00    +0.000 A 
ATOM     14  C   UNL     1       2.545   3.978  19.585  0.00  0.00    +0.000 A 
ATOM     15  C   UNL     1       2.546   7.572  18.829  0.00  0.00    +0.000 C 
ATOM     16  O   UNL     1       2.841   8.487  18.085  0.00  0.00    +0.000 OA
BRANCH  14  17
ATOM     17  C   UNL     1       1.941   3.124  20.676  0.00  0.00    +0.000 C 
ATOM     18  F   UNL     1       2.518   3.310  21.900  0.00  0.00    +0.000 F 
ATOM     19  F   UNL     1       0.618   3.380  20.860  0.00  0.00    +0.000 F 
ATOM     20  F   UNL     1       2.044   1.793  20.422  0.00  0.00    +0.000 F 
ENDBRANCH  14  17
ENDBRANCH   5   7
BRANCH   1  21
ATOM     21  C   UNL     1      -0.158  12.085  19.530  0.00  0.00    +0.000 C 
ATOM     22  C   UNL     1       1.033  12.513  18.653  0.00  0.00    +0.000 C 
BRANCH  21  23
ATOM     23  C   UNL     1      -1.448  11.887  18.629  0.00  0.00    +0.000 C 
ATOM     24  F   UNL     1      -1.447  10.598  18.161  0.00  0.00    +0.000 F 
ATOM     25  F   UNL     1      -1.311  12.633  17.486  0.00  0.00    +0.000 F 
BRANCH  23  31
ATOM     26  C   UNL     1      -4.392  11.437  17.525  0.00  0.00    +0.000 C 
ATOM     27  N   UNL     1      -4.003  11.964  18.806  0.00  0.00    +0.000 N 
ATOM     28  C   UNL     1      -4.874  12.325  19.790  0.00  0.00    +0.000 A 
ATOM     29  N   UNL     1      -4.208  12.724  20.844  0.00  0.00    +0.000 NA
ATOM     30  N   UNL     1      -2.873  12.620  20.553  0.00  0.00    +0.000 NA
ATOM     31  C   UNL     1      -2.743  12.174  19.315  0.00  0.00    +0.000 A 
ENDBRANCH  23  31
ENDBRANCH  21  23
BRANCH  21  32
ATOM     32  O   UNL     1      -0.361  13.195  20.454  0.00  0.00    +0.000 OA
ATOM     33  H   UNL     1      -1.313  13.250  20.653  0.00  0.00    +0.000 HD
ENDBRANCH  21  32
ENDBRANCH   1  21
TORSDOF 6
ENDMDL
