MODEL 1
REMARK VINA RESULT:     -10.6      0.000      0.000
REMARK  Name = 
REMARK  9 active torsions:
REMARK  status: ('A' for Active; 'I' for Inactive)
REMARK    1  A    between atoms: C_1  and  C_2
REMARK    2  A    between atoms: C_2  and  C_3
REMARK    3  A    between atoms: C_2  and  N_35
REMARK    4  A    between atoms: C_7  and  C_8
REMARK    5  A    between atoms: N_14  and  C_15
REMARK    6  A    between atoms: C_19  and  C_20
REMARK    7  A    between atoms: C_20  and  C_21
REMARK    8  A    between atoms: C_21  and  C_23
REMARK    9  A    between atoms: N_27  and  C_28
REMARK                            x       y       z     vdW  Elec       q    Type
REMARK                         _______ _______ _______ _____ _____    ______ ____
ROOT
ATOM      1  C   UNL     1      -0.313  11.384  19.548  0.00  0.00    +0.000 A 
ATOM      2  C   UNL     1       0.556  10.600  18.785  0.00  0.00    +0.000 A 
ATOM      3  C   UNL     1       1.039   9.459  19.381  0.00  0.00    +0.000 A 
ATOM      4  C   UNL     1       0.743   9.077  20.683  0.00  0.00    +0.000 A 
ATOM      5  C   UNL     1      -0.049   9.864  21.494  0.00  0.00    +0.000 A 
ATOM      6  C   UNL     1      -0.598  11.009  20.892  0.00  0.00    +0.000 A 
ATOM      7  C   UNL     1       1.401   7.778  20.974  0.00  0.00    +0.000 C 
ATOM      8  N   UNL     1       2.058   7.453  19.714  0.00  0.00    +0.000 N 
ATOM      9  C   UNL     1       1.883   8.454  18.761  0.00  0.00    +0.000 C 
ATOM     10  O   UNL     1       2.289   8.564  17.621  0.00  0.00    +0.000 OA
ENDROOT
BRANCH   8  11
ATOM     11  C   UNL     1       2.832   6.293  19.554  0.00  0.00    +0.000 A 
ATOM     12  C   UNL     1       2.313   5.047  19.785  0.00  0.00    +0.000 A 
ATOM     13  C   UNL     1       3.120   3.922  19.649  0.00  0.00    +0.000 A 
ATOM     14  C   UNL     1       4.465   4.052  19.280  0.00  0.00    +0.000 A 
ATOM     15  C   UNL     1       5.030   5.303  18.991  0.00  0.00    +0.000 A 
ATOM     16  C   UNL     1       4.152   6.390  19.115  0.00  0.00    +0.000 A 
BRANCH  15  17
ATOM     17  C   UNL     1       6.550   5.509  18.461  0.00  0.00    +0.000 C 
ATOM     18  C   UNL     1       6.950   6.879  17.847  0.00  0.00    +0.000 C 
ATOM     19  O   UNL     1       8.157   6.913  18.649  0.00  0.00    +0.000 OA
ATOM     20  C   UNL     1       7.590   5.916  19.538  0.00  0.00    +0.000 C 
BRANCH  17  21
ATOM     21  C   UNL     1       7.035   4.382  17.522  0.00  0.00    +0.000 C 
ATOM     22  F   UNL     1       8.363   4.179  17.784  0.00  0.00    +0.000 F 
BRANCH  21  23
ATOM     23  C   UNL     1       6.802   4.621  16.062  0.00  0.00    +0.000 A 
ATOM     24  N   UNL     1       7.675   5.131  15.212  0.00  0.00    +0.000 NA
ATOM     25  N   UNL     1       7.111   5.139  13.961  0.00  0.00    +0.000 NA
ATOM     26  C   UNL     1       5.895   4.660  14.071  0.00  0.00    +0.000 A 
ATOM     27  N   UNL     1       5.680   4.265  15.356  0.00  0.00    +0.000 N 
ATOM     28  C   UNL     1       4.511   3.576  15.837  0.00  0.00    +0.000 C 
ENDBRANCH  21  23
ENDBRANCH  17  21
ENDBRANCH  15  17
ENDBRANCH   8  11
BRANCH   5  29
ATOM     29  C   UNL     1      -0.300   9.554  22.943  0.00  0.00    +0.000 C 
ATOM     30  F   UNL     1       0.839   9.431  23.676  0.00  0.00    +0.000 F 
ATOM     31  F   UNL     1      -1.029  10.527  23.551  0.00  0.00    +0.000 F 
ATOM     32  F   UNL     1      -0.987   8.394  23.123  0.00  0.00    +0.000 F 
ENDBRANCH   5  29
BRANCH   1  34
ATOM     33  C   UNL     1       0.115  13.406  18.161  0.00  0.00    +0.000 C 
ATOM     34  C   UNL     1      -0.978  12.580  18.870  0.00  0.00    +0.000 C 
BRANCH  34  35
ATOM     35  N   UNL     1      -2.120  12.262  18.010  0.00  0.00    +0.000 NA
ATOM     36  C   UNL     1      -3.291  11.614  18.615  0.00  0.00    +0.000 C 
ATOM     37  C   UNL     1      -4.109  11.145  17.407  0.00  0.00    +0.000 C 
ATOM     38  C   UNL     1      -3.038  10.821  16.411  0.00  0.00    +0.000 C 
ATOM     39  C   UNL     1      -3.352  10.497  14.970  0.00  0.00    +0.000 C 
ATOM     40  C   UNL     1      -2.886   9.407  15.891  0.00  0.00    +0.000 C 
ATOM     41  C   UNL     1      -1.797  11.596  16.754  0.00  0.00    +0.000 C 
ENDBRANCH  34  35
ENDBRANCH   1  34
TORSDOF 7
ENDMDL
MODEL 2
REMARK VINA RESULT:      -9.9      1.490      2.381
REMARK  Name = 
REMARK  9 active torsions:
REMARK  status: ('A' for Active; 'I' for Inactive)
REMARK    1  A    between atoms: C_1  and  C_2
REMARK    2  A    between atoms: C_2  and  C_3
REMARK    3  A    between atoms: C_2  and  N_35
REMARK    4  A    between atoms: C_7  and  C_8
REMARK    5  A    between atoms: N_14  and  C_15
REMARK    6  A    between atoms: C_19  and  C_20
REMARK    7  A    between atoms: C_20  and  C_21
REMARK    8  A    between atoms: C_21  and  C_23
REMARK    9  A    between atoms: N_27  and  C_28
REMARK                            x       y       z     vdW  Elec       q    Type
REMARK                         _______ _______ _______ _____ _____    ______ ____
ROOT
ATOM      1  C   UNL     1      -0.015  11.426  19.553  0.00  0.00    +0.000 A 
ATOM      2  C   UNL     1       0.797  10.647  18.725  0.00  0.00    +0.000 A 
ATOM      3  C   UNL     1       1.260   9.465  19.253  0.00  0.00    +0.000 A 
ATOM      4  C   UNL     1       1.000   9.038  20.548  0.00  0.00    +0.000 A 
ATOM      5  C   UNL     1       0.268   9.815  21.421  0.00  0.00    +0.000 A 
ATOM      6  C   UNL     1      -0.262  11.003  20.890  0.00  0.00    +0.000 A 
ATOM      7  C   UNL     1       1.621   7.705  20.758  0.00  0.00    +0.000 C 
ATOM      8  N   UNL     1       2.219   7.414  19.461  0.00  0.00    +0.000 N 
ATOM      9  C   UNL     1       2.044   8.460  18.558  0.00  0.00    +0.000 C 
ATOM     10  O   UNL     1       2.411   8.606  17.410  0.00  0.00    +0.000 OA
ENDROOT
BRANCH   8  11
ATOM     11  C   UNL     1       2.944   6.236  19.222  0.00  0.00    +0.000 A 
ATOM     12  C   UNL     1       2.801   5.132  20.020  0.00  0.00    +0.000 A 
ATOM     13  C   UNL     1       3.562   3.993  19.774  0.00  0.00    +0.000 A 
ATOM     14  C   UNL     1       4.480   3.966  18.715  0.00  0.00    +0.000 A 
ATOM     15  C   UNL     1       4.630   5.057  17.845  0.00  0.00    +0.000 A 
ATOM     16  C   UNL     1       3.808   6.157  18.131  0.00  0.00    +0.000 A 
BRANCH  15  17
ATOM     17  C   UNL     1       5.598   5.049  16.543  0.00  0.00    +0.000 C 
ATOM     18  C   UNL     1       5.392   3.953  15.462  0.00  0.00    +0.000 C 
ATOM     19  O   UNL     1       5.447   4.948  14.409  0.00  0.00    +0.000 OA
ATOM     20  C   UNL     1       5.176   5.989  15.383  0.00  0.00    +0.000 C 
BRANCH  17  21
ATOM     21  C   UNL     1       7.102   5.128  16.892  0.00  0.00    +0.000 C 
ATOM     22  F   UNL     1       7.373   4.100  17.754  0.00  0.00    +0.000 F 
BRANCH  21  23
ATOM     23  C   UNL     1       7.561   6.439  17.453  0.00  0.00    +0.000 A 
ATOM     24  N   UNL     1       7.533   7.601  16.826  0.00  0.00    +0.000 NA
ATOM     25  N   UNL     1       7.983   8.570  17.689  0.00  0.00    +0.000 NA
ATOM     26  C   UNL     1       8.302   7.982  18.816  0.00  0.00    +0.000 A 
ATOM     27  N   UNL     1       7.998   6.657  18.736  0.00  0.00    +0.000 N 
ATOM     28  C   UNL     1       8.087   5.709  19.816  0.00  0.00    +0.000 C 
ENDBRANCH  21  23
ENDBRANCH  17  21
ENDBRANCH  15  17
ENDBRANCH   8  11
BRANCH   5  29
ATOM     29  C   UNL     1       0.060   9.451  22.866  0.00  0.00    +0.000 C 
ATOM     30  F   UNL     1      -0.643   8.300  23.038  0.00  0.00    +0.000 F 
ATOM     31  F   UNL     1       1.240   9.266  23.517  0.00  0.00    +0.000 F 
ATOM     32  F   UNL     1      -0.613  10.408  23.559  0.00  0.00    +0.000 F 
ENDBRANCH   5  29
BRANCH   1  34
ATOM     33  C   UNL     1       0.424  13.467  18.198  0.00  0.00    +0.000 C 
ATOM     34  C   UNL     1      -0.661  12.673  18.953  0.00  0.00    +0.000 C 
BRANCH  34  35
ATOM     35  N   UNL     1      -1.869  12.436  18.160  0.00  0.00    +0.000 NA
ATOM     36  C   UNL     1      -3.044  11.862  18.830  0.00  0.00    +0.000 C 
ATOM     37  C   UNL     1      -3.959  11.455  17.671  0.00  0.00    +0.000 C 
ATOM     38  C   UNL     1      -2.972  11.068  16.614  0.00  0.00    +0.000 C 
ATOM     39  C   UNL     1      -3.389  10.775  15.192  0.00  0.00    +0.000 C 
ATOM     40  C   UNL     1      -2.943   9.650  16.082  0.00  0.00    +0.000 C 
ATOM     41  C   UNL     1      -1.665  11.757  16.885  0.00  0.00    +0.000 C 
ENDBRANCH  34  35
ENDBRANCH   1  34
TORSDOF 7
ENDMDL
MODEL 3
REMARK VINA RESULT:      -9.6      1.987      3.535
REMARK  Name = 
REMARK  9 active torsions:
REMARK  status: ('A' for Active; 'I' for Inactive)
REMARK    1  A    between atoms: C_1  and  C_2
REMARK    2  A    between atoms: C_2  and  C_3
REMARK    3  A    between atoms: C_2  and  N_35
REMARK    4  A    between atoms: C_7  and  C_8
REMARK    5  A    between atoms: N_14  and  C_15
REMARK    6  A    between atoms: C_19  and  C_20
REMARK    7  A    between atoms: C_20  and  C_21
REMARK    8  A    between atoms: C_21  and  C_23
REMARK    9  A    between atoms: N_27  and  C_28
REMARK                            x       y       z     vdW  Elec       q    Type
REMARK                         _______ _______ _______ _____ _____    ______ ____
ROOT
ATOM      1  C   UNL     1      -0.030  11.347  19.309  0.00  0.00    +0.000 A 
ATOM      2  C   UNL     1       0.800  10.557  18.511  0.00  0.00    +0.000 A 
ATOM      3  C   UNL     1       1.278   9.398  19.078  0.00  0.00    +0.000 A 
ATOM      4  C   UNL     1       1.013   9.006  20.384  0.00  0.00    +0.000 A 
ATOM      5  C   UNL     1       0.262   9.797  21.227  0.00  0.00    +0.000 A 
ATOM      6  C   UNL     1      -0.281  10.961  20.656  0.00  0.00    +0.000 A 
ATOM      7  C   UNL     1       1.653   7.691  20.638  0.00  0.00    +0.000 C 
ATOM      8  N   UNL     1       2.265   7.369  19.355  0.00  0.00    +0.000 N 
ATOM      9  C   UNL     1       2.083   8.385  18.420  0.00  0.00    +0.000 C 
ATOM     10  O   UNL     1       2.456   8.502  17.270  0.00  0.00    +0.000 OA
ENDROOT
BRANCH   8  11
ATOM     11  C   UNL     1       3.011   6.196  19.158  0.00  0.00    +0.000 A 
ATOM     12  C   UNL     1       2.892   5.121  19.998  0.00  0.00    +0.000 A 
ATOM     13  C   UNL     1       3.672   3.988  19.791  0.00  0.00    +0.000 A 
ATOM     14  C   UNL     1       4.585   3.936  18.729  0.00  0.00    +0.000 A 
ATOM     15  C   UNL     1       4.710   4.995  17.817  0.00  0.00    +0.000 A 
ATOM     16  C   UNL     1       3.870   6.090  18.065  0.00  0.00    +0.000 A 
BRANCH  15  17
ATOM     17  C   UNL     1       5.671   4.954  16.510  0.00  0.00    +0.000 C 
ATOM     18  C   UNL     1       5.484   3.809  15.477  0.00  0.00    +0.000 C 
ATOM     19  O   UNL     1       5.510   4.760  14.383  0.00  0.00    +0.000 OA
ATOM     20  C   UNL     1       5.221   5.835  15.315  0.00  0.00    +0.000 C 
BRANCH  17  21
ATOM     21  C   UNL     1       7.175   5.081  16.846  0.00  0.00    +0.000 C 
ATOM     22  F   UNL     1       7.493   4.042  17.678  0.00  0.00    +0.000 F 
BRANCH  21  23
ATOM     23  C   UNL     1       7.590   6.393  17.435  0.00  0.00    +0.000 A 
ATOM     24  N   UNL     1       7.541   7.565  16.828  0.00  0.00    +0.000 NA
ATOM     25  N   UNL     1       7.952   8.531  17.713  0.00  0.00    +0.000 NA
ATOM     26  C   UNL     1       8.270   7.932  18.835  0.00  0.00    +0.000 A 
ATOM     27  N   UNL     1       8.003   6.601  18.728  0.00  0.00    +0.000 N 
ATOM     28  C   UNL     1       8.102   5.637  19.794  0.00  0.00    +0.000 C 
ENDBRANCH  21  23
ENDBRANCH  17  21
ENDBRANCH  15  17
ENDBRANCH   8  11
BRANCH   5  29
ATOM     29  C   UNL     1       0.048   9.474  22.680  0.00  0.00    +0.000 C 
ATOM     30  F   UNL     1      -0.637  10.435  23.354  0.00  0.00    +0.000 F 
ATOM     31  F   UNL     1      -0.663   8.327  22.845  0.00  0.00    +0.000 F 
ATOM     32  F   UNL     1       1.214   9.301  23.359  0.00  0.00    +0.000 F 
ENDBRANCH   5  29
BRANCH   1  34
ATOM     33  C   UNL     1      -2.176  12.236  18.415  0.00  0.00    +0.000 C 
ATOM     34  C   UNL     1      -0.690  12.566  18.667  0.00  0.00    +0.000 C 
BRANCH  34  35
ATOM     35  N   UNL     1      -0.484  13.836  19.366  0.00  0.00    +0.000 NA
ATOM     36  C   UNL     1      -1.592  14.385  20.159  0.00  0.00    +0.000 C 
ATOM     37  C   UNL     1      -1.150  15.822  20.451  0.00  0.00    +0.000 C 
ATOM     38  C   UNL     1      -0.375  16.169  19.218  0.00  0.00    +0.000 C 
ATOM     39  C   UNL     1       0.441  17.435  19.109  0.00  0.00    +0.000 C 
ATOM     40  C   UNL     1      -0.833  17.303  18.325  0.00  0.00    +0.000 C 
ATOM     41  C   UNL     1       0.114  14.903  18.572  0.00  0.00    +0.000 C 
ENDBRANCH  34  35
ENDBRANCH   1  34
TORSDOF 7
ENDMDL
MODEL 4
REMARK VINA RESULT:      -9.5      2.130      3.822
REMARK  Name = 
REMARK  9 active torsions:
REMARK  status: ('A' for Active; 'I' for Inactive)
REMARK    1  A    between atoms: C_1  and  C_2
REMARK    2  A    between atoms: C_2  and  C_3
REMARK    3  A    between atoms: C_2  and  N_35
REMARK    4  A    between atoms: C_7  and  C_8
REMARK    5  A    between atoms: N_14  and  C_15
REMARK    6  A    between atoms: C_19  and  C_20
REMARK    7  A    between atoms: C_20  and  C_21
REMARK    8  A    between atoms: C_21  and  C_23
REMARK    9  A    between atoms: N_27  and  C_28
REMARK                            x       y       z     vdW  Elec       q    Type
REMARK                         _______ _______ _______ _____ _____    ______ ____
ROOT
ATOM      1  C   UNL     1       0.403  11.650  19.347  0.00  0.00    +0.000 A 
ATOM      2  C   UNL     1       1.179  10.815  18.540  0.00  0.00    +0.000 A 
ATOM      3  C   UNL     1       1.484   9.575  19.051  0.00  0.00    +0.000 A 
ATOM      4  C   UNL     1       1.101   9.140  20.313  0.00  0.00    +0.000 A 
ATOM      5  C   UNL     1       0.401   9.963  21.169  0.00  0.00    +0.000 A 
ATOM      6  C   UNL     1       0.031  11.216  20.651  0.00  0.00    +0.000 A 
ATOM      7  C   UNL     1       1.567   7.744  20.511  0.00  0.00    +0.000 C 
ATOM      8  N   UNL     1       2.210   7.429  19.241  0.00  0.00    +0.000 N 
ATOM      9  C   UNL     1       2.201   8.514  18.368  0.00  0.00    +0.000 C 
ATOM     10  O   UNL     1       2.651   8.654  17.248  0.00  0.00    +0.000 OA
ENDROOT
BRANCH   8  11
ATOM     11  C   UNL     1       2.823   6.188  19.003  0.00  0.00    +0.000 A 
ATOM     12  C   UNL     1       2.492   5.074  19.728  0.00  0.00    +0.000 A 
ATOM     13  C   UNL     1       3.145   3.870  19.487  0.00  0.00    +0.000 A 
ATOM     14  C   UNL     1       4.145   3.785  18.508  0.00  0.00    +0.000 A 
ATOM     15  C   UNL     1       4.487   4.888  17.712  0.00  0.00    +0.000 A 
ATOM     16  C   UNL     1       3.766   6.060  17.984  0.00  0.00    +0.000 A 
BRANCH  15  17
ATOM     17  C   UNL     1       5.560   4.828  16.496  0.00  0.00    +0.000 C 
ATOM     18  C   UNL     1       5.439   3.690  15.444  0.00  0.00    +0.000 C 
ATOM     19  O   UNL     1       5.586   4.643  14.362  0.00  0.00    +0.000 OA
ATOM     20  C   UNL     1       5.240   5.722  15.269  0.00  0.00    +0.000 C 
BRANCH  17  21
ATOM     21  C   UNL     1       7.030   4.917  16.965  0.00  0.00    +0.000 C 
ATOM     22  F   UNL     1       7.196   3.989  17.957  0.00  0.00    +0.000 F 
BRANCH  21  23
ATOM     23  C   UNL     1       7.477   6.274  17.414  0.00  0.00    +0.000 A 
ATOM     24  N   UNL     1       7.409   7.386  16.704  0.00  0.00    +0.000 NA
ATOM     25  N   UNL     1       7.861   8.425  17.479  0.00  0.00    +0.000 NA
ATOM     26  C   UNL     1       8.222   7.928  18.637  0.00  0.00    +0.000 A 
ATOM     27  N   UNL     1       7.943   6.596  18.665  0.00  0.00    +0.000 N 
ATOM     28  C   UNL     1       8.080   5.733  19.809  0.00  0.00    +0.000 C 
ENDBRANCH  21  23
ENDBRANCH  17  21
ENDBRANCH  15  17
ENDBRANCH   8  11
BRANCH   5  29
ATOM     29  C   UNL     1       0.068   9.581  22.585  0.00  0.00    +0.000 C 
ATOM     30  F   UNL     1      -0.568  10.564  23.276  0.00  0.00    +0.000 F 
ATOM     31  F   UNL     1      -0.755   8.499  22.637  0.00  0.00    +0.000 F 
ATOM     32  F   UNL     1       1.168   9.259  23.317  0.00  0.00    +0.000 F 
ENDBRANCH   5  29
BRANCH   1  34
ATOM     33  C   UNL     1      -1.603  13.064  18.929  0.00  0.00    +0.000 C 
ATOM     34  C   UNL     1      -0.073  12.976  18.755  0.00  0.00    +0.000 C 
BRANCH  34  35
ATOM     35  N   UNL     1       0.638  14.166  19.225  0.00  0.00    +0.000 NA
ATOM     36  C   UNL     1      -0.089  15.442  19.271  0.00  0.00    +0.000 C 
ATOM     37  C   UNL     1       1.017  16.482  19.477  0.00  0.00    +0.000 C 
ATOM     38  C   UNL     1       2.163  15.871  18.732  0.00  0.00    +0.000 C 
ATOM     39  C   UNL     1       3.562  16.435  18.805  0.00  0.00    +0.000 C 
ATOM     40  C   UNL     1       2.765  16.589  17.542  0.00  0.00    +0.000 C 
ATOM     41  C   UNL     1       1.957  14.386  18.642  0.00  0.00    +0.000 C 
ENDBRANCH  34  35
ENDBRANCH   1  34
TORSDOF 7
ENDMDL
MODEL 5
REMARK VINA RESULT:      -9.5      1.986      3.684
REMARK  Name = 
REMARK  9 active torsions:
REMARK  status: ('A' for Active; 'I' for Inactive)
REMARK    1  A    between atoms: C_1  and  C_2
REMARK    2  A    between atoms: C_2  and  C_3
REMARK    3  A    between atoms: C_2  and  N_35
REMARK    4  A    between atoms: C_7  and  C_8
REMARK    5  A    between atoms: N_14  and  C_15
REMARK    6  A    between atoms: C_19  and  C_20
REMARK    7  A    between atoms: C_20  and  C_21
REMARK    8  A    between atoms: C_21  and  C_23
REMARK    9  A    between atoms: N_27  and  C_28
REMARK                            x       y       z     vdW  Elec       q    Type
REMARK                         _______ _______ _______ _____ _____    ______ ____
ROOT
ATOM      1  C   UNL     1      -0.069  11.235  19.030  0.00  0.00    +0.000 A 
ATOM      2  C   UNL     1       0.807  10.452  18.276  0.00  0.00    +0.000 A 
ATOM      3  C   UNL     1       1.308   9.326  18.886  0.00  0.00    +0.000 A 
ATOM      4  C   UNL     1       1.022   8.960  20.195  0.00  0.00    +0.000 A 
ATOM      5  C   UNL     1       0.224   9.748  20.997  0.00  0.00    +0.000 A 
ATOM      6  C   UNL     1      -0.343  10.877  20.381  0.00  0.00    +0.000 A 
ATOM      7  C   UNL     1       1.699   7.675  20.503  0.00  0.00    +0.000 C 
ATOM      8  N   UNL     1       2.355   7.340  19.245  0.00  0.00    +0.000 N 
ATOM      9  C   UNL     1       2.163   8.323  18.278  0.00  0.00    +0.000 C 
ATOM     10  O   UNL     1       2.563   8.422  17.135  0.00  0.00    +0.000 OA
ENDROOT
BRANCH   8  11
ATOM     11  C   UNL     1       3.144   6.188  19.099  0.00  0.00    +0.000 A 
ATOM     12  C   UNL     1       3.094   5.164  20.008  0.00  0.00    +0.000 A 
ATOM     13  C   UNL     1       3.915   4.053  19.850  0.00  0.00    +0.000 A 
ATOM     14  C   UNL     1       4.801   3.971  18.766  0.00  0.00    +0.000 A 
ATOM     15  C   UNL     1       4.856   4.974  17.787  0.00  0.00    +0.000 A 
ATOM     16  C   UNL     1       3.977   6.048  17.990  0.00  0.00    +0.000 A 
BRANCH  15  17
ATOM     17  C   UNL     1       5.784   4.890  16.458  0.00  0.00    +0.000 C 
ATOM     18  C   UNL     1       5.632   3.665  15.515  0.00  0.00    +0.000 C 
ATOM     19  O   UNL     1       5.577   4.534  14.356  0.00  0.00    +0.000 OA
ATOM     20  C   UNL     1       5.255   5.656  15.217  0.00  0.00    +0.000 C 
BRANCH  17  21
ATOM     21  C   UNL     1       7.286   5.119  16.737  0.00  0.00    +0.000 C 
ATOM     22  F   UNL     1       7.721   4.071  17.503  0.00  0.00    +0.000 F 
BRANCH  21  23
ATOM     23  C   UNL     1       7.625   6.431  17.375  0.00  0.00    +0.000 A 
ATOM     24  N   UNL     1       7.540   7.617  16.799  0.00  0.00    +0.000 NA
ATOM     25  N   UNL     1       7.881   8.574  17.723  0.00  0.00    +0.000 NA
ATOM     26  C   UNL     1       8.194   7.958  18.837  0.00  0.00    +0.000 A 
ATOM     27  N   UNL     1       7.990   6.620  18.685  0.00  0.00    +0.000 N 
ATOM     28  C   UNL     1       8.102   5.631  19.726  0.00  0.00    +0.000 C 
ENDBRANCH  21  23
ENDBRANCH  17  21
ENDBRANCH  15  17
ENDBRANCH   8  11
BRANCH   5  29
ATOM     29  C   UNL     1      -0.017   9.457  22.453  0.00  0.00    +0.000 C 
ATOM     30  F   UNL     1      -0.765   8.341  22.665  0.00  0.00    +0.000 F 
ATOM     31  F   UNL     1       1.145   9.258  23.130  0.00  0.00    +0.000 F 
ATOM     32  F   UNL     1      -0.664  10.468  23.093  0.00  0.00    +0.000 F 
ENDBRANCH   5  29
BRANCH   1  34
ATOM     33  C   UNL     1      -2.277  12.184  18.384  0.00  0.00    +0.000 C 
ATOM     34  C   UNL     1      -0.753  12.412  18.337  0.00  0.00    +0.000 C 
BRANCH  34  35
ATOM     35  N   UNL     1      -0.346  13.739  18.803  0.00  0.00    +0.000 NA
ATOM     36  C   UNL     1       1.089  14.047  18.871  0.00  0.00    +0.000 C 
ATOM     37  C   UNL     1       1.143  15.341  19.689  0.00  0.00    +0.000 C 
ATOM     38  C   UNL     1      -0.012  15.168  20.626  0.00  0.00    +0.000 C 
ATOM     39  C   UNL     1      -0.499  16.286  21.518  0.00  0.00    +0.000 C 
ATOM     40  C   UNL     1       0.223  15.116  22.121  0.00  0.00    +0.000 C 
ATOM     41  C   UNL     1      -0.996  14.207  20.022  0.00  0.00    +0.000 C 
ENDBRANCH  34  35
ENDBRANCH   1  34
TORSDOF 7
ENDMDL
MODEL 6
REMARK VINA RESULT:      -9.3      1.675      2.725
REMARK  Name = 
REMARK  9 active torsions:
REMARK  status: ('A' for Active; 'I' for Inactive)
REMARK    1  A    between atoms: C_1  and  C_2
REMARK    2  A    between atoms: C_2  and  C_3
REMARK    3  A    between atoms: C_2  and  N_35
REMARK    4  A    between atoms: C_7  and  C_8
REMARK    5  A    between atoms: N_14  and  C_15
REMARK    6  A    between atoms: C_19  and  C_20
REMARK    7  A    between atoms: C_20  and  C_21
REMARK    8  A    between atoms: C_21  and  C_23
REMARK    9  A    between atoms: N_27  and  C_28
REMARK                            x       y       z     vdW  Elec       q    Type
REMARK                         _______ _______ _______ _____ _____    ______ ____
ROOT
ATOM      1  C   UNL     1      -0.611  10.906  19.373  0.00  0.00    +0.000 A 
ATOM      2  C   UNL     1       0.217  10.150  18.540  0.00  0.00    +0.000 A 
ATOM      3  C   UNL     1       0.929   9.136  19.135  0.00  0.00    +0.000 A 
ATOM      4  C   UNL     1       0.896   8.858  20.495  0.00  0.00    +0.000 A 
ATOM      5  C   UNL     1       0.152   9.631  21.363  0.00  0.00    +0.000 A 
ATOM      6  C   UNL     1      -0.626  10.641  20.772  0.00  0.00    +0.000 A 
ATOM      7  C   UNL     1       1.751   7.676  20.775  0.00  0.00    +0.000 C 
ATOM      8  N   UNL     1       2.233   7.300  19.451  0.00  0.00    +0.000 N 
ATOM      9  C   UNL     1       1.783   8.173  18.464  0.00  0.00    +0.000 C 
ATOM     10  O   UNL     1       1.983   8.211  17.266  0.00  0.00    +0.000 OA
ENDROOT
BRANCH   8  11
ATOM     11  C   UNL     1       3.111   6.222  19.257  0.00  0.00    +0.000 A 
ATOM     12  C   UNL     1       3.195   5.194  20.157  0.00  0.00    +0.000 A 
ATOM     13  C   UNL     1       4.102   4.160  19.949  0.00  0.00    +0.000 A 
ATOM     14  C   UNL     1       4.937   4.161  18.823  0.00  0.00    +0.000 A 
ATOM     15  C   UNL     1       4.856   5.170  17.851  0.00  0.00    +0.000 A 
ATOM     16  C   UNL     1       3.898   6.162  18.107  0.00  0.00    +0.000 A 
BRANCH  15  17
ATOM     17  C   UNL     1       5.720   5.174  16.478  0.00  0.00    +0.000 C 
ATOM     18  C   UNL     1       5.482   4.044  15.439  0.00  0.00    +0.000 C 
ATOM     19  O   UNL     1       5.409   5.014  14.364  0.00  0.00    +0.000 OA
ATOM     20  C   UNL     1       5.166   6.066  15.335  0.00  0.00    +0.000 C 
BRANCH  17  21
ATOM     21  C   UNL     1       7.241   5.328  16.705  0.00  0.00    +0.000 C 
ATOM     22  F   UNL     1       7.662   4.222  17.392  0.00  0.00    +0.000 F 
BRANCH  21  23
ATOM     23  C   UNL     1       7.659   6.588  17.399  0.00  0.00    +0.000 A 
ATOM     24  N   UNL     1       7.630   7.803  16.883  0.00  0.00    +0.000 NA
ATOM     25  N   UNL     1       8.036   8.694  17.845  0.00  0.00    +0.000 NA
ATOM     26  C   UNL     1       8.332   8.008  18.922  0.00  0.00    +0.000 A 
ATOM     27  N   UNL     1       8.054   6.692  18.710  0.00  0.00    +0.000 N 
ATOM     28  C   UNL     1       8.128   5.649  19.700  0.00  0.00    +0.000 C 
ENDBRANCH  21  23
ENDBRANCH  17  21
ENDBRANCH  15  17
ENDBRANCH   8  11
BRANCH   5  29
ATOM     29  C   UNL     1       0.178   9.444  22.855  0.00  0.00    +0.000 C 
ATOM     30  F   UNL     1      -0.404  10.465  23.538  0.00  0.00    +0.000 F 
ATOM     31  F   UNL     1      -0.483   8.318  23.236  0.00  0.00    +0.000 F 
ATOM     32  F   UNL     1       1.439   9.332  23.350  0.00  0.00    +0.000 F 
ENDBRANCH   5  29
BRANCH   1  34
ATOM     33  C   UNL     1      -0.666  12.822  17.784  0.00  0.00    +0.000 C 
ATOM     34  C   UNL     1      -1.521  11.947  18.724  0.00  0.00    +0.000 C 
BRANCH  34  35
ATOM     35  N   UNL     1      -2.730  11.417  18.089  0.00  0.00    +0.000 NA
ATOM     36  C   UNL     1      -2.829  11.466  16.624  0.00  0.00    +0.000 C 
ATOM     37  C   UNL     1      -4.303  11.155  16.350  0.00  0.00    +0.000 C 
ATOM     38  C   UNL     1      -4.978  11.764  17.540  0.00  0.00    +0.000 C 
ATOM     39  C   UNL     1      -6.443  11.546  17.833  0.00  0.00    +0.000 C 
ATOM     40  C   UNL     1      -5.973  12.890  17.356  0.00  0.00    +0.000 C 
ATOM     41  C   UNL     1      -3.993  11.856  18.670  0.00  0.00    +0.000 C 
ENDBRANCH  34  35
ENDBRANCH   1  34
TORSDOF 7
ENDMDL
MODEL 7
REMARK VINA RESULT:      -9.2      3.013      9.624
REMARK  Name = 
REMARK  9 active torsions:
REMARK  status: ('A' for Active; 'I' for Inactive)
REMARK    1  A    between atoms: C_1  and  C_2
REMARK    2  A    between atoms: C_2  and  C_3
REMARK    3  A    between atoms: C_2  and  N_35
REMARK    4  A    between atoms: C_7  and  C_8
REMARK    5  A    between atoms: N_14  and  C_15
REMARK    6  A    between atoms: C_19  and  C_20
REMARK    7  A    between atoms: C_20  and  C_21
REMARK    8  A    between atoms: C_21  and  C_23
REMARK    9  A    between atoms: N_27  and  C_28
REMARK                            x       y       z     vdW  Elec       q    Type
REMARK                         _______ _______ _______ _____ _____    ______ ____
ROOT
ATOM      1  C   UNL     1       5.126   5.108  15.906  0.00  0.00    +0.000 A 
ATOM      2  C   UNL     1       4.655   6.380  16.239  0.00  0.00    +0.000 A 
ATOM      3  C   UNL     1       3.784   6.456  17.300  0.00  0.00    +0.000 A 
ATOM      4  C   UNL     1       3.330   5.354  18.013  0.00  0.00    +0.000 A 
ATOM      5  C   UNL     1       3.711   4.075  17.666  0.00  0.00    +0.000 A 
ATOM      6  C   UNL     1       4.643   3.974  16.619  0.00  0.00    +0.000 A 
ATOM      7  C   UNL     1       2.440   5.813  19.109  0.00  0.00    +0.000 C 
ATOM      8  N   UNL     1       2.464   7.264  18.966  0.00  0.00    +0.000 N 
ATOM      9  C   UNL     1       3.231   7.668  17.877  0.00  0.00    +0.000 C 
ATOM     10  O   UNL     1       3.472   8.768  17.422  0.00  0.00    +0.000 OA
ENDROOT
BRANCH   8  11
ATOM     11  C   UNL     1       1.719   8.108  19.805  0.00  0.00    +0.000 A 
ATOM     12  C   UNL     1       1.618   7.874  21.151  0.00  0.00    +0.000 A 
ATOM     13  C   UNL     1       0.843   8.713  21.945  0.00  0.00    +0.000 A 
ATOM     14  C   UNL     1       0.159   9.798  21.380  0.00  0.00    +0.000 A 
ATOM     15  C   UNL     1       0.268  10.102  20.015  0.00  0.00    +0.000 A 
ATOM     16  C   UNL     1       1.092   9.237  19.280  0.00  0.00    +0.000 A 
BRANCH  15  17
ATOM     17  C   UNL     1      -0.414  11.401  19.321  0.00  0.00    +0.000 C 
ATOM     18  C   UNL     1      -1.318  11.196  18.074  0.00  0.00    +0.000 C 
ATOM     19  O   UNL     1      -2.338  12.054  18.642  0.00  0.00    +0.000 OA
ATOM     20  C   UNL     1      -1.746  11.883  19.956  0.00  0.00    +0.000 C 
BRANCH  17  21
ATOM     21  C   UNL     1       0.585  12.542  19.028  0.00  0.00    +0.000 C 
ATOM     22  F   UNL     1       1.757  11.961  18.624  0.00  0.00    +0.000 F 
BRANCH  21  23
ATOM     23  C   UNL     1       0.817  13.495  20.160  0.00  0.00    +0.000 A 
ATOM     24  N   UNL     1       1.516  13.245  21.252  0.00  0.00    +0.000 NA
ATOM     25  N   UNL     1       1.543  14.382  22.021  0.00  0.00    +0.000 NA
ATOM     26  C   UNL     1       0.839  15.298  21.401  0.00  0.00    +0.000 A 
ATOM     27  N   UNL     1       0.416  14.808  20.203  0.00  0.00    +0.000 N 
ATOM     28  C   UNL     1      -0.276  15.558  19.187  0.00  0.00    +0.000 C 
ENDBRANCH  21  23
ENDBRANCH  17  21
ENDBRANCH  15  17
ENDBRANCH   8  11
BRANCH   5  29
ATOM     29  C   UNL     1       3.156   2.846  18.331  0.00  0.00    +0.000 C 
ATOM     30  F   UNL     1       1.800   2.763  18.271  0.00  0.00    +0.000 F 
ATOM     31  F   UNL     1       3.622   1.704  17.758  0.00  0.00    +0.000 F 
ATOM     32  F   UNL     1       3.477   2.769  19.650  0.00  0.00    +0.000 F 
ENDBRANCH   5  29
BRANCH   1  34
ATOM     33  C   UNL     1       7.576   4.894  15.520  0.00  0.00    +0.000 C 
ATOM     34  C   UNL     1       6.202   5.004  14.827  0.00  0.00    +0.000 C 
BRANCH  34  35
ATOM     35  N   UNL     1       5.977   3.974  13.811  0.00  0.00    +0.000 NA
ATOM     36  C   UNL     1       6.980   3.805  12.752  0.00  0.00    +0.000 C 
ATOM     37  C   UNL     1       6.276   2.914  11.724  0.00  0.00    +0.000 C 
ATOM     38  C   UNL     1       4.849   3.350  11.857  0.00  0.00    +0.000 C 
ATOM     39  C   UNL     1       3.718   2.615  11.179  0.00  0.00    +0.000 C 
ATOM     40  C   UNL     1       4.130   3.969  10.678  0.00  0.00    +0.000 C 
ATOM     41  C   UNL     1       4.645   3.953  13.218  0.00  0.00    +0.000 C 
ENDBRANCH  34  35
ENDBRANCH   1  34
TORSDOF 7
ENDMDL
MODEL 8
REMARK VINA RESULT:      -9.1      2.234      3.962
REMARK  Name = 
REMARK  9 active torsions:
REMARK  status: ('A' for Active; 'I' for Inactive)
REMARK    1  A    between atoms: C_1  and  C_2
REMARK    2  A    between atoms: C_2  and  C_3
REMARK    3  A    between atoms: C_2  and  N_35
REMARK    4  A    between atoms: C_7  and  C_8
REMARK    5  A    between atoms: N_14  and  C_15
REMARK    6  A    between atoms: C_19  and  C_20
REMARK    7  A    between atoms: C_20  and  C_21
REMARK    8  A    between atoms: C_21  and  C_23
REMARK    9  A    between atoms: N_27  and  C_28
REMARK                            x       y       z     vdW  Elec       q    Type
REMARK                         _______ _______ _______ _____ _____    ______ ____
ROOT
ATOM      1  C   UNL     1       0.622  11.518  19.156  0.00  0.00    +0.000 A 
ATOM      2  C   UNL     1       1.372  10.699  18.310  0.00  0.00    +0.000 A 
ATOM      3  C   UNL     1       1.664   9.437  18.773  0.00  0.00    +0.000 A 
ATOM      4  C   UNL     1       1.292   8.965  20.025  0.00  0.00    +0.000 A 
ATOM      5  C   UNL     1       0.618   9.769  20.920  0.00  0.00    +0.000 A 
ATOM      6  C   UNL     1       0.261  11.045  20.450  0.00  0.00    +0.000 A 
ATOM      7  C   UNL     1       1.738   7.555  20.168  0.00  0.00    +0.000 C 
ATOM      8  N   UNL     1       2.357   7.274  18.879  0.00  0.00    +0.000 N 
ATOM      9  C   UNL     1       2.354   8.389  18.044  0.00  0.00    +0.000 C 
ATOM     10  O   UNL     1       2.790   8.560  16.923  0.00  0.00    +0.000 OA
ENDROOT
BRANCH   8  11
ATOM     11  C   UNL     1       2.947   6.033  18.590  0.00  0.00    +0.000 A 
ATOM     12  C   UNL     1       2.631   4.906  19.301  0.00  0.00    +0.000 A 
ATOM     13  C   UNL     1       3.260   3.701  19.009  0.00  0.00    +0.000 A 
ATOM     14  C   UNL     1       4.221   3.628  17.991  0.00  0.00    +0.000 A 
ATOM     15  C   UNL     1       4.545   4.745  17.207  0.00  0.00    +0.000 A 
ATOM     16  C   UNL     1       3.849   5.918  17.533  0.00  0.00    +0.000 A 
BRANCH  15  17
ATOM     17  C   UNL     1       5.571   4.701  15.950  0.00  0.00    +0.000 C 
ATOM     18  C   UNL     1       6.035   3.321  15.409  0.00  0.00    +0.000 C 
ATOM     19  O   UNL     1       5.764   3.737  14.047  0.00  0.00    +0.000 OA
ATOM     20  C   UNL     1       4.920   4.807  14.545  0.00  0.00    +0.000 C 
BRANCH  17  21
ATOM     21  C   UNL     1       6.810   5.606  16.132  0.00  0.00    +0.000 C 
ATOM     22  F   UNL     1       7.759   5.178  15.243  0.00  0.00    +0.000 F 
BRANCH  21  23
ATOM     23  C   UNL     1       7.360   5.665  17.523  0.00  0.00    +0.000 A 
ATOM     24  N   UNL     1       7.633   4.627  18.293  0.00  0.00    +0.000 NA
ATOM     25  N   UNL     1       8.172   5.086  19.468  0.00  0.00    +0.000 NA
ATOM     26  C   UNL     1       8.194   6.396  19.410  0.00  0.00    +0.000 A 
ATOM     27  N   UNL     1       7.753   6.801  18.187  0.00  0.00    +0.000 N 
ATOM     28  C   UNL     1       7.752   8.157  17.703  0.00  0.00    +0.000 C 
ENDBRANCH  21  23
ENDBRANCH  17  21
ENDBRANCH  15  17
ENDBRANCH   8  11
BRANCH   5  29
ATOM     29  C   UNL     1       0.299   9.344  22.326  0.00  0.00    +0.000 C 
ATOM     30  F   UNL     1      -0.294  10.318  23.066  0.00  0.00    +0.000 F 
ATOM     31  F   UNL     1      -0.555   8.285  22.354  0.00  0.00    +0.000 F 
ATOM     32  F   UNL     1       1.402   8.963  23.025  0.00  0.00    +0.000 F 
ENDBRANCH   5  29
BRANCH   1  34
ATOM     33  C   UNL     1      -1.350  12.782  18.314  0.00  0.00    +0.000 C 
ATOM     34  C   UNL     1       0.160  12.870  18.617  0.00  0.00    +0.000 C 
BRANCH  34  35
ATOM     35  N   UNL     1       0.525  14.031  19.431  0.00  0.00    +0.000 NA
ATOM     36  C   UNL     1      -0.549  14.891  19.944  0.00  0.00    +0.000 C 
ATOM     37  C   UNL     1       0.191  16.137  20.440  0.00  0.00    +0.000 C 
ATOM     38  C   UNL     1       1.334  16.226  19.478  0.00  0.00    +0.000 C 
ATOM     39  C   UNL     1       2.476  17.195  19.673  0.00  0.00    +0.000 C 
ATOM     40  C   UNL     1       1.478  17.435  18.577  0.00  0.00    +0.000 C 
ATOM     41  C   UNL     1       1.595  14.866  18.896  0.00  0.00    +0.000 C 
ENDBRANCH  34  35
ENDBRANCH   1  34
TORSDOF 7
ENDMDL
MODEL 9
REMARK VINA RESULT:      -9.0      1.418      1.964
REMARK  Name = 
REMARK  9 active torsions:
REMARK  status: ('A' for Active; 'I' for Inactive)
REMARK    1  A    between atoms: C_1  and  C_2
REMARK    2  A    between atoms: C_2  and  C_3
REMARK    3  A    between atoms: C_2  and  N_35
REMARK    4  A    between atoms: C_7  and  C_8
REMARK    5  A    between atoms: N_14  and  C_15
REMARK    6  A    between atoms: C_19  and  C_20
REMARK    7  A    between atoms: C_20  and  C_21
REMARK    8  A    between atoms: C_21  and  C_23
REMARK    9  A    between atoms: N_27  and  C_28
REMARK                            x       y       z     vdW  Elec       q    Type
REMARK                         _______ _______ _______ _____ _____    ______ ____
ROOT
ATOM      1  C   UNL     1      -0.010  11.604  19.816  0.00  0.00    +0.000 A 
ATOM      2  C   UNL     1       0.659  10.902  18.811  0.00  0.00    +0.000 A 
ATOM      3  C   UNL     1       1.131   9.653  19.141  0.00  0.00    +0.000 A 
ATOM      4  C   UNL     1       1.011   9.087  20.404  0.00  0.00    +0.000 A 
ATOM      5  C   UNL     1       0.426   9.779  21.443  0.00  0.00    +0.000 A 
ATOM      6  C   UNL     1      -0.111  11.036  21.118  0.00  0.00    +0.000 A 
ATOM      7  C   UNL     1       1.594   7.721  20.384  0.00  0.00    +0.000 C 
ATOM      8  N   UNL     1       2.016   7.564  18.998  0.00  0.00    +0.000 N 
ATOM      9  C   UNL     1       1.780   8.712  18.246  0.00  0.00    +0.000 C 
ATOM     10  O   UNL     1       2.010   8.979  17.084  0.00  0.00    +0.000 OA
ENDROOT
BRANCH   8  11
ATOM     11  C   UNL     1       2.654   6.400  18.540  0.00  0.00    +0.000 A 
ATOM     12  C   UNL     1       2.053   5.172  18.624  0.00  0.00    +0.000 A 
ATOM     13  C   UNL     1       2.730   4.036  18.191  0.00  0.00    +0.000 A 
ATOM     14  C   UNL     1       4.028   4.136  17.672  0.00  0.00    +0.000 A 
ATOM     15  C   UNL     1       4.667   5.376  17.527  0.00  0.00    +0.000 A 
ATOM     16  C   UNL     1       3.915   6.482  17.950  0.00  0.00    +0.000 A 
BRANCH  15  17
ATOM     17  C   UNL     1       6.125   5.567  16.840  0.00  0.00    +0.000 C 
ATOM     18  C   UNL     1       7.210   6.379  17.599  0.00  0.00    +0.000 C 
ATOM     19  O   UNL     1       8.196   5.348  17.341  0.00  0.00    +0.000 OA
ATOM     20  C   UNL     1       7.130   4.405  17.056  0.00  0.00    +0.000 C 
BRANCH  17  21
ATOM     21  C   UNL     1       6.059   6.069  15.380  0.00  0.00    +0.000 C 
ATOM     22  F   UNL     1       4.930   6.836  15.265  0.00  0.00    +0.000 F 
BRANCH  21  23
ATOM     23  C   UNL     1       6.094   4.999  14.333  0.00  0.00    +0.000 A 
ATOM     24  N   UNL     1       5.146   4.107  14.105  0.00  0.00    +0.000 NA
ATOM     25  N   UNL     1       5.523   3.338  13.032  0.00  0.00    +0.000 NA
ATOM     26  C   UNL     1       6.703   3.752  12.641  0.00  0.00    +0.000 A 
ATOM     27  N   UNL     1       7.074   4.830  13.386  0.00  0.00    +0.000 N 
ATOM     28  C   UNL     1       8.247   5.636  13.170  0.00  0.00    +0.000 C 
ENDBRANCH  21  23
ENDBRANCH  17  21
ENDBRANCH  15  17
ENDBRANCH   8  11
BRANCH   5  29
ATOM     29  C   UNL     1       0.379   9.256  22.852  0.00  0.00    +0.000 C 
ATOM     30  F   UNL     1      -0.210  10.113  23.729  0.00  0.00    +0.000 F 
ATOM     31  F   UNL     1      -0.323   8.095  22.940  0.00  0.00    +0.000 F 
ATOM     32  F   UNL     1       1.614   8.994  23.359  0.00  0.00    +0.000 F 
ENDBRANCH   5  29
BRANCH   1  34
ATOM     33  C   UNL     1       0.255  13.672  18.457  0.00  0.00    +0.000 C 
ATOM     34  C   UNL     1      -0.669  12.931  19.444  0.00  0.00    +0.000 C 
BRANCH  34  35
ATOM     35  N   UNL     1      -2.057  12.838  18.988  0.00  0.00    +0.000 NA
ATOM     36  C   UNL     1      -3.109  12.613  19.988  0.00  0.00    +0.000 C 
ATOM     37  C   UNL     1      -4.335  12.246  19.148  0.00  0.00    +0.000 C 
ATOM     38  C   UNL     1      -3.717  11.524  17.990  0.00  0.00    +0.000 C 
ATOM     39  C   UNL     1      -4.514  11.129  16.770  0.00  0.00    +0.000 C 
ATOM     40  C   UNL     1      -4.056  10.071  17.731  0.00  0.00    +0.000 C 
ATOM     41  C   UNL     1      -2.288  11.963  17.844  0.00  0.00    +0.000 C 
ENDBRANCH  34  35
ENDBRANCH   1  34
TORSDOF 7
ENDMDL
