MODEL 1
REMARK VINA RESULT:      -9.5      0.000      0.000
REMARK  Name = 
REMARK  7 active torsions:
REMARK  status: ('A' for Active; 'I' for Inactive)
REMARK    1  A    between atoms: C_1  and  C_2
REMARK    2  A    between atoms: C_2  and  C_3
REMARK    3  A    between atoms: C_2  and  C_23
REMARK    4  A    between atoms: C_7  and  N_8
REMARK    5  A    between atoms: C_15  and  C_16
REMARK    6  A    between atoms: C_23  and  C_26
REMARK    7  A    between atoms: N_30  and  C_31
REMARK                            x       y       z     vdW  Elec       q    Type
REMARK                         _______ _______ _______ _____ _____    ______ ____
ROOT
ATOM      1  C   UNL     1       4.192   5.094  17.721  0.00  0.00    +0.000 A 
ATOM      2  C   UNL     1       3.791   3.967  18.439  0.00  0.00    +0.000 A 
ATOM      3  C   UNL     1       2.744   4.056  19.374  0.00  0.00    +0.000 A 
ATOM      4  C   UNL     1       2.093   5.280  19.627  0.00  0.00    +0.000 A 
ATOM      5  C   UNL     1       2.518   6.425  18.976  0.00  0.00    +0.000 A 
ATOM      6  C   UNL     1       3.568   6.303  18.037  0.00  0.00    +0.000 A 
ENDROOT
BRANCH   5   7
ATOM      7  N   UNL     1       1.949   7.716  19.164  0.00  0.00    +0.000 N 
ATOM      8  C   UNL     1       1.299   7.994  20.424  0.00  0.00    +0.000 C 
ATOM      9  C   UNL     1       0.897   9.410  20.334  0.00  0.00    +0.000 A 
ATOM     10  C   UNL     1       1.243   9.916  19.087  0.00  0.00    +0.000 A 
ATOM     11  C   UNL     1       0.965  11.232  18.771  0.00  0.00    +0.000 A 
ATOM     12  C   UNL     1       0.338  12.023  19.750  0.00  0.00    +0.000 A 
ATOM     13  C   UNL     1       0.007  11.497  21.017  0.00  0.00    +0.000 A 
ATOM     14  C   UNL     1       0.286  10.165  21.334  0.00  0.00    +0.000 A 
ATOM     15  C   UNL     1       1.929   8.836  18.314  0.00  0.00    +0.000 C 
ATOM     16  O   UNL     1       2.370   8.982  17.193  0.00  0.00    +0.000 OA
BRANCH  14  17
ATOM     17  C   UNL     1      -0.033   9.578  22.689  0.00  0.00    +0.000 C 
ATOM     18  F   UNL     1       1.069   9.221  23.410  0.00  0.00    +0.000 F 
ATOM     19  F   UNL     1      -0.727  10.436  23.483  0.00  0.00    +0.000 F 
ATOM     20  F   UNL     1      -0.783   8.444  22.604  0.00  0.00    +0.000 F 
ENDBRANCH  14  17
ENDBRANCH   5   7
BRANCH   1  22
ATOM     21  C   UNL     1       4.948   3.857  15.578  0.00  0.00    +0.000 C 
ATOM     22  C   UNL     1       5.187   5.027  16.559  0.00  0.00    +0.000 C 
BRANCH  22  23
ATOM     23  C   UNL     1       6.662   5.021  17.051  0.00  0.00    +0.000 C 
ATOM     24  F   UNL     1       6.770   4.135  18.087  0.00  0.00    +0.000 F 
ATOM     25  F   UNL     1       7.439   4.480  16.063  0.00  0.00    +0.000 F 
BRANCH  23  26
ATOM     26  C   UNL     1       7.172   6.372  17.470  0.00  0.00    +0.000 A 
ATOM     27  N   UNL     1       7.066   7.506  16.799  0.00  0.00    +0.000 NA
ATOM     28  N   UNL     1       7.814   8.466  17.429  0.00  0.00    +0.000 NA
ATOM     29  C   UNL     1       8.316   7.921  18.511  0.00  0.00    +0.000 A 
ATOM     30  N   UNL     1       7.889   6.632  18.610  0.00  0.00    +0.000 N 
ATOM     31  C   UNL     1       8.125   5.758  19.728  0.00  0.00    +0.000 C 
ENDBRANCH  23  26
ENDBRANCH  22  23
ENDBRANCH   1  22
TORSDOF 5
ENDMDL
MODEL 2
REMARK VINA RESULT:      -9.5      0.962      1.614
REMARK  Name = 
REMARK  7 active torsions:
REMARK  status: ('A' for Active; 'I' for Inactive)
REMARK    1  A    between atoms: C_1  and  C_2
REMARK    2  A    between atoms: C_2  and  C_3
REMARK    3  A    between atoms: C_2  and  C_23
REMARK    4  A    between atoms: C_7  and  N_8
REMARK    5  A    between atoms: C_15  and  C_16
REMARK    6  A    between atoms: C_23  and  C_26
REMARK    7  A    between atoms: N_30  and  C_31
REMARK                            x       y       z     vdW  Elec       q    Type
REMARK                         _______ _______ _______ _____ _____    ______ ____
ROOT
ATOM      1  C   UNL     1       3.949   5.134  17.859  0.00  0.00    +0.000 A 
ATOM      2  C   UNL     1       3.844   4.134  18.827  0.00  0.00    +0.000 A 
ATOM      3  C   UNL     1       3.052   4.332  19.971  0.00  0.00    +0.000 A 
ATOM      4  C   UNL     1       2.367   5.545  20.184  0.00  0.00    +0.000 A 
ATOM      5  C   UNL     1       2.509   6.576  19.273  0.00  0.00    +0.000 A 
ATOM      6  C   UNL     1       3.307   6.345  18.128  0.00  0.00    +0.000 A 
ENDROOT
BRANCH   5   7
ATOM      7  N   UNL     1       1.881   7.848  19.392  0.00  0.00    +0.000 N 
ATOM      8  C   UNL     1       1.190   8.150  20.624  0.00  0.00    +0.000 C 
ATOM      9  C   UNL     1       0.729   9.542  20.464  0.00  0.00    +0.000 A 
ATOM     10  C   UNL     1       1.083  10.009  19.203  0.00  0.00    +0.000 A 
ATOM     11  C   UNL     1       0.756  11.297  18.824  0.00  0.00    +0.000 A 
ATOM     12  C   UNL     1       0.073  12.101  19.754  0.00  0.00    +0.000 A 
ATOM     13  C   UNL     1      -0.265  11.616  21.036  0.00  0.00    +0.000 A 
ATOM     14  C   UNL     1       0.064  10.312  21.417  0.00  0.00    +0.000 A 
ATOM     15  C   UNL     1       1.833   8.929  18.493  0.00  0.00    +0.000 C 
ATOM     16  O   UNL     1       2.293   9.046  17.377  0.00  0.00    +0.000 OA
BRANCH  14  17
ATOM     17  C   UNL     1      -0.261   9.769  22.789  0.00  0.00    +0.000 C 
ATOM     18  F   UNL     1      -0.991  10.623  23.562  0.00  0.00    +0.000 F 
ATOM     19  F   UNL     1      -0.979   8.615  22.740  0.00  0.00    +0.000 F 
ATOM     20  F   UNL     1       0.854   9.495  23.520  0.00  0.00    +0.000 F 
ENDBRANCH  14  17
ENDBRANCH   5   7
BRANCH   1  22
ATOM     21  C   UNL     1       4.981   3.440  16.198  0.00  0.00    +0.000 C 
ATOM     22  C   UNL     1       4.634   4.914  16.508  0.00  0.00    +0.000 C 
BRANCH  22  23
ATOM     23  C   UNL     1       5.894   5.809  16.338  0.00  0.00    +0.000 C 
ATOM     24  F   UNL     1       6.510   5.472  15.164  0.00  0.00    +0.000 F 
ATOM     25  F   UNL     1       5.478   7.098  16.141  0.00  0.00    +0.000 F 
BRANCH  23  26
ATOM     26  C   UNL     1       6.868   5.716  17.479  0.00  0.00    +0.000 A 
ATOM     27  N   UNL     1       7.202   4.629  18.154  0.00  0.00    +0.000 NA
ATOM     28  N   UNL     1       7.974   4.994  19.227  0.00  0.00    +0.000 NA
ATOM     29  C   UNL     1       8.153   6.291  19.156  0.00  0.00    +0.000 A 
ATOM     30  N   UNL     1       7.533   6.774  18.044  0.00  0.00    +0.000 N 
ATOM     31  C   UNL     1       7.618   8.127  17.563  0.00  0.00    +0.000 C 
ENDBRANCH  23  26
ENDBRANCH  22  23
ENDBRANCH   1  22
TORSDOF 5
ENDMDL
MODEL 3
REMARK VINA RESULT:      -9.3      2.207      2.741
REMARK  Name = 
REMARK  7 active torsions:
REMARK  status: ('A' for Active; 'I' for Inactive)
REMARK    1  A    between atoms: C_1  and  C_2
REMARK    2  A    between atoms: C_2  and  C_3
REMARK    3  A    between atoms: C_2  and  C_23
REMARK    4  A    between atoms: C_7  and  N_8
REMARK    5  A    between atoms: C_15  and  C_16
REMARK    6  A    between atoms: C_23  and  C_26
REMARK    7  A    between atoms: N_30  and  C_31
REMARK                            x       y       z     vdW  Elec       q    Type
REMARK                         _______ _______ _______ _____ _____    ______ ____
ROOT
ATOM      1  C   UNL     1       4.350   4.649  16.813  0.00  0.00    +0.000 A 
ATOM      2  C   UNL     1       3.646   3.455  16.655  0.00  0.00    +0.000 A 
ATOM      3  C   UNL     1       2.419   3.261  17.312  0.00  0.00    +0.000 A 
ATOM      4  C   UNL     1       1.881   4.248  18.162  0.00  0.00    +0.000 A 
ATOM      5  C   UNL     1       2.593   5.413  18.388  0.00  0.00    +0.000 A 
ATOM      6  C   UNL     1       3.820   5.582  17.707  0.00  0.00    +0.000 A 
ENDROOT
BRANCH   5   7
ATOM      7  N   UNL     1       2.158   6.470  19.237  0.00  0.00    +0.000 N 
ATOM      8  C   UNL     1       1.992   7.781  18.656  0.00  0.00    +0.000 C 
ATOM      9  C   UNL     1       1.467   8.614  19.754  0.00  0.00    +0.000 A 
ATOM     10  C   UNL     1       1.379   7.855  20.915  0.00  0.00    +0.000 A 
ATOM     11  C   UNL     1       0.908   8.425  22.083  0.00  0.00    +0.000 A 
ATOM     12  C   UNL     1       0.522   9.776  22.043  0.00  0.00    +0.000 A 
ATOM     13  C   UNL     1       0.604  10.529  20.852  0.00  0.00    +0.000 A 
ATOM     14  C   UNL     1       1.083   9.952  19.672  0.00  0.00    +0.000 A 
ATOM     15  C   UNL     1       1.819   6.461  20.602  0.00  0.00    +0.000 C 
ATOM     16  O   UNL     1       1.831   5.558  21.411  0.00  0.00    +0.000 OA
BRANCH  14  17
ATOM     17  C   UNL     1       1.160  10.721  18.374  0.00  0.00    +0.000 C 
ATOM     18  F   UNL     1       2.412  10.772  17.836  0.00  0.00    +0.000 F 
ATOM     19  F   UNL     1       0.365  10.195  17.405  0.00  0.00    +0.000 F 
ATOM     20  F   UNL     1       0.782  12.022  18.515  0.00  0.00    +0.000 F 
ENDBRANCH  14  17
ENDBRANCH   5   7
BRANCH   1  22
ATOM     21  C   UNL     1       5.774   4.136  14.715  0.00  0.00    +0.000 C 
ATOM     22  C   UNL     1       5.587   5.000  15.982  0.00  0.00    +0.000 C 
BRANCH  22  23
ATOM     23  C   UNL     1       6.887   4.990  16.835  0.00  0.00    +0.000 C 
ATOM     24  F   UNL     1       6.717   4.116  17.874  0.00  0.00    +0.000 F 
ATOM     25  F   UNL     1       7.885   4.429  16.084  0.00  0.00    +0.000 F 
BRANCH  23  26
ATOM     26  C   UNL     1       7.288   6.341  17.357  0.00  0.00    +0.000 A 
ATOM     27  N   UNL     1       7.161   7.503  16.737  0.00  0.00    +0.000 NA
ATOM     28  N   UNL     1       7.808   8.466  17.467  0.00  0.00    +0.000 NA
ATOM     29  C   UNL     1       8.266   7.892  18.552  0.00  0.00    +0.000 A 
ATOM     30  N   UNL     1       7.909   6.578  18.556  0.00  0.00    +0.000 N 
ATOM     31  C   UNL     1       8.119   5.659  19.642  0.00  0.00    +0.000 C 
ENDBRANCH  23  26
ENDBRANCH  22  23
ENDBRANCH   1  22
TORSDOF 5
ENDMDL
MODEL 4
REMARK VINA RESULT:      -9.3      1.571      2.554
REMARK  Name = 
REMARK  7 active torsions:
REMARK  status: ('A' for Active; 'I' for Inactive)
REMARK    1  A    between atoms: C_1  and  C_2
REMARK    2  A    between atoms: C_2  and  C_3
REMARK    3  A    between atoms: C_2  and  C_23
REMARK    4  A    between atoms: C_7  and  N_8
REMARK    5  A    between atoms: C_15  and  C_16
REMARK    6  A    between atoms: C_23  and  C_26
REMARK    7  A    between atoms: N_30  and  C_31
REMARK                            x       y       z     vdW  Elec       q    Type
REMARK                         _______ _______ _______ _____ _____    ______ ____
ROOT
ATOM      1  C   UNL     1       5.129   5.183  19.036  0.00  0.00    +0.000 A 
ATOM      2  C   UNL     1       4.595   3.974  19.484  0.00  0.00    +0.000 A 
ATOM      3  C   UNL     1       3.251   3.898  19.889  0.00  0.00    +0.000 A 
ATOM      4  C   UNL     1       2.418   5.035  19.877  0.00  0.00    +0.000 A 
ATOM      5  C   UNL     1       2.943   6.258  19.501  0.00  0.00    +0.000 A 
ATOM      6  C   UNL     1       4.296   6.303  19.093  0.00  0.00    +0.000 A 
ENDROOT
BRANCH   5   7
ATOM      7  N   UNL     1       2.205   7.475  19.467  0.00  0.00    +0.000 N 
ATOM      8  C   UNL     1       1.472   7.856  20.652  0.00  0.00    +0.000 C 
ATOM      9  C   UNL     1       0.894   9.174  20.327  0.00  0.00    +0.000 A 
ATOM     10  C   UNL     1       1.224   9.520  19.022  0.00  0.00    +0.000 A 
ATOM     11  C   UNL     1       0.791  10.721  18.493  0.00  0.00    +0.000 A 
ATOM     12  C   UNL     1       0.027  11.564  19.319  0.00  0.00    +0.000 A 
ATOM     13  C   UNL     1      -0.286  11.204  20.647  0.00  0.00    +0.000 A 
ATOM     14  C   UNL     1       0.149   9.988  21.180  0.00  0.00    +0.000 A 
ATOM     15  C   UNL     1       2.076   8.434  18.447  0.00  0.00    +0.000 C 
ATOM     16  O   UNL     1       2.540   8.461  17.327  0.00  0.00    +0.000 OA
BRANCH  14  17
ATOM     17  C   UNL     1      -0.147   9.583  22.605  0.00  0.00    +0.000 C 
ATOM     18  F   UNL     1      -0.911   8.458  22.713  0.00  0.00    +0.000 F 
ATOM     19  F   UNL     1       0.980   9.330  23.323  0.00  0.00    +0.000 F 
ATOM     20  F   UNL     1      -0.830  10.541  23.290  0.00  0.00    +0.000 F 
ENDBRANCH  14  17
ENDBRANCH   5   7
BRANCH   1  22
ATOM     21  C   UNL     1       7.624   5.781  19.368  0.00  0.00    +0.000 C 
ATOM     22  C   UNL     1       6.519   5.293  18.404  0.00  0.00    +0.000 C 
BRANCH  22  23
ATOM     23  C   UNL     1       6.509   6.163  17.115  0.00  0.00    +0.000 C 
ATOM     24  F   UNL     1       5.361   6.907  17.104  0.00  0.00    +0.000 F 
ATOM     25  F   UNL     1       7.510   7.090  17.220  0.00  0.00    +0.000 F 
BRANCH  23  26
ATOM     26  C   UNL     1       6.625   5.372  15.843  0.00  0.00    +0.000 A 
ATOM     27  N   UNL     1       7.623   5.402  14.975  0.00  0.00    +0.000 NA
ATOM     28  N   UNL     1       7.266   4.680  13.866  0.00  0.00    +0.000 NA
ATOM     29  C   UNL     1       6.082   4.168  14.097  0.00  0.00    +0.000 A 
ATOM     30  N   UNL     1       5.671   4.522  15.346  0.00  0.00    +0.000 N 
ATOM     31  C   UNL     1       4.483   4.042  16.000  0.00  0.00    +0.000 C 
ENDBRANCH  23  26
ENDBRANCH  22  23
ENDBRANCH   1  22
TORSDOF 5
ENDMDL
MODEL 5
REMARK VINA RESULT:      -9.1      1.758      2.656
REMARK  Name = 
REMARK  7 active torsions:
REMARK  status: ('A' for Active; 'I' for Inactive)
REMARK    1  A    between atoms: C_1  and  C_2
REMARK    2  A    between atoms: C_2  and  C_3
REMARK    3  A    between atoms: C_2  and  C_23
REMARK    4  A    between atoms: C_7  and  N_8
REMARK    5  A    between atoms: C_15  and  C_16
REMARK    6  A    between atoms: C_23  and  C_26
REMARK    7  A    between atoms: N_30  and  C_31
REMARK                            x       y       z     vdW  Elec       q    Type
REMARK                         _______ _______ _______ _____ _____    ______ ____
ROOT
ATOM      1  C   UNL     1       4.812   5.432  18.293  0.00  0.00    +0.000 A 
ATOM      2  C   UNL     1       4.478   4.276  19.000  0.00  0.00    +0.000 A 
ATOM      3  C   UNL     1       3.322   4.240  19.800  0.00  0.00    +0.000 A 
ATOM      4  C   UNL     1       2.488   5.369  19.929  0.00  0.00    +0.000 A 
ATOM      5  C   UNL     1       2.834   6.547  19.291  0.00  0.00    +0.000 A 
ATOM      6  C   UNL     1       3.998   6.550  18.488  0.00  0.00    +0.000 A 
ENDROOT
BRANCH   5   7
ATOM      7  N   UNL     1       2.080   7.753  19.362  0.00  0.00    +0.000 N 
ATOM      8  C   UNL     1       1.373   8.039  20.589  0.00  0.00    +0.000 C 
ATOM      9  C   UNL     1       0.771   9.368  20.373  0.00  0.00    +0.000 A 
ATOM     10  C   UNL     1       1.062   9.810  19.088  0.00  0.00    +0.000 A 
ATOM     11  C   UNL     1       0.601  11.039  18.657  0.00  0.00    +0.000 A 
ATOM     12  C   UNL     1      -0.152  11.810  19.560  0.00  0.00    +0.000 A 
ATOM     13  C   UNL     1      -0.425  11.353  20.866  0.00  0.00    +0.000 A 
ATOM     14  C   UNL     1       0.039  10.108  21.301  0.00  0.00    +0.000 A 
ATOM     15  C   UNL     1       1.912   8.780  18.416  0.00  0.00    +0.000 C 
ATOM     16  O   UNL     1       2.347   8.892  17.290  0.00  0.00    +0.000 OA
BRANCH  14  17
ATOM     17  C   UNL     1      -0.215   9.599  22.700  0.00  0.00    +0.000 C 
ATOM     18  F   UNL     1       0.921   9.323  23.402  0.00  0.00    +0.000 F 
ATOM     19  F   UNL     1      -0.910  10.485  23.462  0.00  0.00    +0.000 F 
ATOM     20  F   UNL     1      -0.930   8.441  22.713  0.00  0.00    +0.000 F 
ENDBRANCH  14  17
ENDBRANCH   5   7
BRANCH   1  22
ATOM     21  C   UNL     1       6.850   6.723  17.360  0.00  0.00    +0.000 C 
ATOM     22  C   UNL     1       5.942   5.477  17.261  0.00  0.00    +0.000 C 
BRANCH  22  23
ATOM     23  C   UNL     1       5.414   5.311  15.808  0.00  0.00    +0.000 C 
ATOM     24  F   UNL     1       4.551   4.250  15.779  0.00  0.00    +0.000 F 
ATOM     25  F   UNL     1       4.627   6.392  15.515  0.00  0.00    +0.000 F 
BRANCH  23  26
ATOM     26  C   UNL     1       6.496   5.126  14.781  0.00  0.00    +0.000 A 
ATOM     27  N   UNL     1       7.734   5.588  14.838  0.00  0.00    +0.000 NA
ATOM     28  N   UNL     1       8.346   5.362  13.632  0.00  0.00    +0.000 NA
ATOM     29  C   UNL     1       7.495   4.710  12.878  0.00  0.00    +0.000 A 
ATOM     30  N   UNL     1       6.349   4.485  13.579  0.00  0.00    +0.000 N 
ATOM     31  C   UNL     1       5.239   3.687  13.129  0.00  0.00    +0.000 C 
ENDBRANCH  23  26
ENDBRANCH  22  23
ENDBRANCH   1  22
TORSDOF 5
ENDMDL
MODEL 6
REMARK VINA RESULT:      -9.0      0.851      1.494
REMARK  Name = 
REMARK  7 active torsions:
REMARK  status: ('A' for Active; 'I' for Inactive)
REMARK    1  A    between atoms: C_1  and  C_2
REMARK    2  A    between atoms: C_2  and  C_3
REMARK    3  A    between atoms: C_2  and  C_23
REMARK    4  A    between atoms: C_7  and  N_8
REMARK    5  A    between atoms: C_15  and  C_16
REMARK    6  A    between atoms: C_23  and  C_26
REMARK    7  A    between atoms: N_30  and  C_31
REMARK                            x       y       z     vdW  Elec       q    Type
REMARK                         _______ _______ _______ _____ _____    ______ ____
ROOT
ATOM      1  C   UNL     1       4.521   5.518  17.286  0.00  0.00    +0.000 A 
ATOM      2  C   UNL     1       4.325   4.351  18.026  0.00  0.00    +0.000 A 
ATOM      3  C   UNL     1       3.376   4.317  19.062  0.00  0.00    +0.000 A 
ATOM      4  C   UNL     1       2.618   5.458  19.396  0.00  0.00    +0.000 A 
ATOM      5  C   UNL     1       2.842   6.645  18.721  0.00  0.00    +0.000 A 
ATOM      6  C   UNL     1       3.798   6.646  17.679  0.00  0.00    +0.000 A 
ENDROOT
BRANCH   5   7
ATOM      7  N   UNL     1       2.151   7.862  18.983  0.00  0.00    +0.000 N 
ATOM      8  C   UNL     1       1.526   8.022  20.275  0.00  0.00    +0.000 C 
ATOM      9  C   UNL     1       0.977   9.391  20.258  0.00  0.00    +0.000 A 
ATOM     10  C   UNL     1       1.220   9.977  19.022  0.00  0.00    +0.000 A 
ATOM     11  C   UNL     1       0.796  11.268  18.771  0.00  0.00    +0.000 A 
ATOM     12  C   UNL     1       0.131  11.952  19.803  0.00  0.00    +0.000 A 
ATOM     13  C   UNL     1      -0.095  11.347  21.058  0.00  0.00    +0.000 A 
ATOM     14  C   UNL     1       0.332  10.041  21.310  0.00  0.00    +0.000 A 
ATOM     15  C   UNL     1       1.983   9.005  18.181  0.00  0.00    +0.000 C 
ATOM     16  O   UNL     1       2.362   9.238  17.052  0.00  0.00    +0.000 OA
BRANCH  14  17
ATOM     17  C   UNL     1       0.129   9.372  22.650  0.00  0.00    +0.000 C 
ATOM     18  F   UNL     1      -0.626   8.238  22.593  0.00  0.00    +0.000 F 
ATOM     19  F   UNL     1       1.300   9.004  23.235  0.00  0.00    +0.000 F 
ATOM     20  F   UNL     1      -0.508  10.178  23.544  0.00  0.00    +0.000 F 
ENDBRANCH  14  17
ENDBRANCH   5   7
BRANCH   1  22
ATOM     21  C   UNL     1       4.754   4.920  14.779  0.00  0.00    +0.000 C 
ATOM     22  C   UNL     1       5.394   5.567  16.028  0.00  0.00    +0.000 C 
BRANCH  22  23
ATOM     23  C   UNL     1       6.809   4.973  16.275  0.00  0.00    +0.000 C 
ATOM     24  F   UNL     1       6.735   3.612  16.157  0.00  0.00    +0.000 F 
ATOM     25  F   UNL     1       7.619   5.357  15.241  0.00  0.00    +0.000 F 
BRANCH  23  26
ATOM     26  C   UNL     1       7.405   5.344  17.604  0.00  0.00    +0.000 A 
ATOM     27  N   UNL     1       7.755   4.521  18.578  0.00  0.00    +0.000 NA
ATOM     28  N   UNL     1       8.084   5.259  19.685  0.00  0.00    +0.000 NA
ATOM     29  C   UNL     1       7.990   6.524  19.353  0.00  0.00    +0.000 A 
ATOM     30  N   UNL     1       7.631   6.623  18.043  0.00  0.00    +0.000 N 
ATOM     31  C   UNL     1       7.558   7.846  17.289  0.00  0.00    +0.000 C 
ENDBRANCH  23  26
ENDBRANCH  22  23
ENDBRANCH   1  22
TORSDOF 5
ENDMDL
MODEL 7
REMARK VINA RESULT:      -8.9      2.970      8.627
REMARK  Name = 
REMARK  7 active torsions:
REMARK  status: ('A' for Active; 'I' for Inactive)
REMARK    1  A    between atoms: C_1  and  C_2
REMARK    2  A    between atoms: C_2  and  C_3
REMARK    3  A    between atoms: C_2  and  C_23
REMARK    4  A    between atoms: C_7  and  N_8
REMARK    5  A    between atoms: C_15  and  C_16
REMARK    6  A    between atoms: C_23  and  C_26
REMARK    7  A    between atoms: N_30  and  C_31
REMARK                            x       y       z     vdW  Elec       q    Type
REMARK                         _______ _______ _______ _____ _____    ______ ____
ROOT
ATOM      1  C   UNL     1       0.830  10.267  19.736  0.00  0.00    +0.000 A 
ATOM      2  C   UNL     1       0.696  10.379  21.121  0.00  0.00    +0.000 A 
ATOM      3  C   UNL     1       1.110   9.331  21.962  0.00  0.00    +0.000 A 
ATOM      4  C   UNL     1       1.644   8.138  21.435  0.00  0.00    +0.000 A 
ATOM      5  C   UNL     1       1.725   7.977  20.063  0.00  0.00    +0.000 A 
ATOM      6  C   UNL     1       1.308   9.050  19.243  0.00  0.00    +0.000 A 
ENDROOT
BRANCH   5   7
ATOM      7  N   UNL     1       2.230   6.812  19.418  0.00  0.00    +0.000 N 
ATOM      8  C   UNL     1       3.175   6.990  18.341  0.00  0.00    +0.000 C 
ATOM      9  C   UNL     1       3.557   5.620  17.948  0.00  0.00    +0.000 A 
ATOM     10  C   UNL     1       2.847   4.700  18.711  0.00  0.00    +0.000 A 
ATOM     11  C   UNL     1       3.042   3.345  18.520  0.00  0.00    +0.000 A 
ATOM     12  C   UNL     1       3.977   2.947  17.549  0.00  0.00    +0.000 A 
ATOM     13  C   UNL     1       4.701   3.895  16.794  0.00  0.00    +0.000 A 
ATOM     14  C   UNL     1       4.501   5.265  16.985  0.00  0.00    +0.000 A 
ATOM     15  C   UNL     1       1.983   5.451  19.672  0.00  0.00    +0.000 C 
ATOM     16  O   UNL     1       1.260   4.920  20.488  0.00  0.00    +0.000 OA
BRANCH  14  17
ATOM     17  C   UNL     1       5.277   6.306  16.212  0.00  0.00    +0.000 C 
ATOM     18  F   UNL     1       6.070   7.096  16.992  0.00  0.00    +0.000 F 
ATOM     19  F   UNL     1       6.105   5.759  15.283  0.00  0.00    +0.000 F 
ATOM     20  F   UNL     1       4.466   7.170  15.541  0.00  0.00    +0.000 F 
ENDBRANCH  14  17
ENDBRANCH   5   7
BRANCH   1  22
ATOM     21  C   UNL     1       1.547  12.628  18.961  0.00  0.00    +0.000 C 
ATOM     22  C   UNL     1       0.581  11.436  18.780  0.00  0.00    +0.000 C 
BRANCH  22  23
ATOM     23  C   UNL     1      -0.894  11.928  18.830  0.00  0.00    +0.000 C 
ATOM     24  F   UNL     1      -1.287  11.988  20.139  0.00  0.00    +0.000 F 
ATOM     25  F   UNL     1      -0.923  13.230  18.410  0.00  0.00    +0.000 F 
BRANCH  23  26
ATOM     26  C   UNL     1      -1.849  11.077  18.041  0.00  0.00    +0.000 A 
ATOM     27  N   UNL     1      -1.540  10.114  17.189  0.00  0.00    +0.000 NA
ATOM     28  N   UNL     1      -2.681   9.709  16.546  0.00  0.00    +0.000 NA
ATOM     29  C   UNL     1      -3.680  10.386  17.059  0.00  0.00    +0.000 A 
ATOM     30  N   UNL     1      -3.214  11.206  18.042  0.00  0.00    +0.000 N 
ATOM     31  C   UNL     1      -4.029  12.004  18.918  0.00  0.00    +0.000 C 
ENDBRANCH  23  26
ENDBRANCH  22  23
ENDBRANCH   1  22
TORSDOF 5
ENDMDL
MODEL 8
REMARK VINA RESULT:      -8.9      3.287      8.399
REMARK  Name = 
REMARK  7 active torsions:
REMARK  status: ('A' for Active; 'I' for Inactive)
REMARK    1  A    between atoms: C_1  and  C_2
REMARK    2  A    between atoms: C_2  and  C_3
REMARK    3  A    between atoms: C_2  and  C_23
REMARK    4  A    between atoms: C_7  and  N_8
REMARK    5  A    between atoms: C_15  and  C_16
REMARK    6  A    between atoms: C_23  and  C_26
REMARK    7  A    between atoms: N_30  and  C_31
REMARK                            x       y       z     vdW  Elec       q    Type
REMARK                         _______ _______ _______ _____ _____    ______ ____
ROOT
ATOM      1  C   UNL     1       0.539  10.375  19.942  0.00  0.00    +0.000 A 
ATOM      2  C   UNL     1       0.406  10.408  21.331  0.00  0.00    +0.000 A 
ATOM      3  C   UNL     1       0.921   9.363  22.119  0.00  0.00    +0.000 A 
ATOM      4  C   UNL     1       1.557   8.251  21.532  0.00  0.00    +0.000 A 
ATOM      5  C   UNL     1       1.641   8.164  20.154  0.00  0.00    +0.000 A 
ATOM      6  C   UNL     1       1.121   9.233  19.388  0.00  0.00    +0.000 A 
ENDROOT
BRANCH   5   7
ATOM      7  N   UNL     1       2.245   7.082  19.451  0.00  0.00    +0.000 N 
ATOM      8  C   UNL     1       1.909   5.738  19.858  0.00  0.00    +0.000 C 
ATOM      9  C   UNL     1       2.620   4.869  18.902  0.00  0.00    +0.000 A 
ATOM     10  C   UNL     1       3.362   5.649  18.023  0.00  0.00    +0.000 A 
ATOM     11  C   UNL     1       4.115   5.050  17.031  0.00  0.00    +0.000 A 
ATOM     12  C   UNL     1       4.089   3.647  16.945  0.00  0.00    +0.000 A 
ATOM     13  C   UNL     1       3.317   2.871  17.835  0.00  0.00    +0.000 A 
ATOM     14  C   UNL     1       2.559   3.477  18.840  0.00  0.00    +0.000 A 
ATOM     15  C   UNL     1       3.131   7.087  18.359  0.00  0.00    +0.000 C 
ATOM     16  O   UNL     1       3.629   8.012  17.752  0.00  0.00    +0.000 OA
BRANCH  14  17
ATOM     17  C   UNL     1       1.703   2.677  19.794  0.00  0.00    +0.000 C 
ATOM     18  F   UNL     1       1.682   1.339  19.530  0.00  0.00    +0.000 F 
ATOM     19  F   UNL     1       2.112   2.790  21.086  0.00  0.00    +0.000 F 
ATOM     20  F   UNL     1       0.397   3.063  19.773  0.00  0.00    +0.000 F 
ENDBRANCH  14  17
ENDBRANCH   5   7
BRANCH   1  22
ATOM     21  C   UNL     1       0.944  12.864  19.364  0.00  0.00    +0.000 C 
ATOM     22  C   UNL     1       0.176  11.562  19.045  0.00  0.00    +0.000 C 
BRANCH  22  23
ATOM     23  C   UNL     1      -1.355  11.832  19.025  0.00  0.00    +0.000 C 
ATOM     24  F   UNL     1      -1.864  11.539  20.260  0.00  0.00    +0.000 F 
ATOM     25  F   UNL     1      -1.548  13.181  18.894  0.00  0.00    +0.000 F 
BRANCH  23  26
ATOM     26  C   UNL     1      -2.097  11.068  17.964  0.00  0.00    +0.000 A 
ATOM     27  N   UNL     1      -1.586  10.210  17.097  0.00  0.00    +0.000 NA
ATOM     28  N   UNL     1      -2.554   9.871  16.187  0.00  0.00    +0.000 NA
ATOM     29  C   UNL     1      -3.659  10.478  16.547  0.00  0.00    +0.000 A 
ATOM     30  N   UNL     1      -3.435  11.186  17.689  0.00  0.00    +0.000 N 
ATOM     31  C   UNL     1      -4.441  11.874  18.454  0.00  0.00    +0.000 C 
ENDBRANCH  23  26
ENDBRANCH  22  23
ENDBRANCH   1  22
TORSDOF 5
ENDMDL
MODEL 9
REMARK VINA RESULT:      -8.8      1.006      1.223
REMARK  Name = 
REMARK  7 active torsions:
REMARK  status: ('A' for Active; 'I' for Inactive)
REMARK    1  A    between atoms: C_1  and  C_2
REMARK    2  A    between atoms: C_2  and  C_3
REMARK    3  A    between atoms: C_2  and  C_23
REMARK    4  A    between atoms: C_7  and  N_8
REMARK    5  A    between atoms: C_15  and  C_16
REMARK    6  A    between atoms: C_23  and  C_26
REMARK    7  A    between atoms: N_30  and  C_31
REMARK                            x       y       z     vdW  Elec       q    Type
REMARK                         _______ _______ _______ _____ _____    ______ ____
ROOT
ATOM      1  C   UNL     1       4.107   5.163  17.640  0.00  0.00    +0.000 A 
ATOM      2  C   UNL     1       4.258   4.260  18.694  0.00  0.00    +0.000 A 
ATOM      3  C   UNL     1       3.645   4.507  19.934  0.00  0.00    +0.000 A 
ATOM      4  C   UNL     1       2.888   5.674  20.156  0.00  0.00    +0.000 A 
ATOM      5  C   UNL     1       2.779   6.616  19.149  0.00  0.00    +0.000 A 
ATOM      6  C   UNL     1       3.401   6.337  17.909  0.00  0.00    +0.000 A 
ENDROOT
BRANCH   5   7
ATOM      7  N   UNL     1       2.057   7.838  19.263  0.00  0.00    +0.000 N 
ATOM      8  C   UNL     1       1.363   8.101  20.502  0.00  0.00    +0.000 C 
ATOM      9  C   UNL     1       0.794   9.452  20.333  0.00  0.00    +0.000 A 
ATOM     10  C   UNL     1       1.092   9.929  19.062  0.00  0.00    +0.000 A 
ATOM     11  C   UNL     1       0.661  11.183  18.674  0.00  0.00    +0.000 A 
ATOM     12  C   UNL     1      -0.068  11.943  19.605  0.00  0.00    +0.000 A 
ATOM     13  C   UNL     1      -0.348  11.450  20.897  0.00  0.00    +0.000 A 
ATOM     14  C   UNL     1       0.085  10.180  21.288  0.00  0.00    +0.000 A 
ATOM     15  C   UNL     1       1.913   8.900  18.353  0.00  0.00    +0.000 C 
ATOM     16  O   UNL     1       2.346   9.038  17.228  0.00  0.00    +0.000 OA
BRANCH  14  17
ATOM     17  C   UNL     1      -0.177   9.631  22.671  0.00  0.00    +0.000 C 
ATOM     18  F   UNL     1       0.955   9.325  23.368  0.00  0.00    +0.000 F 
ATOM     19  F   UNL     1      -0.868  10.499  23.457  0.00  0.00    +0.000 F 
ATOM     20  F   UNL     1      -0.901   8.478  22.647  0.00  0.00    +0.000 F 
ENDBRANCH  14  17
ENDBRANCH   5   7
BRANCH   1  22
ATOM     21  C   UNL     1       5.158   3.444  16.017  0.00  0.00    +0.000 C 
ATOM     22  C   UNL     1       4.584   4.865  16.216  0.00  0.00    +0.000 C 
BRANCH  22  23
ATOM     23  C   UNL     1       5.595   5.929  15.703  0.00  0.00    +0.000 C 
ATOM     24  F   UNL     1       6.406   5.342  14.770  0.00  0.00    +0.000 F 
ATOM     25  F   UNL     1       4.898   6.872  14.997  0.00  0.00    +0.000 F 
BRANCH  23  26
ATOM     26  C   UNL     1       6.424   6.558  16.787  0.00  0.00    +0.000 A 
ATOM     27  N   UNL     1       6.397   7.822  17.178  0.00  0.00    +0.000 NA
ATOM     28  N   UNL     1       7.426   8.034  18.059  0.00  0.00    +0.000 NA
ATOM     29  C   UNL     1       8.027   6.884  18.242  0.00  0.00    +0.000 A 
ATOM     30  N   UNL     1       7.394   5.920  17.516  0.00  0.00    +0.000 N 
ATOM     31  C   UNL     1       7.686   4.513  17.565  0.00  0.00    +0.000 C 
ENDBRANCH  23  26
ENDBRANCH  22  23
ENDBRANCH   1  22
TORSDOF 5
ENDMDL
