MODEL 1
REMARK VINA RESULT:      -8.5      0.000      0.000
REMARK  Name = 
REMARK  6 active torsions:
REMARK  status: ('A' for Active; 'I' for Inactive)
REMARK    1  A    between atoms: C_1  and  C_2
REMARK    2  A    between atoms: C_2  and  C_3
REMARK    3  A    between atoms: C_2  and  C_9
REMARK    4  A    between atoms: C_3  and  C_4
REMARK    5  A    between atoms: C_13  and  N_14
REMARK    6  A    between atoms: C_21  and  C_22
REMARK                            x       y       z     vdW  Elec       q    Type
REMARK                         _______ _______ _______ _____ _____    ______ ____
ROOT
ATOM      1  C   UNL     1       3.653   4.955  18.874  0.00  0.00    +0.000 A 
ATOM      2  C   UNL     1       3.048   3.998  19.689  0.00  0.00    +0.000 A 
ATOM      3  C   UNL     1       2.016   4.363  20.568  0.00  0.00    +0.000 A 
ATOM      4  C   UNL     1       1.566   5.689  20.648  0.00  0.00    +0.000 A 
ATOM      5  C   UNL     1       2.162   6.663  19.855  0.00  0.00    +0.000 A 
ATOM      6  C   UNL     1       3.193   6.273  18.981  0.00  0.00    +0.000 A 
ENDROOT
BRANCH   5   7
ATOM      7  N   UNL     1       1.830   8.031  19.917  0.00  0.00    +0.000 N 
ATOM      8  C   UNL     1       1.827   8.690  21.192  0.00  0.00    +0.000 C 
ATOM      9  C   UNL     1       0.920   9.839  20.956  0.00  0.00    +0.000 A 
ATOM     10  C   UNL     1       1.021  10.175  19.617  0.00  0.00    +0.000 A 
ATOM     11  C   UNL     1       0.623  11.421  19.168  0.00  0.00    +0.000 A 
ATOM     12  C   UNL     1      -0.010  12.254  20.100  0.00  0.00    +0.000 A 
ATOM     13  C   UNL     1      -0.374  11.767  21.355  0.00  0.00    +0.000 A 
ATOM     14  C   UNL     1       0.039  10.495  21.784  0.00  0.00    +0.000 A 
ATOM     15  C   UNL     1       1.417   8.918  18.914  0.00  0.00    +0.000 C 
ATOM     16  O   UNL     1       1.285   8.745  17.721  0.00  0.00    +0.000 OA
BRANCH  14  17
ATOM     17  C   UNL     1      -0.626   9.785  22.938  0.00  0.00    +0.000 C 
ATOM     18  F   UNL     1      -1.670  10.487  23.483  0.00  0.00    +0.000 F 
ATOM     19  F   UNL     1      -1.126   8.566  22.615  0.00  0.00    +0.000 F 
ATOM     20  F   UNL     1       0.234   9.596  23.978  0.00  0.00    +0.000 F 
ENDBRANCH  14  17
ENDBRANCH   5   7
BRANCH   1  22
ATOM     21  C   UNL     1       6.115   4.320  18.493  0.00  0.00    +0.000 C 
ATOM     22  C   UNL     1       4.762   4.672  17.868  0.00  0.00    +0.000 C 
BRANCH  22  23
ATOM     23  C   UNL     1       4.905   5.766  16.778  0.00  0.00    +0.000 C 
BRANCH  23  24
ATOM     24  C   UNL     1       5.917   5.436  15.728  0.00  0.00    +0.000 A 
ATOM     25  N   UNL     1       7.124   5.959  15.664  0.00  0.00    +0.000 NA
ATOM     26  N   UNL     1       7.825   5.519  14.559  0.00  0.00    +0.000 NA
ATOM     27  C   UNL     1       7.127   4.661  13.846  0.00  0.00    +0.000 A 
ATOM     28  S   UNL     1       5.582   4.293  14.483  0.00  0.00    +0.000 S 
ENDBRANCH  23  24
ENDBRANCH  22  23
ENDBRANCH   1  22
TORSDOF 5
ENDMDL
MODEL 2
REMARK VINA RESULT:      -8.1      1.390      1.822
REMARK  Name = 
REMARK  6 active torsions:
REMARK  status: ('A' for Active; 'I' for Inactive)
REMARK    1  A    between atoms: C_1  and  C_2
REMARK    2  A    between atoms: C_2  and  C_3
REMARK    3  A    between atoms: C_2  and  C_9
REMARK    4  A    between atoms: C_3  and  C_4
REMARK    5  A    between atoms: C_13  and  N_14
REMARK    6  A    between atoms: C_21  and  C_22
REMARK                            x       y       z     vdW  Elec       q    Type
REMARK                         _______ _______ _______ _____ _____    ______ ____
ROOT
ATOM      1  C   UNL     1       3.184   4.791  18.545  0.00  0.00    +0.000 A 
ATOM      2  C   UNL     1       2.909   3.908  19.590  0.00  0.00    +0.000 A 
ATOM      3  C   UNL     1       2.249   4.358  20.744  0.00  0.00    +0.000 A 
ATOM      4  C   UNL     1       1.850   5.696  20.878  0.00  0.00    +0.000 A 
ATOM      5  C   UNL     1       2.125   6.597  19.857  0.00  0.00    +0.000 A 
ATOM      6  C   UNL     1       2.786   6.124  18.709  0.00  0.00    +0.000 A 
ENDROOT
BRANCH   5   7
ATOM      7  N   UNL     1       1.831   7.973  19.930  0.00  0.00    +0.000 N 
ATOM      8  C   UNL     1       1.833   8.620  21.211  0.00  0.00    +0.000 C 
ATOM      9  C   UNL     1       0.960   9.795  20.978  0.00  0.00    +0.000 A 
ATOM     10  C   UNL     1       1.085  10.142  19.643  0.00  0.00    +0.000 A 
ATOM     11  C   UNL     1       0.726  11.403  19.202  0.00  0.00    +0.000 A 
ATOM     12  C   UNL     1       0.106  12.243  20.136  0.00  0.00    +0.000 A 
ATOM     13  C   UNL     1      -0.284  11.754  21.383  0.00  0.00    +0.000 A 
ATOM     14  C   UNL     1       0.090  10.467  21.803  0.00  0.00    +0.000 A 
ATOM     15  C   UNL     1       1.452   8.881  18.932  0.00  0.00    +0.000 C 
ATOM     16  O   UNL     1       1.328   8.723  17.735  0.00  0.00    +0.000 OA
BRANCH  14  17
ATOM     17  C   UNL     1      -0.606   9.765  22.944  0.00  0.00    +0.000 C 
ATOM     18  F   UNL     1       0.218   9.497  24.006  0.00  0.00    +0.000 F 
ATOM     19  F   UNL     1      -1.656  10.457  23.453  0.00  0.00    +0.000 F 
ATOM     20  F   UNL     1      -1.082   8.544  22.570  0.00  0.00    +0.000 F 
ENDBRANCH  14  17
ENDBRANCH   5   7
BRANCH   1  22
ATOM     21  C   UNL     1       3.124   3.368  16.404  0.00  0.00    +0.000 C 
ATOM     22  C   UNL     1       3.871   4.413  17.238  0.00  0.00    +0.000 C 
BRANCH  22  23
ATOM     23  C   UNL     1       5.368   4.042  17.410  0.00  0.00    +0.000 C 
BRANCH  23  24
ATOM     24  C   UNL     1       6.274   5.230  17.475  0.00  0.00    +0.000 A 
ATOM     25  N   UNL     1       6.589   5.986  16.443  0.00  0.00    +0.000 NA
ATOM     26  N   UNL     1       7.489   6.977  16.779  0.00  0.00    +0.000 NA
ATOM     27  C   UNL     1       7.800   6.944  18.057  0.00  0.00    +0.000 A 
ATOM     28  S   UNL     1       6.993   5.734  18.957  0.00  0.00    +0.000 S 
ENDBRANCH  23  24
ENDBRANCH  22  23
ENDBRANCH   1  22
TORSDOF 5
ENDMDL
MODEL 3
REMARK VINA RESULT:      -8.0      1.381      1.576
REMARK  Name = 
REMARK  6 active torsions:
REMARK  status: ('A' for Active; 'I' for Inactive)
REMARK    1  A    between atoms: C_1  and  C_2
REMARK    2  A    between atoms: C_2  and  C_3
REMARK    3  A    between atoms: C_2  and  C_9
REMARK    4  A    between atoms: C_3  and  C_4
REMARK    5  A    between atoms: C_13  and  N_14
REMARK    6  A    between atoms: C_21  and  C_22
REMARK                            x       y       z     vdW  Elec       q    Type
REMARK                         _______ _______ _______ _____ _____    ______ ____
ROOT
ATOM      1  C   UNL     1       2.814   4.264  18.698  0.00  0.00    +0.000 A 
ATOM      2  C   UNL     1       2.467   3.454  19.780  0.00  0.00    +0.000 A 
ATOM      3  C   UNL     1       1.864   4.010  20.919  0.00  0.00    +0.000 A 
ATOM      4  C   UNL     1       1.594   5.384  21.000  0.00  0.00    +0.000 A 
ATOM      5  C   UNL     1       1.942   6.213  19.940  0.00  0.00    +0.000 A 
ATOM      6  C   UNL     1       2.545   5.633  18.809  0.00  0.00    +0.000 A 
ENDROOT
BRANCH   5   7
ATOM      7  N   UNL     1       1.779   7.613  19.958  0.00  0.00    +0.000 N 
ATOM      8  C   UNL     1       1.817   8.303  21.215  0.00  0.00    +0.000 C 
ATOM      9  C   UNL     1       1.065   9.547  20.920  0.00  0.00    +0.000 A 
ATOM     10  C   UNL     1       1.248   9.830  19.577  0.00  0.00    +0.000 A 
ATOM     11  C   UNL     1       1.021  11.102  19.085  0.00  0.00    +0.000 A 
ATOM     12  C   UNL     1       0.465  12.031  19.974  0.00  0.00    +0.000 A 
ATOM     13  C   UNL     1       0.005  11.628  21.227  0.00  0.00    +0.000 A 
ATOM     14  C   UNL     1       0.247  10.328  21.701  0.00  0.00    +0.000 A 
ATOM     15  C   UNL     1       1.509   8.515  18.920  0.00  0.00    +0.000 C 
ATOM     16  O   UNL     1       1.394   8.325  17.727  0.00  0.00    +0.000 OA
BRANCH  14  17
ATOM     17  C   UNL     1      -0.536   9.737  22.849  0.00  0.00    +0.000 C 
ATOM     18  F   UNL     1      -1.609  10.502  23.229  0.00  0.00    +0.000 F 
ATOM     19  F   UNL     1      -1.033   8.501  22.594  0.00  0.00    +0.000 F 
ATOM     20  F   UNL     1       0.221   9.634  23.977  0.00  0.00    +0.000 F 
ENDBRANCH  14  17
ENDBRANCH   5   7
BRANCH   1  22
ATOM     21  C   UNL     1       4.158   2.416  17.518  0.00  0.00    +0.000 C 
ATOM     22  C   UNL     1       3.450   3.770  17.404  0.00  0.00    +0.000 C 
BRANCH  22  23
ATOM     23  C   UNL     1       4.350   4.827  16.712  0.00  0.00    +0.000 C 
BRANCH  23  24
ATOM     24  C   UNL     1       5.789   4.739  17.110  0.00  0.00    +0.000 A 
ATOM     25  N   UNL     1       6.749   4.272  16.338  0.00  0.00    +0.000 NA
ATOM     26  N   UNL     1       7.971   4.252  16.980  0.00  0.00    +0.000 NA
ATOM     27  C   UNL     1       7.888   4.728  18.204  0.00  0.00    +0.000 A 
ATOM     28  S   UNL     1       6.330   5.273  18.655  0.00  0.00    +0.000 S 
ENDBRANCH  23  24
ENDBRANCH  22  23
ENDBRANCH   1  22
TORSDOF 5
ENDMDL
MODEL 4
REMARK VINA RESULT:      -8.0      1.668      2.049
REMARK  Name = 
REMARK  6 active torsions:
REMARK  status: ('A' for Active; 'I' for Inactive)
REMARK    1  A    between atoms: C_1  and  C_2
REMARK    2  A    between atoms: C_2  and  C_3
REMARK    3  A    between atoms: C_2  and  C_9
REMARK    4  A    between atoms: C_3  and  C_4
REMARK    5  A    between atoms: C_13  and  N_14
REMARK    6  A    between atoms: C_21  and  C_22
REMARK                            x       y       z     vdW  Elec       q    Type
REMARK                         _______ _______ _______ _____ _____    ______ ____
ROOT
ATOM      1  C   UNL     1       2.914   4.608  18.579  0.00  0.00    +0.000 A 
ATOM      2  C   UNL     1       2.472   3.721  19.561  0.00  0.00    +0.000 A 
ATOM      3  C   UNL     1       1.757   4.193  20.673  0.00  0.00    +0.000 A 
ATOM      4  C   UNL     1       1.467   5.557  20.825  0.00  0.00    +0.000 A 
ATOM      5  C   UNL     1       1.908   6.460  19.866  0.00  0.00    +0.000 A 
ATOM      6  C   UNL     1       2.622   5.965  18.760  0.00  0.00    +0.000 A 
ENDROOT
BRANCH   5   7
ATOM      7  N   UNL     1       1.730   7.855  19.967  0.00  0.00    +0.000 N 
ATOM      8  C   UNL     1       1.762   8.469  21.264  0.00  0.00    +0.000 C 
ATOM      9  C   UNL     1       0.997   9.720  21.044  0.00  0.00    +0.000 A 
ATOM     10  C   UNL     1       1.177  10.085  19.720  0.00  0.00    +0.000 A 
ATOM     11  C   UNL     1       0.937  11.382  19.304  0.00  0.00    +0.000 A 
ATOM     12  C   UNL     1       0.372  12.251  20.247  0.00  0.00    +0.000 A 
ATOM     13  C   UNL     1      -0.084  11.769  21.474  0.00  0.00    +0.000 A 
ATOM     14  C   UNL     1       0.171  10.445  21.869  0.00  0.00    +0.000 A 
ATOM     15  C   UNL     1       1.451   8.815  18.985  0.00  0.00    +0.000 C 
ATOM     16  O   UNL     1       1.338   8.695  17.783  0.00  0.00    +0.000 OA
BRANCH  14  17
ATOM     17  C   UNL     1      -0.606   9.779  22.980  0.00  0.00    +0.000 C 
ATOM     18  F   UNL     1       0.168   9.440  24.060  0.00  0.00    +0.000 F 
ATOM     19  F   UNL     1      -1.618  10.537  23.470  0.00  0.00    +0.000 F 
ATOM     20  F   UNL     1      -1.155   8.600  22.574  0.00  0.00    +0.000 F 
ENDBRANCH  14  17
ENDBRANCH   5   7
BRANCH   1  22
ATOM     21  C   UNL     1       4.245   2.788  17.343  0.00  0.00    +0.000 C 
ATOM     22  C   UNL     1       3.676   4.209  17.320  0.00  0.00    +0.000 C 
BRANCH  22  23
ATOM     23  C   UNL     1       4.747   5.245  16.890  0.00  0.00    +0.000 C 
BRANCH  23  24
ATOM     24  C   UNL     1       5.885   5.363  17.852  0.00  0.00    +0.000 A 
ATOM     25  N   UNL     1       5.941   4.757  19.020  0.00  0.00    +0.000 NA
ATOM     26  N   UNL     1       7.079   5.089  19.727  0.00  0.00    +0.000 NA
ATOM     27  C   UNL     1       7.849   5.916  19.053  0.00  0.00    +0.000 A 
ATOM     28  S   UNL     1       7.271   6.321  17.494  0.00  0.00    +0.000 S 
ENDBRANCH  23  24
ENDBRANCH  22  23
ENDBRANCH   1  22
TORSDOF 5
ENDMDL
MODEL 5
REMARK VINA RESULT:      -7.9      0.614      1.094
REMARK  Name = 
REMARK  6 active torsions:
REMARK  status: ('A' for Active; 'I' for Inactive)
REMARK    1  A    between atoms: C_1  and  C_2
REMARK    2  A    between atoms: C_2  and  C_3
REMARK    3  A    between atoms: C_2  and  C_9
REMARK    4  A    between atoms: C_3  and  C_4
REMARK    5  A    between atoms: C_13  and  N_14
REMARK    6  A    between atoms: C_21  and  C_22
REMARK                            x       y       z     vdW  Elec       q    Type
REMARK                         _______ _______ _______ _____ _____    ______ ____
ROOT
ATOM      1  C   UNL     1       3.141   4.833  18.657  0.00  0.00    +0.000 A 
ATOM      2  C   UNL     1       2.775   3.945  19.668  0.00  0.00    +0.000 A 
ATOM      3  C   UNL     1       2.047   4.395  20.780  0.00  0.00    +0.000 A 
ATOM      4  C   UNL     1       1.668   5.740  20.903  0.00  0.00    +0.000 A 
ATOM      5  C   UNL     1       2.032   6.646  19.914  0.00  0.00    +0.000 A 
ATOM      6  C   UNL     1       2.760   6.172  18.809  0.00  0.00    +0.000 A 
ENDROOT
BRANCH   5   7
ATOM      7  N   UNL     1       1.761   8.028  19.984  0.00  0.00    +0.000 N 
ATOM      8  C   UNL     1       1.772   8.677  21.265  0.00  0.00    +0.000 C 
ATOM      9  C   UNL     1       0.921   9.867  21.027  0.00  0.00    +0.000 A 
ATOM     10  C   UNL     1       1.055  10.209  19.692  0.00  0.00    +0.000 A 
ATOM     11  C   UNL     1       0.720  11.475  19.248  0.00  0.00    +0.000 A 
ATOM     12  C   UNL     1       0.113  12.329  20.179  0.00  0.00    +0.000 A 
ATOM     13  C   UNL     1      -0.289  11.849  21.426  0.00  0.00    +0.000 A 
ATOM     14  C   UNL     1       0.062  10.556  21.849  0.00  0.00    +0.000 A 
ATOM     15  C   UNL     1       1.402   8.941  18.984  0.00  0.00    +0.000 C 
ATOM     16  O   UNL     1       1.277   8.783  17.787  0.00  0.00    +0.000 OA
BRANCH  14  17
ATOM     17  C   UNL     1      -0.650   9.868  22.989  0.00  0.00    +0.000 C 
ATOM     18  F   UNL     1       0.164   9.602  24.060  0.00  0.00    +0.000 F 
ATOM     19  F   UNL     1      -1.697  10.573  23.485  0.00  0.00    +0.000 F 
ATOM     20  F   UNL     1      -1.133   8.649  22.621  0.00  0.00    +0.000 F 
ENDBRANCH  14  17
ENDBRANCH   5   7
BRANCH   1  22
ATOM     21  C   UNL     1       3.382   3.208  16.678  0.00  0.00    +0.000 C 
ATOM     22  C   UNL     1       3.909   4.454  17.396  0.00  0.00    +0.000 C 
BRANCH  22  23
ATOM     23  C   UNL     1       5.445   4.387  17.602  0.00  0.00    +0.000 C 
BRANCH  23  24
ATOM     24  C   UNL     1       6.227   4.697  16.366  0.00  0.00    +0.000 A 
ATOM     25  N   UNL     1       7.152   5.630  16.283  0.00  0.00    +0.000 NA
ATOM     26  N   UNL     1       7.672   5.738  15.009  0.00  0.00    +0.000 NA
ATOM     27  C   UNL     1       7.134   4.864  14.185  0.00  0.00    +0.000 A 
ATOM     28  S   UNL     1       5.986   3.818  14.904  0.00  0.00    +0.000 S 
ENDBRANCH  23  24
ENDBRANCH  22  23
ENDBRANCH   1  22
TORSDOF 5
ENDMDL
MODEL 6
REMARK VINA RESULT:      -7.8      4.257      8.061
REMARK  Name = 
REMARK  6 active torsions:
REMARK  status: ('A' for Active; 'I' for Inactive)
REMARK    1  A    between atoms: C_1  and  C_2
REMARK    2  A    between atoms: C_2  and  C_3
REMARK    3  A    between atoms: C_2  and  C_9
REMARK    4  A    between atoms: C_3  and  C_4
REMARK    5  A    between atoms: C_13  and  N_14
REMARK    6  A    between atoms: C_21  and  C_22
REMARK                            x       y       z     vdW  Elec       q    Type
REMARK                         _______ _______ _______ _____ _____    ______ ____
ROOT
ATOM      1  C   UNL     1       0.787   9.749  19.433  0.00  0.00    +0.000 A 
ATOM      2  C   UNL     1       0.608   9.433  20.780  0.00  0.00    +0.000 A 
ATOM      3  C   UNL     1       1.173   8.265  21.316  0.00  0.00    +0.000 A 
ATOM      4  C   UNL     1       1.929   7.392  20.519  0.00  0.00    +0.000 A 
ATOM      5  C   UNL     1       2.110   7.680  19.172  0.00  0.00    +0.000 A 
ATOM      6  C   UNL     1       1.536   8.856  18.657  0.00  0.00    +0.000 A 
ENDROOT
BRANCH   5   7
ATOM      7  N   UNL     1       2.790   6.830  18.276  0.00  0.00    +0.000 N 
ATOM      8  C   UNL     1       2.260   5.520  18.021  0.00  0.00    +0.000 C 
ATOM      9  C   UNL     1       3.457   4.776  17.561  0.00  0.00    +0.000 A 
ATOM     10  C   UNL     1       4.301   5.689  16.951  0.00  0.00    +0.000 A 
ATOM     11  C   UNL     1       5.291   5.267  16.082  0.00  0.00    +0.000 A 
ATOM     12  C   UNL     1       5.482   3.884  15.969  0.00  0.00    +0.000 A 
ATOM     13  C   UNL     1       4.826   3.004  16.829  0.00  0.00    +0.000 A 
ATOM     14  C   UNL     1       3.828   3.460  17.705  0.00  0.00    +0.000 A 
ATOM     15  C   UNL     1       3.997   7.006  17.586  0.00  0.00    +0.000 C 
ATOM     16  O   UNL     1       4.744   7.960  17.546  0.00  0.00    +0.000 OA
BRANCH  14  17
ATOM     17  C   UNL     1       3.371   2.644  18.891  0.00  0.00    +0.000 C 
ATOM     18  F   UNL     1       2.023   2.396  18.898  0.00  0.00    +0.000 F 
ATOM     19  F   UNL     1       3.973   1.433  18.986  0.00  0.00    +0.000 F 
ATOM     20  F   UNL     1       3.601   3.292  20.068  0.00  0.00    +0.000 F 
ENDBRANCH  14  17
ENDBRANCH   5   7
BRANCH   1  22
ATOM     21  C   UNL     1       1.054  12.271  19.005  0.00  0.00    +0.000 C 
ATOM     22  C   UNL     1       0.243  10.998  18.748  0.00  0.00    +0.000 C 
BRANCH  22  23
ATOM     23  C   UNL     1      -1.272  11.227  18.992  0.00  0.00    +0.000 C 
BRANCH  23  24
ATOM     24  C   UNL     1      -2.130  10.832  17.833  0.00  0.00    +0.000 A 
ATOM     25  N   UNL     1      -1.773   9.977  16.897  0.00  0.00    +0.000 NA
ATOM     26  N   UNL     1      -2.736   9.844  15.917  0.00  0.00    +0.000 NA
ATOM     27  C   UNL     1      -3.793  10.587  16.165  0.00  0.00    +0.000 A 
ATOM     28  S   UNL     1      -3.716  11.473  17.627  0.00  0.00    +0.000 S 
ENDBRANCH  23  24
ENDBRANCH  22  23
ENDBRANCH   1  22
TORSDOF 5
ENDMDL
MODEL 7
REMARK VINA RESULT:      -7.8      4.547      8.176
REMARK  Name = 
REMARK  6 active torsions:
REMARK  status: ('A' for Active; 'I' for Inactive)
REMARK    1  A    between atoms: C_1  and  C_2
REMARK    2  A    between atoms: C_2  and  C_3
REMARK    3  A    between atoms: C_2  and  C_9
REMARK    4  A    between atoms: C_3  and  C_4
REMARK    5  A    between atoms: C_13  and  N_14
REMARK    6  A    between atoms: C_21  and  C_22
REMARK                            x       y       z     vdW  Elec       q    Type
REMARK                         _______ _______ _______ _____ _____    ______ ____
ROOT
ATOM      1  C   UNL     1       1.145   9.390  19.351  0.00  0.00    +0.000 A 
ATOM      2  C   UNL     1       0.626   9.239  20.637  0.00  0.00    +0.000 A 
ATOM      3  C   UNL     1       0.918   8.091  21.390  0.00  0.00    +0.000 A 
ATOM      4  C   UNL     1       1.735   7.074  20.876  0.00  0.00    +0.000 A 
ATOM      5  C   UNL     1       2.253   7.196  19.592  0.00  0.00    +0.000 A 
ATOM      6  C   UNL     1       1.947   8.355  18.857  0.00  0.00    +0.000 A 
ENDROOT
BRANCH   5   7
ATOM      7  N   UNL     1       3.021   6.197  18.962  0.00  0.00    +0.000 N 
ATOM      8  C   UNL     1       4.418   6.089  19.275  0.00  0.00    +0.000 C 
ATOM      9  C   UNL     1       4.962   5.403  18.079  0.00  0.00    +0.000 A 
ATOM     10  C   UNL     1       3.952   4.607  17.566  0.00  0.00    +0.000 A 
ATOM     11  C   UNL     1       4.241   3.557  16.714  0.00  0.00    +0.000 A 
ATOM     12  C   UNL     1       5.572   3.438  16.291  0.00  0.00    +0.000 A 
ATOM     13  C   UNL     1       6.501   4.438  16.579  0.00  0.00    +0.000 A 
ATOM     14  C   UNL     1       6.178   5.495  17.445  0.00  0.00    +0.000 A 
ATOM     15  C   UNL     1       2.674   5.261  17.978  0.00  0.00    +0.000 C 
ATOM     16  O   UNL     1       1.605   5.041  17.449  0.00  0.00    +0.000 OA
BRANCH  14  17
ATOM     17  C   UNL     1       6.987   6.770  17.486  0.00  0.00    +0.000 C 
ATOM     18  F   UNL     1       7.696   6.929  18.649  0.00  0.00    +0.000 F 
ATOM     19  F   UNL     1       7.892   6.876  16.482  0.00  0.00    +0.000 F 
ATOM     20  F   UNL     1       6.192   7.874  17.421  0.00  0.00    +0.000 F 
ENDBRANCH  14  17
ENDBRANCH   5   7
BRANCH   1  22
ATOM     21  C   UNL     1       2.130  11.520  18.300  0.00  0.00    +0.000 C 
ATOM     22  C   UNL     1       0.916  10.600  18.453  0.00  0.00    +0.000 C 
BRANCH  22  23
ATOM     23  C   UNL     1      -0.365  11.400  18.805  0.00  0.00    +0.000 C 
BRANCH  23  24
ATOM     24  C   UNL     1      -1.587  10.917  18.091  0.00  0.00    +0.000 A 
ATOM     25  N   UNL     1      -1.594   9.956  17.191  0.00  0.00    +0.000 NA
ATOM     26  N   UNL     1      -2.849   9.755  16.652  0.00  0.00    +0.000 NA
ATOM     27  C   UNL     1      -3.744  10.559  17.184  0.00  0.00    +0.000 A 
ATOM     28  S   UNL     1      -3.140  11.591  18.408  0.00  0.00    +0.000 S 
ENDBRANCH  23  24
ENDBRANCH  22  23
ENDBRANCH   1  22
TORSDOF 5
ENDMDL
MODEL 8
REMARK VINA RESULT:      -7.8      4.041      7.751
REMARK  Name = 
REMARK  6 active torsions:
REMARK  status: ('A' for Active; 'I' for Inactive)
REMARK    1  A    between atoms: C_1  and  C_2
REMARK    2  A    between atoms: C_2  and  C_3
REMARK    3  A    between atoms: C_2  and  C_9
REMARK    4  A    between atoms: C_3  and  C_4
REMARK    5  A    between atoms: C_13  and  N_14
REMARK    6  A    between atoms: C_21  and  C_22
REMARK                            x       y       z     vdW  Elec       q    Type
REMARK                         _______ _______ _______ _____ _____    ______ ____
ROOT
ATOM      1  C   UNL     1       0.443  10.232  19.919  0.00  0.00    +0.000 A 
ATOM      2  C   UNL     1       0.593  10.412  21.294  0.00  0.00    +0.000 A 
ATOM      3  C   UNL     1       1.206   9.422  22.077  0.00  0.00    +0.000 A 
ATOM      4  C   UNL     1       1.683   8.234  21.503  0.00  0.00    +0.000 A 
ATOM      5  C   UNL     1       1.532   8.026  20.138  0.00  0.00    +0.000 A 
ATOM      6  C   UNL     1       0.915   9.032  19.373  0.00  0.00    +0.000 A 
ENDROOT
BRANCH   5   7
ATOM      7  N   UNL     1       1.910   6.837  19.483  0.00  0.00    +0.000 N 
ATOM      8  C   UNL     1       1.240   5.612  19.819  0.00  0.00    +0.000 C 
ATOM      9  C   UNL     1       2.232   4.585  19.420  0.00  0.00    +0.000 A 
ATOM     10  C   UNL     1       2.968   5.109  18.370  0.00  0.00    +0.000 A 
ATOM     11  C   UNL     1       3.685   4.281  17.526  0.00  0.00    +0.000 A 
ATOM     12  C   UNL     1       3.741   2.925  17.872  0.00  0.00    +0.000 A 
ATOM     13  C   UNL     1       3.250   2.485  19.101  0.00  0.00    +0.000 A 
ATOM     14  C   UNL     1       2.529   3.348  19.942  0.00  0.00    +0.000 A 
ATOM     15  C   UNL     1       2.924   6.591  18.547  0.00  0.00    +0.000 C 
ATOM     16  O   UNL     1       3.707   7.355  18.022  0.00  0.00    +0.000 OA
BRANCH  14  17
ATOM     17  C   UNL     1       2.315   3.045  21.405  0.00  0.00    +0.000 C 
ATOM     18  F   UNL     1       1.048   2.608  21.693  0.00  0.00    +0.000 F 
ATOM     19  F   UNL     1       3.154   2.100  21.897  0.00  0.00    +0.000 F 
ATOM     20  F   UNL     1       2.473   4.155  22.180  0.00  0.00    +0.000 F 
ENDBRANCH  14  17
ENDBRANCH   5   7
BRANCH   1  22
ATOM     21  C   UNL     1       0.406  12.655  19.059  0.00  0.00    +0.000 C 
ATOM     22  C   UNL     1      -0.184  11.245  18.967  0.00  0.00    +0.000 C 
BRANCH  22  23
ATOM     23  C   UNL     1      -1.734  11.270  19.022  0.00  0.00    +0.000 C 
BRANCH  23  24
ATOM     24  C   UNL     1      -2.383  10.860  17.738  0.00  0.00    +0.000 A 
ATOM     25  N   UNL     1      -1.863  10.011  16.877  0.00  0.00    +0.000 NA
ATOM     26  N   UNL     1      -2.650   9.861  15.753  0.00  0.00    +0.000 NA
ATOM     27  C   UNL     1      -3.745  10.586  15.821  0.00  0.00    +0.000 A 
ATOM     28  S   UNL     1      -3.924  11.474  17.273  0.00  0.00    +0.000 S 
ENDBRANCH  23  24
ENDBRANCH  22  23
ENDBRANCH   1  22
TORSDOF 5
ENDMDL
MODEL 9
REMARK VINA RESULT:      -7.7      2.748      3.797
REMARK  Name = 
REMARK  6 active torsions:
REMARK  status: ('A' for Active; 'I' for Inactive)
REMARK    1  A    between atoms: C_1  and  C_2
REMARK    2  A    between atoms: C_2  and  C_3
REMARK    3  A    between atoms: C_2  and  C_9
REMARK    4  A    between atoms: C_3  and  C_4
REMARK    5  A    between atoms: C_13  and  N_14
REMARK    6  A    between atoms: C_21  and  C_22
REMARK                            x       y       z     vdW  Elec       q    Type
REMARK                         _______ _______ _______ _____ _____    ______ ____
ROOT
ATOM      1  C   UNL     1       2.795   6.619  18.592  0.00  0.00    +0.000 A 
ATOM      2  C   UNL     1       3.374   7.330  17.540  0.00  0.00    +0.000 A 
ATOM      3  C   UNL     1       3.102   8.696  17.371  0.00  0.00    +0.000 A 
ATOM      4  C   UNL     1       2.249   9.380  18.249  0.00  0.00    +0.000 A 
ATOM      5  C   UNL     1       1.650   8.691  19.297  0.00  0.00    +0.000 A 
ATOM      6  C   UNL     1       1.939   7.323  19.447  0.00  0.00    +0.000 A 
ENDROOT
BRANCH   5   7
ATOM      7  N   UNL     1       0.724   9.273  20.185  0.00  0.00    +0.000 N 
ATOM      8  C   UNL     1      -0.419   9.958  19.651  0.00  0.00    +0.000 C 
ATOM      9  C   UNL     1      -0.789  10.873  20.757  0.00  0.00    +0.000 A 
ATOM     10  C   UNL     1      -0.407  10.264  21.941  0.00  0.00    +0.000 A 
ATOM     11  C   UNL     1      -0.955  10.657  23.148  0.00  0.00    +0.000 A 
ATOM     12  C   UNL     1      -1.791  11.781  23.124  0.00  0.00    +0.000 A 
ATOM     13  C   UNL     1      -1.908  12.555  21.969  0.00  0.00    +0.000 A 
ATOM     14  C   UNL     1      -1.337  12.134  20.757  0.00  0.00    +0.000 A 
ATOM     15  C   UNL     1       0.734   9.369  21.583  0.00  0.00    +0.000 C 
ATOM     16  O   UNL     1       1.524   8.931  22.392  0.00  0.00    +0.000 OA
BRANCH  14  17
ATOM     17  C   UNL     1      -1.109  13.086  19.608  0.00  0.00    +0.000 C 
ATOM     18  F   UNL     1       0.213  13.238  19.278  0.00  0.00    +0.000 F 
ATOM     19  F   UNL     1      -1.738  12.722  18.463  0.00  0.00    +0.000 F 
ATOM     20  F   UNL     1      -1.529  14.348  19.906  0.00  0.00    +0.000 F 
ENDBRANCH  14  17
ENDBRANCH   5   7
BRANCH   1  22
ATOM     21  C   UNL     1       1.789   4.371  19.330  0.00  0.00    +0.000 C 
ATOM     22  C   UNL     1       3.035   5.143  18.887  0.00  0.00    +0.000 C 
BRANCH  22  23
ATOM     23  C   UNL     1       4.233   4.889  19.839  0.00  0.00    +0.000 C 
BRANCH  23  24
ATOM     24  C   UNL     1       5.557   4.873  19.143  0.00  0.00    +0.000 A 
ATOM     25  N   UNL     1       6.691   5.259  19.689  0.00  0.00    +0.000 NA
ATOM     26  N   UNL     1       7.746   5.193  18.800  0.00  0.00    +0.000 NA
ATOM     27  C   UNL     1       7.369   4.737  17.625  0.00  0.00    +0.000 A 
ATOM     28  S   UNL     1       5.713   4.314  17.521  0.00  0.00    +0.000 S 
ENDBRANCH  23  24
ENDBRANCH  22  23
ENDBRANCH   1  22
TORSDOF 5
ENDMDL
