MODEL 1
REMARK VINA RESULT:      -8.7      0.000      0.000
REMARK  Name = 
REMARK  8 active torsions:
REMARK  status: ('A' for Active; 'I' for Inactive)
REMARK    1  A    between atoms: C_1  and  C_2
REMARK    2  A    between atoms: C_2  and  C_3
REMARK    3  A    between atoms: C_2  and  C_10
REMARK    4  A    between atoms: C_3  and  C_4
REMARK    5  A    between atoms: N_8  and  C_9
REMARK    6  A    between atoms: C_14  and  N_15
REMARK    7  A    between atoms: C_16  and  C_18
REMARK    8  A    between atoms: C_20  and  C_21
REMARK                            x       y       z     vdW  Elec       q    Type
REMARK                         _______ _______ _______ _____ _____    ______ ____
ROOT
ATOM      1  N   UNL     1       2.196   6.930  18.866  0.00  0.00    +0.000 N 
ATOM      2  C   UNL     1       1.906   6.959  20.216  0.00  0.00    +0.000 C 
ATOM      3  O   UNL     1       2.094   6.055  21.026  0.00  0.00    +0.000 OA
ATOM      4  H   UNL     1       2.104   7.815  18.375  0.00  0.00    +0.000 HD
ENDROOT
BRANCH   1   9
ATOM      5  C   UNL     1       4.391   4.785  16.758  0.00  0.00    +0.000 A 
ATOM      6  C   UNL     1       3.636   3.601  16.732  0.00  0.00    +0.000 A 
ATOM      7  C   UNL     1       2.401   3.526  17.365  0.00  0.00    +0.000 A 
ATOM      8  C   UNL     1       1.912   4.622  18.065  0.00  0.00    +0.000 A 
ATOM      9  C   UNL     1       2.652   5.802  18.152  0.00  0.00    +0.000 A 
ATOM     10  C   UNL     1       3.881   5.883  17.484  0.00  0.00    +0.000 A 
BRANCH   5  12
ATOM     11  C   UNL     1       5.855   3.920  14.840  0.00  0.00    +0.000 C 
ATOM     12  C   UNL     1       5.709   4.932  15.994  0.00  0.00    +0.000 C 
BRANCH  12  13
ATOM     13  C   UNL     1       6.918   4.874  16.960  0.00  0.00    +0.000 C 
BRANCH  13  14
ATOM     14  C   UNL     1       7.351   6.226  17.418  0.00  0.00    +0.000 A 
ATOM     15  N   UNL     1       7.311   7.339  16.717  0.00  0.00    +0.000 NA
ATOM     16  N   UNL     1       7.891   8.340  17.460  0.00  0.00    +0.000 NA
ATOM     17  C   UNL     1       8.259   7.820  18.608  0.00  0.00    +0.000 A 
ATOM     18  N   UNL     1       7.907   6.510  18.643  0.00  0.00    +0.000 N 
ATOM     19  C   UNL     1       8.081   5.614  19.753  0.00  0.00    +0.000 C 
ENDBRANCH  13  14
ENDBRANCH  12  13
ENDBRANCH   5  12
ENDBRANCH   1   9
BRANCH   2  20
ATOM     20  C   UNL     1       1.345   8.245  20.719  0.00  0.00    +0.000 A 
ATOM     21  C   UNL     1       1.116   9.244  19.788  0.00  0.00    +0.000 A 
ATOM     22  C   UNL     1       0.508  10.417  20.204  0.00  0.00    +0.000 A 
ATOM     23  C   UNL     1       0.253  10.592  21.564  0.00  0.00    +0.000 A 
ATOM     24  C   UNL     1       0.566   9.554  22.435  0.00  0.00    +0.000 A 
ATOM     25  N   UNL     1       1.084   8.366  22.046  0.00  0.00    +0.000 NA
BRANCH  22  26
ATOM     26  C   UNL     1       0.255  11.525  19.244  0.00  0.00    +0.000 C 
ATOM     27  O   UNL     1      -0.454  11.279  18.271  0.00  0.00    +0.000 OA
ATOM     28  N   UNL     1       0.793  12.786  19.481  0.00  0.00    +0.000 N 
ATOM     29  C   UNL     1       0.327  13.940  18.735  0.00  0.00    +0.000 C 
ATOM     30  C   UNL     1       1.569  14.788  18.545  0.00  0.00    +0.000 C 
ATOM     31  C   UNL     1       2.411  14.452  19.764  0.00  0.00    +0.000 C 
ATOM     32  C   UNL     1       3.940  14.567  19.610  0.00  0.00    +0.000 C 
ATOM     33  O   UNL     1       4.038  15.165  20.933  0.00  0.00    +0.000 OA
ATOM     34  C   UNL     1       2.632  15.536  20.847  0.00  0.00    +0.000 C 
ATOM     35  C   UNL     1       1.935  13.115  20.328  0.00  0.00    +0.000 C 
ENDBRANCH  22  26
ENDBRANCH   2  20
TORSDOF 6
ENDMDL
MODEL 2
REMARK VINA RESULT:      -8.7      2.023      2.819
REMARK  Name = 
REMARK  8 active torsions:
REMARK  status: ('A' for Active; 'I' for Inactive)
REMARK    1  A    between atoms: C_1  and  C_2
REMARK    2  A    between atoms: C_2  and  C_3
REMARK    3  A    between atoms: C_2  and  C_10
REMARK    4  A    between atoms: C_3  and  C_4
REMARK    5  A    between atoms: N_8  and  C_9
REMARK    6  A    between atoms: C_14  and  N_15
REMARK    7  A    between atoms: C_16  and  C_18
REMARK    8  A    between atoms: C_20  and  C_21
REMARK                            x       y       z     vdW  Elec       q    Type
REMARK                         _______ _______ _______ _____ _____    ______ ____
ROOT
ATOM      1  N   UNL     1       2.531   6.723  20.147  0.00  0.00    +0.000 N 
ATOM      2  C   UNL     1       1.897   7.798  19.555  0.00  0.00    +0.000 C 
ATOM      3  O   UNL     1       1.786   8.011  18.350  0.00  0.00    +0.000 OA
ATOM      4  H   UNL     1       2.404   6.635  21.152  0.00  0.00    +0.000 HD
ENDROOT
BRANCH   1   9
ATOM      5  C   UNL     1       4.804   5.171  17.640  0.00  0.00    +0.000 A 
ATOM      6  C   UNL     1       4.785   3.837  18.075  0.00  0.00    +0.000 A 
ATOM      7  C   UNL     1       4.000   3.447  19.155  0.00  0.00    +0.000 A 
ATOM      8  C   UNL     1       3.245   4.389  19.840  0.00  0.00    +0.000 A 
ATOM      9  C   UNL     1       3.272   5.735  19.467  0.00  0.00    +0.000 A 
ATOM     10  C   UNL     1       4.039   6.115  18.357  0.00  0.00    +0.000 A 
BRANCH   5  12
ATOM     11  C   UNL     1       5.027   6.908  15.769  0.00  0.00    +0.000 C 
ATOM     12  C   UNL     1       5.583   5.616  16.399  0.00  0.00    +0.000 C 
BRANCH  12  13
ATOM     13  C   UNL     1       5.675   4.468  15.364  0.00  0.00    +0.000 C 
BRANCH  13  14
ATOM     14  C   UNL     1       6.689   4.733  14.303  0.00  0.00    +0.000 A 
ATOM     15  N   UNL     1       7.740   5.519  14.404  0.00  0.00    +0.000 NA
ATOM     16  N   UNL     1       8.362   5.571  13.179  0.00  0.00    +0.000 NA
ATOM     17  C   UNL     1       7.686   4.801  12.358  0.00  0.00    +0.000 A 
ATOM     18  N   UNL     1       6.655   4.225  13.026  0.00  0.00    +0.000 N 
ATOM     19  C   UNL     1       5.725   3.269  12.490  0.00  0.00    +0.000 C 
ENDBRANCH  13  14
ENDBRANCH  12  13
ENDBRANCH   5  12
ENDBRANCH   1   9
BRANCH   2  20
ATOM     20  C   UNL     1       1.259   8.759  20.498  0.00  0.00    +0.000 A 
ATOM     21  C   UNL     1       0.622   9.858  19.948  0.00  0.00    +0.000 A 
ATOM     22  C   UNL     1      -0.062  10.723  20.786  0.00  0.00    +0.000 A 
ATOM     23  C   UNL     1       0.012  10.516  22.164  0.00  0.00    +0.000 A 
ATOM     24  C   UNL     1       0.720   9.414  22.630  0.00  0.00    +0.000 A 
ATOM     25  N   UNL     1       1.329   8.508  21.830  0.00  0.00    +0.000 NA
BRANCH  22  26
ATOM     26  C   UNL     1      -0.749  11.925  20.244  0.00  0.00    +0.000 C 
ATOM     27  O   UNL     1      -1.935  11.811  19.942  0.00  0.00    +0.000 OA
ATOM     28  N   UNL     1      -0.055  13.125  20.118  0.00  0.00    +0.000 N 
ATOM     29  C   UNL     1      -0.765  14.367  19.877  0.00  0.00    +0.000 C 
ATOM     30  C   UNL     1       0.154  15.152  18.962  0.00  0.00    +0.000 C 
ATOM     31  C   UNL     1       1.537  14.657  19.350  0.00  0.00    +0.000 C 
ATOM     32  C   UNL     1       2.623  14.691  18.257  0.00  0.00    +0.000 C 
ATOM     33  O   UNL     1       3.600  15.162  19.228  0.00  0.00    +0.000 OA
ATOM     34  C   UNL     1       2.507  15.624  20.072  0.00  0.00    +0.000 C 
ATOM     35  C   UNL     1       1.391  13.307  20.048  0.00  0.00    +0.000 C 
ENDBRANCH  22  26
ENDBRANCH   2  20
TORSDOF 6
ENDMDL
MODEL 3
REMARK VINA RESULT:      -8.7      3.090      4.330
REMARK  Name = 
REMARK  8 active torsions:
REMARK  status: ('A' for Active; 'I' for Inactive)
REMARK    1  A    between atoms: C_1  and  C_2
REMARK    2  A    between atoms: C_2  and  C_3
REMARK    3  A    between atoms: C_2  and  C_10
REMARK    4  A    between atoms: C_3  and  C_4
REMARK    5  A    between atoms: N_8  and  C_9
REMARK    6  A    between atoms: C_14  and  N_15
REMARK    7  A    between atoms: C_16  and  C_18
REMARK    8  A    between atoms: C_20  and  C_21
REMARK                            x       y       z     vdW  Elec       q    Type
REMARK                         _______ _______ _______ _____ _____    ______ ____
ROOT
ATOM      1  N   UNL     1       2.155   8.549  18.180  0.00  0.00    +0.000 N 
ATOM      2  C   UNL     1       1.394   9.068  19.209  0.00  0.00    +0.000 C 
ATOM      3  O   UNL     1       1.263   8.595  20.335  0.00  0.00    +0.000 OA
ATOM      4  H   UNL     1       2.259   9.145  17.364  0.00  0.00    +0.000 HD
ENDROOT
BRANCH   1   9
ATOM      5  C   UNL     1       4.527   5.842  17.227  0.00  0.00    +0.000 A 
ATOM      6  C   UNL     1       4.220   4.882  18.205  0.00  0.00    +0.000 A 
ATOM      7  C   UNL     1       3.215   5.108  19.139  0.00  0.00    +0.000 A 
ATOM      8  C   UNL     1       2.521   6.311  19.134  0.00  0.00    +0.000 A 
ATOM      9  C   UNL     1       2.827   7.309  18.207  0.00  0.00    +0.000 A 
ATOM     10  C   UNL     1       3.818   7.062  17.247  0.00  0.00    +0.000 A 
BRANCH   5  12
ATOM     11  C   UNL     1       5.190   4.404  15.211  0.00  0.00    +0.000 C 
ATOM     12  C   UNL     1       5.561   5.587  16.127  0.00  0.00    +0.000 C 
BRANCH  12  13
ATOM     13  C   UNL     1       6.978   5.422  16.729  0.00  0.00    +0.000 C 
BRANCH  13  14
ATOM     14  C   UNL     1       7.455   6.654  17.420  0.00  0.00    +0.000 A 
ATOM     15  N   UNL     1       7.439   7.878  16.937  0.00  0.00    +0.000 NA
ATOM     16  N   UNL     1       8.057   8.710  17.841  0.00  0.00    +0.000 NA
ATOM     17  C   UNL     1       8.423   7.977  18.867  0.00  0.00    +0.000 A 
ATOM     18  N   UNL     1       8.034   6.693  18.667  0.00  0.00    +0.000 N 
ATOM     19  C   UNL     1       8.196   5.603  19.590  0.00  0.00    +0.000 C 
ENDBRANCH  13  14
ENDBRANCH  12  13
ENDBRANCH   5  12
ENDBRANCH   1   9
BRANCH   2  20
ATOM     20  C   UNL     1       0.703  10.352  18.904  0.00  0.00    +0.000 A 
ATOM     21  C   UNL     1      -0.530  10.277  18.279  0.00  0.00    +0.000 A 
ATOM     22  C   UNL     1      -1.243  11.444  18.065  0.00  0.00    +0.000 A 
ATOM     23  C   UNL     1      -0.643  12.662  18.386  0.00  0.00    +0.000 A 
ATOM     24  C   UNL     1       0.622  12.645  18.963  0.00  0.00    +0.000 A 
ATOM     25  N   UNL     1       1.306  11.516  19.258  0.00  0.00    +0.000 NA
BRANCH  22  26
ATOM     26  C   UNL     1      -2.565  11.415  17.383  0.00  0.00    +0.000 C 
ATOM     27  O   UNL     1      -2.570  11.227  16.169  0.00  0.00    +0.000 OA
ATOM     28  N   UNL     1      -3.733  11.575  18.123  0.00  0.00    +0.000 N 
ATOM     29  C   UNL     1      -5.024  11.260  17.542  0.00  0.00    +0.000 C 
ATOM     30  C   UNL     1      -5.961  12.297  18.129  0.00  0.00    +0.000 C 
ATOM     31  C   UNL     1      -5.335  12.608  19.478  0.00  0.00    +0.000 C 
ATOM     32  C   UNL     1      -5.578  14.017  20.052  0.00  0.00    +0.000 C 
ATOM     33  O   UNL     1      -5.773  13.454  21.379  0.00  0.00    +0.000 OA
ATOM     34  C   UNL     1      -6.071  12.167  20.767  0.00  0.00    +0.000 C 
ATOM     35  C   UNL     1      -3.868  12.188  19.440  0.00  0.00    +0.000 C 
ENDBRANCH  22  26
ENDBRANCH   2  20
TORSDOF 6
ENDMDL
MODEL 4
REMARK VINA RESULT:      -8.4      3.075      9.545
REMARK  Name = 
REMARK  8 active torsions:
REMARK  status: ('A' for Active; 'I' for Inactive)
REMARK    1  A    between atoms: C_1  and  C_2
REMARK    2  A    between atoms: C_2  and  C_3
REMARK    3  A    between atoms: C_2  and  C_10
REMARK    4  A    between atoms: C_3  and  C_4
REMARK    5  A    between atoms: N_8  and  C_9
REMARK    6  A    between atoms: C_14  and  N_15
REMARK    7  A    between atoms: C_16  and  C_18
REMARK    8  A    between atoms: C_20  and  C_21
REMARK                            x       y       z     vdW  Elec       q    Type
REMARK                         _______ _______ _______ _____ _____    ______ ____
ROOT
ATOM      1  N   UNL     1       1.997   7.281  20.646  0.00  0.00    +0.000 N 
ATOM      2  C   UNL     1       1.497   5.998  20.541  0.00  0.00    +0.000 C 
ATOM      3  O   UNL     1       0.317   5.662  20.609  0.00  0.00    +0.000 OA
ATOM      4  H   UNL     1       2.983   7.389  20.426  0.00  0.00    +0.000 HD
ENDROOT
BRANCH   1   9
ATOM      5  C   UNL     1       0.041  10.417  20.195  0.00  0.00    +0.000 A 
ATOM      6  C   UNL     1      -0.275  10.710  21.531  0.00  0.00    +0.000 A 
ATOM      7  C   UNL     1       0.186   9.908  22.569  0.00  0.00    +0.000 A 
ATOM      8  C   UNL     1       0.944   8.779  22.289  0.00  0.00    +0.000 A 
ATOM      9  C   UNL     1       1.243   8.427  20.970  0.00  0.00    +0.000 A 
ATOM     10  C   UNL     1       0.803   9.259  19.931  0.00  0.00    +0.000 A 
BRANCH   5  12
ATOM     11  C   UNL     1       0.581  12.526  18.843  0.00  0.00    +0.000 C 
ATOM     12  C   UNL     1      -0.371  11.330  19.037  0.00  0.00    +0.000 C 
BRANCH  12  13
ATOM     13  C   UNL     1      -1.842  11.789  19.192  0.00  0.00    +0.000 C 
BRANCH  13  14
ATOM     14  C   UNL     1      -2.669  11.479  17.990  0.00  0.00    +0.000 A 
ATOM     15  N   UNL     1      -2.235  10.994  16.846  0.00  0.00    +0.000 NA
ATOM     16  N   UNL     1      -3.291  10.947  15.967  0.00  0.00    +0.000 NA
ATOM     17  C   UNL     1      -4.353  11.390  16.599  0.00  0.00    +0.000 A 
ATOM     18  N   UNL     1      -4.021  11.697  17.878  0.00  0.00    +0.000 N 
ATOM     19  C   UNL     1      -4.922  12.152  18.902  0.00  0.00    +0.000 C 
ENDBRANCH  13  14
ENDBRANCH  12  13
ENDBRANCH   5  12
ENDBRANCH   1   9
BRANCH   2  20
ATOM     20  C   UNL     1       2.512   4.938  20.283  0.00  0.00    +0.000 A 
ATOM     21  C   UNL     1       3.734   5.341  19.773  0.00  0.00    +0.000 A 
ATOM     22  C   UNL     1       4.734   4.397  19.608  0.00  0.00    +0.000 A 
ATOM     23  C   UNL     1       4.435   3.057  19.857  0.00  0.00    +0.000 A 
ATOM     24  C   UNL     1       3.162   2.737  20.316  0.00  0.00    +0.000 A 
ATOM     25  N   UNL     1       2.193   3.649  20.564  0.00  0.00    +0.000 NA
BRANCH  22  26
ATOM     26  C   UNL     1       6.058   4.780  19.050  0.00  0.00    +0.000 C 
ATOM     27  O   UNL     1       6.859   5.317  19.811  0.00  0.00    +0.000 OA
ATOM     28  N   UNL     1       6.357   4.504  17.719  0.00  0.00    +0.000 N 
ATOM     29  C   UNL     1       7.721   4.593  17.234  0.00  0.00    +0.000 C 
ATOM     30  C   UNL     1       7.582   5.122  15.821  0.00  0.00    +0.000 C 
ATOM     31  C   UNL     1       6.224   4.600  15.385  0.00  0.00    +0.000 C 
ATOM     32  C   UNL     1       5.457   5.433  14.340  0.00  0.00    +0.000 C 
ATOM     33  O   UNL     1       5.044   4.216  13.658  0.00  0.00    +0.000 OA
ATOM     34  C   UNL     1       6.154   3.512  14.285  0.00  0.00    +0.000 C 
ATOM     35  C   UNL     1       5.413   4.258  16.633  0.00  0.00    +0.000 C 
ENDBRANCH  22  26
ENDBRANCH   2  20
TORSDOF 6
ENDMDL
MODEL 5
REMARK VINA RESULT:      -8.4      3.291      4.757
REMARK  Name = 
REMARK  8 active torsions:
REMARK  status: ('A' for Active; 'I' for Inactive)
REMARK    1  A    between atoms: C_1  and  C_2
REMARK    2  A    between atoms: C_2  and  C_3
REMARK    3  A    between atoms: C_2  and  C_10
REMARK    4  A    between atoms: C_3  and  C_4
REMARK    5  A    between atoms: N_8  and  C_9
REMARK    6  A    between atoms: C_14  and  N_15
REMARK    7  A    between atoms: C_16  and  C_18
REMARK    8  A    between atoms: C_20  and  C_21
REMARK                            x       y       z     vdW  Elec       q    Type
REMARK                         _______ _______ _______ _____ _____    ______ ____
ROOT
ATOM      1  N   UNL     1       1.578   8.232  19.839  0.00  0.00    +0.000 N 
ATOM      2  C   UNL     1       0.973   8.921  20.872  0.00  0.00    +0.000 C 
ATOM      3  O   UNL     1       0.952   8.595  22.057  0.00  0.00    +0.000 OA
ATOM      4  H   UNL     1       1.615   8.719  18.947  0.00  0.00    +0.000 HD
ENDROOT
BRANCH   1   9
ATOM      5  C   UNL     1       4.054   5.493  19.370  0.00  0.00    +0.000 A 
ATOM      6  C   UNL     1       3.450   4.475  20.126  0.00  0.00    +0.000 A 
ATOM      7  C   UNL     1       2.222   4.677  20.746  0.00  0.00    +0.000 A 
ATOM      8  C   UNL     1       1.591   5.910  20.650  0.00  0.00    +0.000 A 
ATOM      9  C   UNL     1       2.181   6.962  19.945  0.00  0.00    +0.000 A 
ATOM     10  C   UNL     1       3.402   6.741  19.295  0.00  0.00    +0.000 A 
BRANCH   5  12
ATOM     11  C   UNL     1       6.607   5.305  19.500  0.00  0.00    +0.000 C 
ATOM     12  C   UNL     1       5.358   5.274  18.598  0.00  0.00    +0.000 C 
BRANCH  12  13
ATOM     13  C   UNL     1       5.477   6.274  17.421  0.00  0.00    +0.000 C 
BRANCH  13  14
ATOM     14  C   UNL     1       6.255   5.720  16.275  0.00  0.00    +0.000 A 
ATOM     15  N   UNL     1       7.432   6.135  15.855  0.00  0.00    +0.000 NA
ATOM     16  N   UNL     1       7.757   5.434  14.717  0.00  0.00    +0.000 NA
ATOM     17  C   UNL     1       6.778   4.594  14.475  0.00  0.00    +0.000 A 
ATOM     18  N   UNL     1       5.835   4.708  15.444  0.00  0.00    +0.000 N 
ATOM     19  C   UNL     1       4.643   3.915  15.566  0.00  0.00    +0.000 C 
ENDBRANCH  13  14
ENDBRANCH  12  13
ENDBRANCH   5  12
ENDBRANCH   1   9
BRANCH   2  20
ATOM     20  C   UNL     1       0.321  10.204  20.487  0.00  0.00    +0.000 A 
ATOM     21  C   UNL     1       0.193  11.170  21.470  0.00  0.00    +0.000 A 
ATOM     22  C   UNL     1      -0.322  12.409  21.127  0.00  0.00    +0.000 A 
ATOM     23  C   UNL     1      -0.797  12.598  19.828  0.00  0.00    +0.000 A 
ATOM     24  C   UNL     1      -0.677  11.552  18.921  0.00  0.00    +0.000 A 
ATOM     25  N   UNL     1      -0.103  10.360  19.207  0.00  0.00    +0.000 NA
BRANCH  22  26
ATOM     26  C   UNL     1      -0.493  13.474  22.151  0.00  0.00    +0.000 C 
ATOM     27  O   UNL     1       0.510  14.099  22.489  0.00  0.00    +0.000 OA
ATOM     28  N   UNL     1      -1.756  13.745  22.668  0.00  0.00    +0.000 N 
ATOM     29  C   UNL     1      -1.998  14.953  23.433  0.00  0.00    +0.000 C 
ATOM     30  C   UNL     1      -2.994  14.531  24.494  0.00  0.00    +0.000 C 
ATOM     31  C   UNL     1      -3.761  13.404  23.824  0.00  0.00    +0.000 C 
ATOM     32  C   UNL     1      -4.355  12.320  24.743  0.00  0.00    +0.000 C 
ATOM     33  O   UNL     1      -5.573  12.297  23.947  0.00  0.00    +0.000 OA
ATOM     34  C   UNL     1      -5.247  13.626  23.449  0.00  0.00    +0.000 C 
ATOM     35  C   UNL     1      -2.917  12.860  22.674  0.00  0.00    +0.000 C 
ENDBRANCH  22  26
ENDBRANCH   2  20
TORSDOF 6
ENDMDL
MODEL 6
REMARK VINA RESULT:      -8.4      3.317      4.812
REMARK  Name = 
REMARK  8 active torsions:
REMARK  status: ('A' for Active; 'I' for Inactive)
REMARK    1  A    between atoms: C_1  and  C_2
REMARK    2  A    between atoms: C_2  and  C_3
REMARK    3  A    between atoms: C_2  and  C_10
REMARK    4  A    between atoms: C_3  and  C_4
REMARK    5  A    between atoms: N_8  and  C_9
REMARK    6  A    between atoms: C_14  and  N_15
REMARK    7  A    between atoms: C_16  and  C_18
REMARK    8  A    between atoms: C_20  and  C_21
REMARK                            x       y       z     vdW  Elec       q    Type
REMARK                         _______ _______ _______ _____ _____    ______ ____
ROOT
ATOM      1  N   UNL     1       1.470   8.342  19.924  0.00  0.00    +0.000 N 
ATOM      2  C   UNL     1       1.155   9.142  21.005  0.00  0.00    +0.000 C 
ATOM      3  O   UNL     1       1.402   8.911  22.186  0.00  0.00    +0.000 OA
ATOM      4  H   UNL     1       1.315   8.756  19.009  0.00  0.00    +0.000 HD
ENDROOT
BRANCH   1   9
ATOM      5  C   UNL     1       3.841   5.527  19.365  0.00  0.00    +0.000 A 
ATOM      6  C   UNL     1       3.216   4.519  20.117  0.00  0.00    +0.000 A 
ATOM      7  C   UNL     1       2.007   4.753  20.764  0.00  0.00    +0.000 A 
ATOM      8  C   UNL     1       1.418   6.009  20.699  0.00  0.00    +0.000 A 
ATOM      9  C   UNL     1       2.030   7.051  19.999  0.00  0.00    +0.000 A 
ATOM     10  C   UNL     1       3.231   6.798  19.322  0.00  0.00    +0.000 A 
BRANCH   5  12
ATOM     11  C   UNL     1       6.397   5.355  19.426  0.00  0.00    +0.000 C 
ATOM     12  C   UNL     1       5.121   5.276  18.565  0.00  0.00    +0.000 C 
BRANCH  12  13
ATOM     13  C   UNL     1       5.200   6.218  17.338  0.00  0.00    +0.000 C 
BRANCH  13  14
ATOM     14  C   UNL     1       6.087   5.688  16.264  0.00  0.00    +0.000 A 
ATOM     15  N   UNL     1       7.279   6.141  15.938  0.00  0.00    +0.000 NA
ATOM     16  N   UNL     1       7.721   5.448  14.836  0.00  0.00    +0.000 NA
ATOM     17  C   UNL     1       6.794   4.573  14.520  0.00  0.00    +0.000 A 
ATOM     18  N   UNL     1       5.771   4.659  15.408  0.00  0.00    +0.000 N 
ATOM     19  C   UNL     1       4.601   3.825  15.437  0.00  0.00    +0.000 C 
ENDBRANCH  13  14
ENDBRANCH  12  13
ENDBRANCH   5  12
ENDBRANCH   1   9
BRANCH   2  20
ATOM     20  C   UNL     1       0.481  10.429  20.670  0.00  0.00    +0.000 A 
ATOM     21  C   UNL     1      -0.508  10.393  19.702  0.00  0.00    +0.000 A 
ATOM     22  C   UNL     1      -1.221  11.550  19.432  0.00  0.00    +0.000 A 
ATOM     23  C   UNL     1      -0.838  12.733  20.066  0.00  0.00    +0.000 A 
ATOM     24  C   UNL     1       0.203  12.685  20.985  0.00  0.00    +0.000 A 
ATOM     25  N   UNL     1       0.862  11.553  21.328  0.00  0.00    +0.000 NA
BRANCH  22  26
ATOM     26  C   UNL     1      -2.282  11.566  18.391  0.00  0.00    +0.000 C 
ATOM     27  O   UNL     1      -1.931  11.402  17.224  0.00  0.00    +0.000 OA
ATOM     28  N   UNL     1      -3.614  11.736  18.757  0.00  0.00    +0.000 N 
ATOM     29  C   UNL     1      -4.680  11.463  17.814  0.00  0.00    +0.000 C 
ATOM     30  C   UNL     1      -5.733  12.508  18.125  0.00  0.00    +0.000 C 
ATOM     31  C   UNL     1      -5.529  12.777  19.606  0.00  0.00    +0.000 C 
ATOM     32  C   UNL     1      -5.908  14.179  20.121  0.00  0.00    +0.000 C 
ATOM     33  O   UNL     1      -6.495  13.593  21.316  0.00  0.00    +0.000 OA
ATOM     34  C   UNL     1      -6.619  12.326  20.609  0.00  0.00    +0.000 C 
ATOM     35  C   UNL     1      -4.122  12.325  19.992  0.00  0.00    +0.000 C 
ENDBRANCH  22  26
ENDBRANCH   2  20
TORSDOF 6
ENDMDL
MODEL 7
REMARK VINA RESULT:      -8.4      4.141      6.683
REMARK  Name = 
REMARK  8 active torsions:
REMARK  status: ('A' for Active; 'I' for Inactive)
REMARK    1  A    between atoms: C_1  and  C_2
REMARK    2  A    between atoms: C_2  and  C_3
REMARK    3  A    between atoms: C_2  and  C_10
REMARK    4  A    between atoms: C_3  and  C_4
REMARK    5  A    between atoms: N_8  and  C_9
REMARK    6  A    between atoms: C_14  and  N_15
REMARK    7  A    between atoms: C_16  and  C_18
REMARK    8  A    between atoms: C_20  and  C_21
REMARK                            x       y       z     vdW  Elec       q    Type
REMARK                         _______ _______ _______ _____ _____    ______ ____
ROOT
ATOM      1  N   UNL     1       0.252  10.662  20.565  0.00  0.00    +0.000 N 
ATOM      2  C   UNL     1       0.548  12.008  20.657  0.00  0.00    +0.000 C 
ATOM      3  O   UNL     1       1.378  12.624  19.992  0.00  0.00    +0.000 OA
ATOM      4  H   UNL     1      -0.559  10.352  21.093  0.00  0.00    +0.000 HD
ENDROOT
BRANCH   1   9
ATOM      5  C   UNL     1       2.025   7.537  19.590  0.00  0.00    +0.000 A 
ATOM      6  C   UNL     1       2.294   7.811  18.239  0.00  0.00    +0.000 A 
ATOM      7  C   UNL     1       1.933   9.028  17.670  0.00  0.00    +0.000 A 
ATOM      8  C   UNL     1       1.266   9.979  18.431  0.00  0.00    +0.000 A 
ATOM      9  C   UNL     1       0.940   9.727  19.765  0.00  0.00    +0.000 A 
ATOM     10  C   UNL     1       1.337   8.513  20.342  0.00  0.00    +0.000 A 
BRANCH   5  12
ATOM     11  C   UNL     1       3.665   5.569  19.540  0.00  0.00    +0.000 C 
ATOM     12  C   UNL     1       2.491   6.248  20.271  0.00  0.00    +0.000 C 
BRANCH  12  13
ATOM     13  C   UNL     1       1.306   5.273  20.480  0.00  0.00    +0.000 C 
BRANCH  13  14
ATOM     14  C   UNL     1       1.456   4.013  19.697  0.00  0.00    +0.000 A 
ATOM     15  N   UNL     1       1.227   3.859  18.410  0.00  0.00    +0.000 NA
ATOM     16  N   UNL     1       1.384   2.529  18.098  0.00  0.00    +0.000 NA
ATOM     17  C   UNL     1       1.724   1.901  19.199  0.00  0.00    +0.000 A 
ATOM     18  N   UNL     1       1.819   2.793  20.217  0.00  0.00    +0.000 N 
ATOM     19  C   UNL     1       2.229   2.503  21.564  0.00  0.00    +0.000 C 
ENDBRANCH  13  14
ENDBRANCH  12  13
ENDBRANCH   5  12
ENDBRANCH   1   9
BRANCH   2  20
ATOM     20  C   UNL     1      -0.263  12.772  21.646  0.00  0.00    +0.000 A 
ATOM     21  C   UNL     1      -1.551  12.327  21.889  0.00  0.00    +0.000 A 
ATOM     22  C   UNL     1      -2.302  12.955  22.869  0.00  0.00    +0.000 A 
ATOM     23  C   UNL     1      -1.772  14.083  23.496  0.00  0.00    +0.000 A 
ATOM     24  C   UNL     1      -0.489  14.491  23.150  0.00  0.00    +0.000 A 
ATOM     25  N   UNL     1       0.297  13.848  22.255  0.00  0.00    +0.000 NA
BRANCH  22  26
ATOM     26  C   UNL     1      -3.695  12.522  23.156  0.00  0.00    +0.000 C 
ATOM     27  O   UNL     1      -3.891  11.897  24.196  0.00  0.00    +0.000 OA
ATOM     28  N   UNL     1      -4.720  12.849  22.273  0.00  0.00    +0.000 N 
ATOM     29  C   UNL     1      -6.109  12.702  22.665  0.00  0.00    +0.000 C 
ATOM     30  C   UNL     1      -6.811  12.257  21.398  0.00  0.00    +0.000 C 
ATOM     31  C   UNL     1      -5.972  12.883  20.297  0.00  0.00    +0.000 C 
ATOM     32  C   UNL     1      -5.944  12.155  18.939  0.00  0.00    +0.000 C 
ATOM     33  O   UNL     1      -6.030  13.428  18.242  0.00  0.00    +0.000 OA
ATOM     34  C   UNL     1      -6.578  14.030  19.450  0.00  0.00    +0.000 C 
ATOM     35  C   UNL     1      -4.592  13.208  20.864  0.00  0.00    +0.000 C 
ENDBRANCH  22  26
ENDBRANCH   2  20
TORSDOF 6
ENDMDL
MODEL 8
REMARK VINA RESULT:      -8.3      3.236      4.784
REMARK  Name = 
REMARK  8 active torsions:
REMARK  status: ('A' for Active; 'I' for Inactive)
REMARK    1  A    between atoms: C_1  and  C_2
REMARK    2  A    between atoms: C_2  and  C_3
REMARK    3  A    between atoms: C_2  and  C_10
REMARK    4  A    between atoms: C_3  and  C_4
REMARK    5  A    between atoms: N_8  and  C_9
REMARK    6  A    between atoms: C_14  and  N_15
REMARK    7  A    between atoms: C_16  and  C_18
REMARK    8  A    between atoms: C_20  and  C_21
REMARK                            x       y       z     vdW  Elec       q    Type
REMARK                         _______ _______ _______ _____ _____    ______ ____
ROOT
ATOM      1  N   UNL     1       1.453   8.361  19.106  0.00  0.00    +0.000 N 
ATOM      2  C   UNL     1       1.058   9.318  20.020  0.00  0.00    +0.000 C 
ATOM      3  O   UNL     1       1.161   9.253  21.242  0.00  0.00    +0.000 OA
ATOM      4  H   UNL     1       1.420   8.642  18.130  0.00  0.00    +0.000 HD
ENDROOT
BRANCH   1   9
ATOM      5  C   UNL     1       3.100   5.048  18.694  0.00  0.00    +0.000 A 
ATOM      6  C   UNL     1       2.953   4.530  19.991  0.00  0.00    +0.000 A 
ATOM      7  C   UNL     1       2.282   5.247  20.976  0.00  0.00    +0.000 A 
ATOM      8  C   UNL     1       1.775   6.509  20.692  0.00  0.00    +0.000 A 
ATOM      9  C   UNL     1       1.940   7.078  19.427  0.00  0.00    +0.000 A 
ATOM     10  C   UNL     1       2.587   6.336  18.430  0.00  0.00    +0.000 A 
BRANCH   5  12
ATOM     11  C   UNL     1       2.809   3.186  16.957  0.00  0.00    +0.000 C 
ATOM     12  C   UNL     1       3.749   4.246  17.563  0.00  0.00    +0.000 C 
BRANCH  12  13
ATOM     13  C   UNL     1       5.090   3.624  18.025  0.00  0.00    +0.000 C 
BRANCH  13  14
ATOM     14  C   UNL     1       6.158   4.646  18.224  0.00  0.00    +0.000 A 
ATOM     15  N   UNL     1       6.640   5.059  19.377  0.00  0.00    +0.000 NA
ATOM     16  N   UNL     1       7.534   6.076  19.134  0.00  0.00    +0.000 NA
ATOM     17  C   UNL     1       7.590   6.251  17.834  0.00  0.00    +0.000 A 
ATOM     18  N   UNL     1       6.777   5.354  17.221  0.00  0.00    +0.000 N 
ATOM     19  C   UNL     1       6.615   5.187  15.803  0.00  0.00    +0.000 C 
ENDBRANCH  13  14
ENDBRANCH  12  13
ENDBRANCH   5  12
ENDBRANCH   1   9
BRANCH   2  20
ATOM     20  C   UNL     1       0.487  10.562  19.432  0.00  0.00    +0.000 A 
ATOM     21  C   UNL     1      -0.678  10.438  18.694  0.00  0.00    +0.000 A 
ATOM     22  C   UNL     1      -1.289  11.584  18.212  0.00  0.00    +0.000 A 
ATOM     23  C   UNL     1      -0.647  12.810  18.392  0.00  0.00    +0.000 A 
ATOM     24  C   UNL     1       0.549  12.833  19.100  0.00  0.00    +0.000 A 
ATOM     25  N   UNL     1       1.125  11.740  19.652  0.00  0.00    +0.000 NA
BRANCH  22  26
ATOM     26  C   UNL     1      -2.534  11.501  17.402  0.00  0.00    +0.000 C 
ATOM     27  O   UNL     1      -2.410  11.332  16.191  0.00  0.00    +0.000 OA
ATOM     28  N   UNL     1      -3.776  11.589  18.023  0.00  0.00    +0.000 N 
ATOM     29  C   UNL     1      -4.985  11.220  17.314  0.00  0.00    +0.000 C 
ATOM     30  C   UNL     1      -6.028  12.199  17.816  0.00  0.00    +0.000 C 
ATOM     31  C   UNL     1      -5.555  12.519  19.224  0.00  0.00    +0.000 C 
ATOM     32  C   UNL     1      -5.925  13.905  19.787  0.00  0.00    +0.000 C 
ATOM     33  O   UNL     1      -6.221  13.311  21.082  0.00  0.00    +0.000 OA
ATOM     34  C   UNL     1      -6.391  12.021  20.429  0.00  0.00    +0.000 C 
ATOM     35  C   UNL     1      -4.071  12.174  19.327  0.00  0.00    +0.000 C 
ENDBRANCH  22  26
ENDBRANCH   2  20
TORSDOF 6
ENDMDL
MODEL 9
REMARK VINA RESULT:      -8.3      1.459      1.699
REMARK  Name = 
REMARK  8 active torsions:
REMARK  status: ('A' for Active; 'I' for Inactive)
REMARK    1  A    between atoms: C_1  and  C_2
REMARK    2  A    between atoms: C_2  and  C_3
REMARK    3  A    between atoms: C_2  and  C_10
REMARK    4  A    between atoms: C_3  and  C_4
REMARK    5  A    between atoms: N_8  and  C_9
REMARK    6  A    between atoms: C_14  and  N_15
REMARK    7  A    between atoms: C_16  and  C_18
REMARK    8  A    between atoms: C_20  and  C_21
REMARK                            x       y       z     vdW  Elec       q    Type
REMARK                         _______ _______ _______ _____ _____    ______ ____
ROOT
ATOM      1  N   UNL     1       1.536   6.665  20.971  0.00  0.00    +0.000 N 
ATOM      2  C   UNL     1       1.516   7.901  20.356  0.00  0.00    +0.000 C 
ATOM      3  O   UNL     1       2.000   8.184  19.262  0.00  0.00    +0.000 OA
ATOM      4  H   UNL     1       0.965   6.580  21.808  0.00  0.00    +0.000 HD
ENDROOT
BRANCH   1   9
ATOM      5  C   UNL     1       3.717   4.545  18.824  0.00  0.00    +0.000 A 
ATOM      6  C   UNL     1       3.640   3.325  19.514  0.00  0.00    +0.000 A 
ATOM      7  C   UNL     1       2.846   3.193  20.648  0.00  0.00    +0.000 A 
ATOM      8  C   UNL     1       2.140   4.286  21.132  0.00  0.00    +0.000 A 
ATOM      9  C   UNL     1       2.225   5.529  20.501  0.00  0.00    +0.000 A 
ATOM     10  C   UNL     1       3.001   5.647  19.339  0.00  0.00    +0.000 A 
BRANCH   5  12
ATOM     11  C   UNL     1       4.051   3.722  16.420  0.00  0.00    +0.000 C 
ATOM     12  C   UNL     1       4.506   4.700  17.521  0.00  0.00    +0.000 C 
BRANCH  12  13
ATOM     13  C   UNL     1       6.029   4.599  17.783  0.00  0.00    +0.000 C 
BRANCH  13  14
ATOM     14  C   UNL     1       6.708   5.926  17.737  0.00  0.00    +0.000 A 
ATOM     15  N   UNL     1       6.541   6.859  16.824  0.00  0.00    +0.000 NA
ATOM     16  N   UNL     1       7.420   7.884  17.086  0.00  0.00    +0.000 NA
ATOM     17  C   UNL     1       8.095   7.561  18.164  0.00  0.00    +0.000 A 
ATOM     18  N   UNL     1       7.658   6.364  18.630  0.00  0.00    +0.000 N 
ATOM     19  C   UNL     1       8.105   5.704  19.825  0.00  0.00    +0.000 C 
ENDBRANCH  13  14
ENDBRANCH  12  13
ENDBRANCH   5  12
ENDBRANCH   1   9
BRANCH   2  20
ATOM     20  C   UNL     1       0.794   8.971  21.099  0.00  0.00    +0.000 A 
ATOM     21  C   UNL     1       0.327  10.048  20.366  0.00  0.00    +0.000 A 
ATOM     22  C   UNL     1      -0.430  11.016  21.007  0.00  0.00    +0.000 A 
ATOM     23  C   UNL     1      -0.597  10.925  22.389  0.00  0.00    +0.000 A 
ATOM     24  C   UNL     1      -0.045   9.835  23.053  0.00  0.00    +0.000 A 
ATOM     25  N   UNL     1       0.628   8.834  22.440  0.00  0.00    +0.000 NA
BRANCH  22  26
ATOM     26  C   UNL     1      -0.941  12.199  20.265  0.00  0.00    +0.000 C 
ATOM     27  O   UNL     1      -2.082  12.133  19.814  0.00  0.00    +0.000 OA
ATOM     28  N   UNL     1      -0.143  13.330  20.126  0.00  0.00    +0.000 N 
ATOM     29  C   UNL     1      -0.712  14.585  19.674  0.00  0.00    +0.000 C 
ATOM     30  C   UNL     1       0.379  15.208  18.826  0.00  0.00    +0.000 C 
ATOM     31  C   UNL     1       1.655  14.664  19.446  0.00  0.00    +0.000 C 
ATOM     32  C   UNL     1       2.874  14.513  18.516  0.00  0.00    +0.000 C 
ATOM     33  O   UNL     1       3.749  15.015  19.564  0.00  0.00    +0.000 OA
ATOM     34  C   UNL     1       2.596  15.634  20.202  0.00  0.00    +0.000 C 
ATOM     35  C   UNL     1       1.310  13.406  20.240  0.00  0.00    +0.000 C 
ENDBRANCH  22  26
ENDBRANCH   2  20
TORSDOF 6
ENDMDL
