MODEL 1
REMARK VINA RESULT:      -8.9      0.000      0.000
REMARK  Name = 
REMARK  11 active torsions:
REMARK  status: ('A' for Active; 'I' for Inactive)
REMARK    1  A    between atoms: C_1  and  C_2
REMARK    2  A    between atoms: C_2  and  N_3
REMARK    3  A    between atoms: C_7  and  C_8
REMARK    4  A    between atoms: C_8  and  C_9
REMARK    5  A    between atoms: C_9  and  C_10
REMARK    6  A    between atoms: C_9  and  C_11
REMARK    7  A    between atoms: C_15  and  N_16
REMARK    8  A    between atoms: C_17  and  C_19
REMARK    9  A    between atoms: C_21  and  C_22
REMARK   10  A    between atoms: C_26  and  O_27
REMARK   11  A    between atoms: C_29  and  C_30
REMARK                            x       y       z     vdW  Elec       q    Type
REMARK                         _______ _______ _______ _____ _____    ______ ____
ROOT
ATOM      1  N   UNL     1       2.132   6.506  19.839  0.00  0.00    +0.000 N 
ATOM      2  C   UNL     1       1.929   7.796  19.384  0.00  0.00    +0.000 C 
ATOM      3  O   UNL     1       2.092   8.194  18.231  0.00  0.00    +0.000 OA
ATOM      4  H   UNL     1       1.835   6.320  20.784  0.00  0.00    +0.000 HD
ENDROOT
BRANCH   1   9
ATOM      5  C   UNL     1       4.349   4.709  17.427  0.00  0.00    +0.000 A 
ATOM      6  C   UNL     1       3.749   3.443  17.423  0.00  0.00    +0.000 A 
ATOM      7  C   UNL     1       2.656   3.174  18.241  0.00  0.00    +0.000 A 
ATOM      8  C   UNL     1       2.130   4.172  19.051  0.00  0.00    +0.000 A 
ATOM      9  C   UNL     1       2.686   5.451  19.077  0.00  0.00    +0.000 A 
ATOM     10  C   UNL     1       3.810   5.706  18.273  0.00  0.00    +0.000 A 
BRANCH   5  11
ATOM     11  C   UNL     1       5.492   5.062  16.465  0.00  0.00    +0.000 C 
ATOM     12  C   UNL     1       5.181   6.439  15.861  0.00  0.00    +0.000 C 
BRANCH  11  13
ATOM     13  C   UNL     1       5.753   4.005  15.358  0.00  0.00    +0.000 C 
BRANCH  13  18
ATOM     14  N   UNL     1       6.522   4.155  12.908  0.00  0.00    +0.000 N 
ATOM     15  C   UNL     1       7.570   4.775  12.288  0.00  0.00    +0.000 A 
ATOM     16  N   UNL     1       8.246   5.479  13.160  0.00  0.00    +0.000 NA
ATOM     17  N   UNL     1       7.649   5.307  14.382  0.00  0.00    +0.000 NA
ATOM     18  C   UNL     1       6.615   4.499  14.237  0.00  0.00    +0.000 A 
BRANCH  14  20
ATOM     19  C   UNL     1       6.136   2.101  11.583  0.00  0.00    +0.000 C 
ATOM     20  C   UNL     1       5.539   3.352  12.214  0.00  0.00    +0.000 C 
ENDBRANCH  14  20
ENDBRANCH  13  18
ENDBRANCH  11  13
ENDBRANCH   5  11
ENDBRANCH   1   9
BRANCH   2  21
ATOM     21  C   UNL     1       1.385   8.759  20.390  0.00  0.00    +0.000 A 
ATOM     22  C   UNL     1       0.783   9.911  19.912  0.00  0.00    +0.000 A 
ATOM     23  C   UNL     1      -0.005  10.658  20.766  0.00  0.00    +0.000 A 
ATOM     24  C   UNL     1       0.037  10.364  22.128  0.00  0.00    +0.000 A 
ATOM     25  C   UNL     1       0.786   9.268  22.542  0.00  0.00    +0.000 A 
ATOM     26  N   UNL     1       1.421   8.418  21.699  0.00  0.00    +0.000 NA
BRANCH  23  27
ATOM     27  C   UNL     1      -0.786  11.808  20.242  0.00  0.00    +0.000 C 
ATOM     28  O   UNL     1      -1.943  11.580  19.892  0.00  0.00    +0.000 OA
ATOM     29  N   UNL     1      -0.216  13.093  20.208  0.00  0.00    +0.000 N 
ATOM     30  C   UNL     1      -1.095  14.212  19.896  0.00  0.00    +0.000 C 
ATOM     31  C   UNL     1      -0.414  14.963  18.759  0.00  0.00    +0.000 C 
ATOM     32  C   UNL     1       1.067  14.719  18.984  0.00  0.00    +0.000 C 
ATOM     33  C   UNL     1       1.170  13.412  19.789  0.00  0.00    +0.000 C 
ATOM     34  C   UNL     1       2.164  13.684  20.921  0.00  0.00    +0.000 C 
BRANCH  31  35
ATOM     35  O   UNL     1      -0.693  16.358  18.789  0.00  0.00    +0.000 OA
ATOM     36  H   UNL     1      -1.619  16.480  19.052  0.00  0.00    +0.000 HD
ENDBRANCH  31  35
ENDBRANCH  23  27
ENDBRANCH   2  21
TORSDOF 8
ENDMDL
MODEL 2
REMARK VINA RESULT:      -8.8      2.526      3.871
REMARK  Name = 
REMARK  11 active torsions:
REMARK  status: ('A' for Active; 'I' for Inactive)
REMARK    1  A    between atoms: C_1  and  C_2
REMARK    2  A    between atoms: C_2  and  N_3
REMARK    3  A    between atoms: C_7  and  C_8
REMARK    4  A    between atoms: C_8  and  C_9
REMARK    5  A    between atoms: C_9  and  C_10
REMARK    6  A    between atoms: C_9  and  C_11
REMARK    7  A    between atoms: C_15  and  N_16
REMARK    8  A    between atoms: C_17  and  C_19
REMARK    9  A    between atoms: C_21  and  C_22
REMARK   10  A    between atoms: C_26  and  O_27
REMARK   11  A    between atoms: C_29  and  C_30
REMARK                            x       y       z     vdW  Elec       q    Type
REMARK                         _______ _______ _______ _____ _____    ______ ____
ROOT
ATOM      1  N   UNL     1       2.386   6.488  19.350  0.00  0.00    +0.000 N 
ATOM      2  C   UNL     1       2.021   7.758  18.941  0.00  0.00    +0.000 C 
ATOM      3  O   UNL     1       2.039   8.181  17.786  0.00  0.00    +0.000 OA
ATOM      4  H   UNL     1       2.197   6.265  20.315  0.00  0.00    +0.000 HD
ENDROOT
BRANCH   1   9
ATOM      5  C   UNL     1       4.565   4.930  16.745  0.00  0.00    +0.000 A 
ATOM      6  C   UNL     1       4.059   3.624  16.737  0.00  0.00    +0.000 A 
ATOM      7  C   UNL     1       3.046   3.250  17.614  0.00  0.00    +0.000 A 
ATOM      8  C   UNL     1       2.503   4.183  18.487  0.00  0.00    +0.000 A 
ATOM      9  C   UNL     1       2.964   5.499  18.520  0.00  0.00    +0.000 A 
ATOM     10  C   UNL     1       4.012   5.860  17.656  0.00  0.00    +0.000 A 
BRANCH   5  11
ATOM     11  C   UNL     1       5.613   5.395  15.724  0.00  0.00    +0.000 C 
ATOM     12  C   UNL     1       5.227   4.805  14.361  0.00  0.00    +0.000 C 
BRANCH  11  13
ATOM     13  C   UNL     1       7.078   5.043  16.098  0.00  0.00    +0.000 C 
BRANCH  13  18
ATOM     14  N   UNL     1       7.682   6.635  18.027  0.00  0.00    +0.000 N 
ATOM     15  C   UNL     1       8.069   6.438  19.322  0.00  0.00    +0.000 A 
ATOM     16  N   UNL     1       8.040   5.160  19.602  0.00  0.00    +0.000 NA
ATOM     17  N   UNL     1       7.648   4.496  18.469  0.00  0.00    +0.000 NA
ATOM     18  C   UNL     1       7.442   5.381  17.512  0.00  0.00    +0.000 A 
BRANCH  14  20
ATOM     19  C   UNL     1       8.345   9.017  18.139  0.00  0.00    +0.000 C 
ATOM     20  C   UNL     1       7.541   7.941  17.420  0.00  0.00    +0.000 C 
ENDBRANCH  14  20
ENDBRANCH  13  18
ENDBRANCH  11  13
ENDBRANCH   5  11
ENDBRANCH   1   9
BRANCH   2  21
ATOM     21  C   UNL     1       1.484   8.653  20.011  0.00  0.00    +0.000 A 
ATOM     22  C   UNL     1       0.602   9.650  19.628  0.00  0.00    +0.000 A 
ATOM     23  C   UNL     1      -0.156  10.280  20.595  0.00  0.00    +0.000 A 
ATOM     24  C   UNL     1       0.173  10.067  21.933  0.00  0.00    +0.000 A 
ATOM     25  C   UNL     1       1.176   9.150  22.226  0.00  0.00    +0.000 A 
ATOM     26  N   UNL     1       1.807   8.391  21.299  0.00  0.00    +0.000 NA
BRANCH  23  27
ATOM     27  C   UNL     1      -1.219  11.240  20.199  0.00  0.00    +0.000 C 
ATOM     28  O   UNL     1      -1.521  12.103  21.022  0.00  0.00    +0.000 OA
ATOM     29  N   UNL     1      -1.796  11.167  18.919  0.00  0.00    +0.000 N 
ATOM     30  C   UNL     1      -2.666  12.262  18.509  0.00  0.00    +0.000 C 
ATOM     31  C   UNL     1      -3.958  11.605  18.041  0.00  0.00    +0.000 C 
ATOM     32  C   UNL     1      -3.518  10.252  17.511  0.00  0.00    +0.000 C 
ATOM     33  C   UNL     1      -2.192   9.923  18.220  0.00  0.00    +0.000 C 
ATOM     34  C   UNL     1      -1.234   9.434  17.130  0.00  0.00    +0.000 C 
BRANCH  31  35
ATOM     35  O   UNL     1      -4.602  12.350  17.015  0.00  0.00    +0.000 OA
ATOM     36  H   UNL     1      -3.995  12.422  16.261  0.00  0.00    +0.000 HD
ENDBRANCH  31  35
ENDBRANCH  23  27
ENDBRANCH   2  21
TORSDOF 8
ENDMDL
MODEL 3
REMARK VINA RESULT:      -8.8      2.338      4.040
REMARK  Name = 
REMARK  11 active torsions:
REMARK  status: ('A' for Active; 'I' for Inactive)
REMARK    1  A    between atoms: C_1  and  C_2
REMARK    2  A    between atoms: C_2  and  N_3
REMARK    3  A    between atoms: C_7  and  C_8
REMARK    4  A    between atoms: C_8  and  C_9
REMARK    5  A    between atoms: C_9  and  C_10
REMARK    6  A    between atoms: C_9  and  C_11
REMARK    7  A    between atoms: C_15  and  N_16
REMARK    8  A    between atoms: C_17  and  C_19
REMARK    9  A    between atoms: C_21  and  C_22
REMARK   10  A    between atoms: C_26  and  O_27
REMARK   11  A    between atoms: C_29  and  C_30
REMARK                            x       y       z     vdW  Elec       q    Type
REMARK                         _______ _______ _______ _____ _____    ______ ____
ROOT
ATOM      1  N   UNL     1       1.719   8.621  19.484  0.00  0.00    +0.000 N 
ATOM      2  C   UNL     1       1.906   9.322  18.306  0.00  0.00    +0.000 C 
ATOM      3  O   UNL     1       2.225   8.843  17.219  0.00  0.00    +0.000 OA
ATOM      4  H   UNL     1       1.341   9.149  20.255  0.00  0.00    +0.000 HD
ENDROOT
BRANCH   1   9
ATOM      5  C   UNL     1       2.888   5.150  18.748  0.00  0.00    +0.000 A 
ATOM      6  C   UNL     1       2.425   4.478  19.887  0.00  0.00    +0.000 A 
ATOM      7  C   UNL     1       1.779   5.171  20.905  0.00  0.00    +0.000 A 
ATOM      8  C   UNL     1       1.559   6.537  20.787  0.00  0.00    +0.000 A 
ATOM      9  C   UNL     1       1.988   7.245  19.664  0.00  0.00    +0.000 A 
ATOM     10  C   UNL     1       2.671   6.544  18.655  0.00  0.00    +0.000 A 
BRANCH   5  11
ATOM     11  C   UNL     1       3.516   4.396  17.567  0.00  0.00    +0.000 C 
ATOM     12  C   UNL     1       2.473   3.398  17.046  0.00  0.00    +0.000 C 
BRANCH  11  13
ATOM     13  C   UNL     1       4.860   3.691  17.894  0.00  0.00    +0.000 C 
BRANCH  13  18
ATOM     14  N   UNL     1       6.691   5.487  17.685  0.00  0.00    +0.000 N 
ATOM     15  C   UNL     1       7.572   6.037  18.571  0.00  0.00    +0.000 A 
ATOM     16  N   UNL     1       7.345   5.567  19.771  0.00  0.00    +0.000 NA
ATOM     17  N   UNL     1       6.309   4.675  19.676  0.00  0.00    +0.000 NA
ATOM     18  C   UNL     1       5.918   4.614  18.417  0.00  0.00    +0.000 A 
BRANCH  14  20
ATOM     19  C   UNL     1       7.166   4.749  15.371  0.00  0.00    +0.000 C 
ATOM     20  C   UNL     1       6.630   5.845  16.284  0.00  0.00    +0.000 C 
ENDBRANCH  14  20
ENDBRANCH  13  18
ENDBRANCH  11  13
ENDBRANCH   5  11
ENDBRANCH   1   9
BRANCH   2  21
ATOM     21  C   UNL     1       1.610  10.787  18.370  0.00  0.00    +0.000 A 
ATOM     22  C   UNL     1       0.384  11.169  18.887  0.00  0.00    +0.000 A 
ATOM     23  C   UNL     1       0.197  12.485  19.260  0.00  0.00    +0.000 A 
ATOM     24  C   UNL     1       1.154  13.423  18.872  0.00  0.00    +0.000 A 
ATOM     25  C   UNL     1       2.296  12.967  18.224  0.00  0.00    +0.000 A 
ATOM     26  N   UNL     1       2.579  11.660  18.010  0.00  0.00    +0.000 NA
BRANCH  23  27
ATOM     27  C   UNL     1      -1.049  12.891  19.961  0.00  0.00    +0.000 C 
ATOM     28  O   UNL     1      -1.608  13.909  19.554  0.00  0.00    +0.000 OA
ATOM     29  N   UNL     1      -1.564  12.099  21.002  0.00  0.00    +0.000 N 
ATOM     30  C   UNL     1      -2.896  12.423  21.499  0.00  0.00    +0.000 C 
ATOM     31  C   UNL     1      -2.748  12.555  23.009  0.00  0.00    +0.000 C 
ATOM     32  C   UNL     1      -1.610  11.611  23.357  0.00  0.00    +0.000 C 
ATOM     33  C   UNL     1      -0.768  11.463  22.078  0.00  0.00    +0.000 C 
ATOM     34  C   UNL     1      -0.501   9.964  21.914  0.00  0.00    +0.000 C 
BRANCH  31  35
ATOM     35  O   UNL     1      -3.930  12.176  23.703  0.00  0.00    +0.000 OA
ATOM     36  H   UNL     1      -4.036  11.214  23.627  0.00  0.00    +0.000 HD
ENDBRANCH  31  35
ENDBRANCH  23  27
ENDBRANCH   2  21
TORSDOF 8
ENDMDL
MODEL 4
REMARK VINA RESULT:      -8.8      1.292      1.536
REMARK  Name = 
REMARK  11 active torsions:
REMARK  status: ('A' for Active; 'I' for Inactive)
REMARK    1  A    between atoms: C_1  and  C_2
REMARK    2  A    between atoms: C_2  and  N_3
REMARK    3  A    between atoms: C_7  and  C_8
REMARK    4  A    between atoms: C_8  and  C_9
REMARK    5  A    between atoms: C_9  and  C_10
REMARK    6  A    between atoms: C_9  and  C_11
REMARK    7  A    between atoms: C_15  and  N_16
REMARK    8  A    between atoms: C_17  and  C_19
REMARK    9  A    between atoms: C_21  and  C_22
REMARK   10  A    between atoms: C_26  and  O_27
REMARK   11  A    between atoms: C_29  and  C_30
REMARK                            x       y       z     vdW  Elec       q    Type
REMARK                         _______ _______ _______ _____ _____    ______ ____
ROOT
ATOM      1  N   UNL     1       2.158   7.493  19.434  0.00  0.00    +0.000 N 
ATOM      2  C   UNL     1       1.641   8.594  18.777  0.00  0.00    +0.000 C 
ATOM      3  O   UNL     1       1.444   8.690  17.566  0.00  0.00    +0.000 OA
ATOM      4  H   UNL     1       2.141   7.533  20.441  0.00  0.00    +0.000 HD
ENDROOT
BRANCH   1   9
ATOM      5  C   UNL     1       4.296   5.332  17.261  0.00  0.00    +0.000 A 
ATOM      6  C   UNL     1       3.645   4.101  17.406  0.00  0.00    +0.000 A 
ATOM      7  C   UNL     1       2.544   3.975  18.246  0.00  0.00    +0.000 A 
ATOM      8  C   UNL     1       2.060   5.083  18.929  0.00  0.00    +0.000 A 
ATOM      9  C   UNL     1       2.667   6.333  18.805  0.00  0.00    +0.000 A 
ATOM     10  C   UNL     1       3.800   6.444  17.981  0.00  0.00    +0.000 A 
BRANCH   5  11
ATOM     11  C   UNL     1       5.451   5.521  16.268  0.00  0.00    +0.000 C 
ATOM     12  C   UNL     1       5.143   6.770  15.431  0.00  0.00    +0.000 C 
BRANCH  11  13
ATOM     13  C   UNL     1       5.734   4.290  15.365  0.00  0.00    +0.000 C 
BRANCH  13  18
ATOM     14  N   UNL     1       6.410   4.072  12.892  0.00  0.00    +0.000 N 
ATOM     15  C   UNL     1       7.441   4.575  12.153  0.00  0.00    +0.000 A 
ATOM     16  N   UNL     1       8.160   5.384  12.889  0.00  0.00    +0.000 NA
ATOM     17  N   UNL     1       7.609   5.401  14.144  0.00  0.00    +0.000 NA
ATOM     18  C   UNL     1       6.559   4.602  14.154  0.00  0.00    +0.000 A 
BRANCH  14  20
ATOM     19  C   UNL     1       5.962   2.067  11.513  0.00  0.00    +0.000 C 
ATOM     20  C   UNL     1       5.388   3.197  12.358  0.00  0.00    +0.000 C 
ENDBRANCH  14  20
ENDBRANCH  13  18
ENDBRANCH  11  13
ENDBRANCH   5  11
ENDBRANCH   1   9
BRANCH   2  21
ATOM     21  C   UNL     1       1.217   9.731  19.651  0.00  0.00    +0.000 A 
ATOM     22  C   UNL     1       1.238  11.002  19.103  0.00  0.00    +0.000 A 
ATOM     23  C   UNL     1       0.563  12.019  19.748  0.00  0.00    +0.000 A 
ATOM     24  C   UNL     1       0.102  11.787  21.043  0.00  0.00    +0.000 A 
ATOM     25  C   UNL     1       0.251  10.511  21.575  0.00  0.00    +0.000 A 
ATOM     26  N   UNL     1       0.749   9.454  20.891  0.00  0.00    +0.000 NA
BRANCH  23  27
ATOM     27  C   UNL     1       0.437  13.353  19.106  0.00  0.00    +0.000 C 
ATOM     28  O   UNL     1      -0.481  13.495  18.298  0.00  0.00    +0.000 OA
ATOM     29  N   UNL     1       1.310  14.395  19.462  0.00  0.00    +0.000 N 
ATOM     30  C   UNL     1       1.002  15.731  18.968  0.00  0.00    +0.000 C 
ATOM     31  C   UNL     1       2.278  16.226  18.300  0.00  0.00    +0.000 C 
ATOM     32  C   UNL     1       3.393  15.532  19.064  0.00  0.00    +0.000 C 
ATOM     33  C   UNL     1       2.771  14.263  19.674  0.00  0.00    +0.000 C 
ATOM     34  C   UNL     1       3.233  14.219  21.132  0.00  0.00    +0.000 C 
BRANCH  31  35
ATOM     35  O   UNL     1       2.424  17.638  18.392  0.00  0.00    +0.000 OA
ATOM     36  H   UNL     1       3.283  17.883  18.014  0.00  0.00    +0.000 HD
ENDBRANCH  31  35
ENDBRANCH  23  27
ENDBRANCH   2  21
TORSDOF 8
ENDMDL
MODEL 5
REMARK VINA RESULT:      -8.8      3.070      4.560
REMARK  Name = 
REMARK  11 active torsions:
REMARK  status: ('A' for Active; 'I' for Inactive)
REMARK    1  A    between atoms: C_1  and  C_2
REMARK    2  A    between atoms: C_2  and  N_3
REMARK    3  A    between atoms: C_7  and  C_8
REMARK    4  A    between atoms: C_8  and  C_9
REMARK    5  A    between atoms: C_9  and  C_10
REMARK    6  A    between atoms: C_9  and  C_11
REMARK    7  A    between atoms: C_15  and  N_16
REMARK    8  A    between atoms: C_17  and  C_19
REMARK    9  A    between atoms: C_21  and  C_22
REMARK   10  A    between atoms: C_26  and  O_27
REMARK   11  A    between atoms: C_29  and  C_30
REMARK                            x       y       z     vdW  Elec       q    Type
REMARK                         _______ _______ _______ _____ _____    ______ ____
ROOT
ATOM      1  N   UNL     1       2.402   8.318  17.652  0.00  0.00    +0.000 N 
ATOM      2  C   UNL     1       1.809   8.852  18.782  0.00  0.00    +0.000 C 
ATOM      3  O   UNL     1       1.762   8.326  19.894  0.00  0.00    +0.000 OA
ATOM      4  H   UNL     1       2.458   8.932  16.854  0.00  0.00    +0.000 HD
ENDROOT
BRANCH   1   9
ATOM      5  C   UNL     1       4.668   5.533  16.620  0.00  0.00    +0.000 A 
ATOM      6  C   UNL     1       4.005   4.440  17.192  0.00  0.00    +0.000 A 
ATOM      7  C   UNL     1       2.852   4.625  17.948  0.00  0.00    +0.000 A 
ATOM      8  C   UNL     1       2.329   5.900  18.117  0.00  0.00    +0.000 A 
ATOM      9  C   UNL     1       2.946   7.017  17.554  0.00  0.00    +0.000 A 
ATOM     10  C   UNL     1       4.130   6.825  16.821  0.00  0.00    +0.000 A 
BRANCH   5  11
ATOM     11  C   UNL     1       5.884   5.348  15.702  0.00  0.00    +0.000 C 
ATOM     12  C   UNL     1       5.440   4.489  14.511  0.00  0.00    +0.000 C 
BRANCH  11  13
ATOM     13  C   UNL     1       7.133   4.746  16.400  0.00  0.00    +0.000 C 
BRANCH  13  18
ATOM     14  N   UNL     1       7.806   6.579  18.076  0.00  0.00    +0.000 N 
ATOM     15  C   UNL     1       8.000   6.590  19.428  0.00  0.00    +0.000 A 
ATOM     16  N   UNL     1       7.699   5.419  19.928  0.00  0.00    +0.000 NA
ATOM     17  N   UNL     1       7.319   4.610  18.889  0.00  0.00    +0.000 NA
ATOM     18  C   UNL     1       7.393   5.302  17.767  0.00  0.00    +0.000 A 
BRANCH  14  20
ATOM     19  C   UNL     1       8.155   9.028  18.020  0.00  0.00    +0.000 C 
ATOM     20  C   UNL     1       7.984   7.738  17.228  0.00  0.00    +0.000 C 
ENDBRANCH  14  20
ENDBRANCH  13  18
ENDBRANCH  11  13
ENDBRANCH   5  11
ENDBRANCH   1   9
BRANCH   2  21
ATOM     21  C   UNL     1       1.250  10.230  18.632  0.00  0.00    +0.000 A 
ATOM     22  C   UNL     1      -0.118  10.385  18.778  0.00  0.00    +0.000 A 
ATOM     23  C   UNL     1      -0.631  11.653  18.966  0.00  0.00    +0.000 A 
ATOM     24  C   UNL     1       0.211  12.743  18.755  0.00  0.00    +0.000 A 
ATOM     25  C   UNL     1       1.549  12.495  18.470  0.00  0.00    +0.000 A 
ATOM     26  N   UNL     1       2.108  11.261  18.457  0.00  0.00    +0.000 NA
BRANCH  23  27
ATOM     27  C   UNL     1      -2.072  11.833  19.281  0.00  0.00    +0.000 C 
ATOM     28  O   UNL     1      -2.353  12.151  20.436  0.00  0.00    +0.000 OA
ATOM     29  N   UNL     1      -3.040  11.688  18.271  0.00  0.00    +0.000 N 
ATOM     30  C   UNL     1      -4.406  12.092  18.583  0.00  0.00    +0.000 C 
ATOM     31  C   UNL     1      -5.279  10.900  18.212  0.00  0.00    +0.000 C 
ATOM     32  C   UNL     1      -4.531  10.228  17.074  0.00  0.00    +0.000 C 
ATOM     33  C   UNL     1      -3.054  10.630  17.234  0.00  0.00    +0.000 C 
ATOM     34  C   UNL     1      -2.573  11.050  15.843  0.00  0.00    +0.000 C 
BRANCH  31  35
ATOM     35  O   UNL     1      -6.577  11.294  17.783  0.00  0.00    +0.000 OA
ATOM     36  H   UNL     1      -7.103  11.522  18.566  0.00  0.00    +0.000 HD
ENDBRANCH  31  35
ENDBRANCH  23  27
ENDBRANCH   2  21
TORSDOF 8
ENDMDL
MODEL 6
REMARK VINA RESULT:      -8.7      5.870     10.407
REMARK  Name = 
REMARK  11 active torsions:
REMARK  status: ('A' for Active; 'I' for Inactive)
REMARK    1  A    between atoms: C_1  and  C_2
REMARK    2  A    between atoms: C_2  and  N_3
REMARK    3  A    between atoms: C_7  and  C_8
REMARK    4  A    between atoms: C_8  and  C_9
REMARK    5  A    between atoms: C_9  and  C_10
REMARK    6  A    between atoms: C_9  and  C_11
REMARK    7  A    between atoms: C_15  and  N_16
REMARK    8  A    between atoms: C_17  and  C_19
REMARK    9  A    between atoms: C_21  and  C_22
REMARK   10  A    between atoms: C_26  and  O_27
REMARK   11  A    between atoms: C_29  and  C_30
REMARK                            x       y       z     vdW  Elec       q    Type
REMARK                         _______ _______ _______ _____ _____    ______ ____
ROOT
ATOM      1  N   UNL     1       8.659   8.644  18.621  0.00  0.00    +0.000 N 
ATOM      2  C   UNL     1       7.628   8.395  17.733  0.00  0.00    +0.000 C 
ATOM      3  O   UNL     1       6.980   9.242  17.118  0.00  0.00    +0.000 OA
ATOM      4  H   UNL     1       9.165   7.834  18.945  0.00  0.00    +0.000 HD
ENDROOT
BRANCH   1   9
ATOM      5  C   UNL     1       9.764  12.211  18.508  0.00  0.00    +0.000 A 
ATOM      6  C   UNL     1       9.998  12.448  19.869  0.00  0.00    +0.000 A 
ATOM      7  C   UNL     1       9.749  11.459  20.814  0.00  0.00    +0.000 A 
ATOM      8  C   UNL     1       9.292  10.211  20.412  0.00  0.00    +0.000 A 
ATOM      9  C   UNL     1       9.059   9.924  19.068  0.00  0.00    +0.000 A 
ATOM     10  C   UNL     1       9.280  10.939  18.121  0.00  0.00    +0.000 A 
BRANCH   5  11
ATOM     11  C   UNL     1      10.122  13.249  17.435  0.00  0.00    +0.000 C 
ATOM     12  C   UNL     1      11.501  12.877  16.872  0.00  0.00    +0.000 C 
BRANCH  11  13
ATOM     13  C   UNL     1      10.089  14.721  17.926  0.00  0.00    +0.000 C 
BRANCH  13  18
ATOM     14  N   UNL     1       8.370  16.573  18.409  0.00  0.00    +0.000 N 
ATOM     15  C   UNL     1       7.007  16.592  18.490  0.00  0.00    +0.000 A 
ATOM     16  N   UNL     1       6.529  15.414  18.178  0.00  0.00    +0.000 NA
ATOM     17  N   UNL     1       7.593  14.595  17.906  0.00  0.00    +0.000 NA
ATOM     18  C   UNL     1       8.707  15.286  18.056  0.00  0.00    +0.000 A 
BRANCH  14  20
ATOM     19  C   UNL     1       9.568  17.934  20.093  0.00  0.00    +0.000 C 
ATOM     20  C   UNL     1       9.204  17.735  18.627  0.00  0.00    +0.000 C 
ENDBRANCH  14  20
ENDBRANCH  13  18
ENDBRANCH  11  13
ENDBRANCH   5  11
ENDBRANCH   1   9
BRANCH   2  21
ATOM     21  C   UNL     1       7.347   6.954  17.452  0.00  0.00    +0.000 A 
ATOM     22  C   UNL     1       6.586   6.259  18.377  0.00  0.00    +0.000 A 
ATOM     23  C   UNL     1       6.039   5.044  18.014  0.00  0.00    +0.000 A 
ATOM     24  C   UNL     1       6.475   4.451  16.830  0.00  0.00    +0.000 A 
ATOM     25  C   UNL     1       7.356   5.163  16.025  0.00  0.00    +0.000 A 
ATOM     26  N   UNL     1       7.765   6.429  16.277  0.00  0.00    +0.000 NA
BRANCH  23  27
ATOM     27  C   UNL     1       5.093   4.352  18.928  0.00  0.00    +0.000 C 
ATOM     28  O   UNL     1       5.537   3.400  19.570  0.00  0.00    +0.000 OA
ATOM     29  N   UNL     1       3.774   4.818  19.065  0.00  0.00    +0.000 N 
ATOM     30  C   UNL     1       2.964   4.242  20.132  0.00  0.00    +0.000 C 
ATOM     31  C   UNL     1       1.675   3.780  19.463  0.00  0.00    +0.000 C 
ATOM     32  C   UNL     1       1.495   4.737  18.297  0.00  0.00    +0.000 C 
ATOM     33  C   UNL     1       2.898   5.271  17.959  0.00  0.00    +0.000 C 
ATOM     34  C   UNL     1       2.752   6.786  17.800  0.00  0.00    +0.000 C 
BRANCH  31  35
ATOM     35  O   UNL     1       0.556   3.854  20.338  0.00  0.00    +0.000 OA
ATOM     36  H   UNL     1      -0.185   3.378  19.930  0.00  0.00    +0.000 HD
ENDBRANCH  31  35
ENDBRANCH  23  27
ENDBRANCH   2  21
TORSDOF 8
ENDMDL
MODEL 7
REMARK VINA RESULT:      -8.7      2.518      4.252
REMARK  Name = 
REMARK  11 active torsions:
REMARK  status: ('A' for Active; 'I' for Inactive)
REMARK    1  A    between atoms: C_1  and  C_2
REMARK    2  A    between atoms: C_2  and  N_3
REMARK    3  A    between atoms: C_7  and  C_8
REMARK    4  A    between atoms: C_8  and  C_9
REMARK    5  A    between atoms: C_9  and  C_10
REMARK    6  A    between atoms: C_9  and  C_11
REMARK    7  A    between atoms: C_15  and  N_16
REMARK    8  A    between atoms: C_17  and  C_19
REMARK    9  A    between atoms: C_21  and  C_22
REMARK   10  A    between atoms: C_26  and  O_27
REMARK   11  A    between atoms: C_29  and  C_30
REMARK                            x       y       z     vdW  Elec       q    Type
REMARK                         _______ _______ _______ _____ _____    ______ ____
ROOT
ATOM      1  N   UNL     1       3.002   8.582  18.078  0.00  0.00    +0.000 N 
ATOM      2  C   UNL     1       1.753   9.122  17.831  0.00  0.00    +0.000 C 
ATOM      3  O   UNL     1       0.750   8.501  17.481  0.00  0.00    +0.000 OA
ATOM      4  H   UNL     1       3.683   9.211  18.474  0.00  0.00    +0.000 HD
ENDROOT
BRANCH   1   9
ATOM      5  C   UNL     1       4.666   5.615  16.533  0.00  0.00    +0.000 A 
ATOM      6  C   UNL     1       4.036   4.577  17.231  0.00  0.00    +0.000 A 
ATOM      7  C   UNL     1       3.110   4.854  18.231  0.00  0.00    +0.000 A 
ATOM      8  C   UNL     1       2.778   6.170  18.526  0.00  0.00    +0.000 A 
ATOM      9  C   UNL     1       3.368   7.235  17.847  0.00  0.00    +0.000 A 
ATOM     10  C   UNL     1       4.329   6.948  16.862  0.00  0.00    +0.000 A 
BRANCH   5  11
ATOM     11  C   UNL     1       5.618   5.337  15.360  0.00  0.00    +0.000 C 
ATOM     12  C   UNL     1       5.256   3.961  14.786  0.00  0.00    +0.000 C 
BRANCH  11  13
ATOM     13  C   UNL     1       7.126   5.422  15.720  0.00  0.00    +0.000 C 
BRANCH  13  18
ATOM     14  N   UNL     1       7.662   6.701  17.887  0.00  0.00    +0.000 N 
ATOM     15  C   UNL     1       7.934   6.309  19.166  0.00  0.00    +0.000 A 
ATOM     16  N   UNL     1       7.812   5.010  19.266  0.00  0.00    +0.000 NA
ATOM     17  N   UNL     1       7.474   4.530  18.027  0.00  0.00    +0.000 NA
ATOM     18  C   UNL     1       7.394   5.546  17.188  0.00  0.00    +0.000 A 
BRANCH  14  20
ATOM     19  C   UNL     1       8.475   8.992  18.351  0.00  0.00    +0.000 C 
ATOM     20  C   UNL     1       7.643   8.082  17.456  0.00  0.00    +0.000 C 
ENDBRANCH  14  20
ENDBRANCH  13  18
ENDBRANCH  11  13
ENDBRANCH   5  11
ENDBRANCH   1   9
BRANCH   2  21
ATOM     21  C   UNL     1       1.617  10.587  18.097  0.00  0.00    +0.000 A 
ATOM     22  C   UNL     1       0.440  11.024  18.681  0.00  0.00    +0.000 A 
ATOM     23  C   UNL     1       0.396  12.289  19.232  0.00  0.00    +0.000 A 
ATOM     24  C   UNL     1       1.448  13.164  18.960  0.00  0.00    +0.000 A 
ATOM     25  C   UNL     1       2.534  12.681  18.239  0.00  0.00    +0.000 A 
ATOM     26  N   UNL     1       2.674  11.393  17.844  0.00  0.00    +0.000 NA
BRANCH  23  27
ATOM     27  C   UNL     1      -0.798  12.725  20.000  0.00  0.00    +0.000 C 
ATOM     28  O   UNL     1      -1.293  13.809  19.690  0.00  0.00    +0.000 OA
ATOM     29  N   UNL     1      -1.342  11.894  20.995  0.00  0.00    +0.000 N 
ATOM     30  C   UNL     1      -2.633  12.271  21.557  0.00  0.00    +0.000 C 
ATOM     31  C   UNL     1      -2.436  12.275  23.068  0.00  0.00    +0.000 C 
ATOM     32  C   UNL     1      -1.360  11.230  23.307  0.00  0.00    +0.000 C 
ATOM     33  C   UNL     1      -0.566  11.122  21.994  0.00  0.00    +0.000 C 
ATOM     34  C   UNL     1      -0.411   9.626  21.709  0.00  0.00    +0.000 C 
BRANCH  31  35
ATOM     35  O   UNL     1      -3.624  11.928  23.768  0.00  0.00    +0.000 OA
ATOM     36  H   UNL     1      -4.373  12.371  23.340  0.00  0.00    +0.000 HD
ENDBRANCH  31  35
ENDBRANCH  23  27
ENDBRANCH   2  21
TORSDOF 8
ENDMDL
MODEL 8
REMARK VINA RESULT:      -8.6      1.769      2.400
REMARK  Name = 
REMARK  11 active torsions:
REMARK  status: ('A' for Active; 'I' for Inactive)
REMARK    1  A    between atoms: C_1  and  C_2
REMARK    2  A    between atoms: C_2  and  N_3
REMARK    3  A    between atoms: C_7  and  C_8
REMARK    4  A    between atoms: C_8  and  C_9
REMARK    5  A    between atoms: C_9  and  C_10
REMARK    6  A    between atoms: C_9  and  C_11
REMARK    7  A    between atoms: C_15  and  N_16
REMARK    8  A    between atoms: C_17  and  C_19
REMARK    9  A    between atoms: C_21  and  C_22
REMARK   10  A    between atoms: C_26  and  O_27
REMARK   11  A    between atoms: C_29  and  C_30
REMARK                            x       y       z     vdW  Elec       q    Type
REMARK                         _______ _______ _______ _____ _____    ______ ____
ROOT
ATOM      1  N   UNL     1       2.076   6.496  19.843  0.00  0.00    +0.000 N 
ATOM      2  C   UNL     1       1.904   7.792  19.391  0.00  0.00    +0.000 C 
ATOM      3  O   UNL     1       2.123   8.198  18.251  0.00  0.00    +0.000 OA
ATOM      4  H   UNL     1       1.734   6.305  20.772  0.00  0.00    +0.000 HD
ENDROOT
BRANCH   1   9
ATOM      5  C   UNL     1       4.299   4.728  17.415  0.00  0.00    +0.000 A 
ATOM      6  C   UNL     1       3.765   3.434  17.476  0.00  0.00    +0.000 A 
ATOM      7  C   UNL     1       2.717   3.140  18.342  0.00  0.00    +0.000 A 
ATOM      8  C   UNL     1       2.169   4.138  19.136  0.00  0.00    +0.000 A 
ATOM      9  C   UNL     1       2.657   5.444  19.098  0.00  0.00    +0.000 A 
ATOM     10  C   UNL     1       3.738   5.726  18.246  0.00  0.00    +0.000 A 
BRANCH   5  11
ATOM     11  C   UNL     1       5.387   5.104  16.400  0.00  0.00    +0.000 C 
ATOM     12  C   UNL     1       5.088   6.526  15.905  0.00  0.00    +0.000 C 
BRANCH  11  13
ATOM     13  C   UNL     1       5.535   4.111  15.215  0.00  0.00    +0.000 C 
BRANCH  13  18
ATOM     14  N   UNL     1       6.662   4.035  12.904  0.00  0.00    +0.000 N 
ATOM     15  C   UNL     1       7.730   4.687  12.358  0.00  0.00    +0.000 A 
ATOM     16  N   UNL     1       8.190   5.571  13.207  0.00  0.00    +0.000 NA
ATOM     17  N   UNL     1       7.428   5.489  14.342  0.00  0.00    +0.000 NA
ATOM     18  C   UNL     1       6.511   4.555  14.169  0.00  0.00    +0.000 A 
BRANCH  14  20
ATOM     19  C   UNL     1       4.507   3.552  11.788  0.00  0.00    +0.000 C 
ATOM     20  C   UNL     1       5.881   3.040  12.200  0.00  0.00    +0.000 C 
ENDBRANCH  14  20
ENDBRANCH  13  18
ENDBRANCH  11  13
ENDBRANCH   5  11
ENDBRANCH   1   9
BRANCH   2  21
ATOM     21  C   UNL     1       1.320   8.750  20.379  0.00  0.00    +0.000 A 
ATOM     22  C   UNL     1       0.440   9.706  19.900  0.00  0.00    +0.000 A 
ATOM     23  C   UNL     1      -0.357  10.390  20.797  0.00  0.00    +0.000 A 
ATOM     24  C   UNL     1      -0.072  10.273  22.156  0.00  0.00    +0.000 A 
ATOM     25  C   UNL     1       0.931   9.391  22.544  0.00  0.00    +0.000 A 
ATOM     26  N   UNL     1       1.602   8.580  21.692  0.00  0.00    +0.000 NA
BRANCH  23  27
ATOM     27  C   UNL     1      -1.417  11.306  20.301  0.00  0.00    +0.000 C 
ATOM     28  O   UNL     1      -1.819  12.165  21.085  0.00  0.00    +0.000 OA
ATOM     29  N   UNL     1      -1.881  11.201  18.978  0.00  0.00    +0.000 N 
ATOM     30  C   UNL     1      -2.753  12.259  18.484  0.00  0.00    +0.000 C 
ATOM     31  C   UNL     1      -3.976  11.550  17.917  0.00  0.00    +0.000 C 
ATOM     32  C   UNL     1      -3.444  10.209  17.441  0.00  0.00    +0.000 C 
ATOM     33  C   UNL     1      -2.172   9.936  18.263  0.00  0.00    +0.000 C 
ATOM     34  C   UNL     1      -1.108   9.474  17.264  0.00  0.00    +0.000 C 
BRANCH  31  35
ATOM     35  O   UNL     1      -4.558  12.261  16.831  0.00  0.00    +0.000 OA
ATOM     36  H   UNL     1      -5.492  12.423  17.035  0.00  0.00    +0.000 HD
ENDBRANCH  31  35
ENDBRANCH  23  27
ENDBRANCH   2  21
TORSDOF 8
ENDMDL
MODEL 9
REMARK VINA RESULT:      -8.5      3.058     10.035
REMARK  Name = 
REMARK  11 active torsions:
REMARK  status: ('A' for Active; 'I' for Inactive)
REMARK    1  A    between atoms: C_1  and  C_2
REMARK    2  A    between atoms: C_2  and  N_3
REMARK    3  A    between atoms: C_7  and  C_8
REMARK    4  A    between atoms: C_8  and  C_9
REMARK    5  A    between atoms: C_9  and  C_10
REMARK    6  A    between atoms: C_9  and  C_11
REMARK    7  A    between atoms: C_15  and  N_16
REMARK    8  A    between atoms: C_17  and  C_19
REMARK    9  A    between atoms: C_21  and  C_22
REMARK   10  A    between atoms: C_26  and  O_27
REMARK   11  A    between atoms: C_29  and  C_30
REMARK                            x       y       z     vdW  Elec       q    Type
REMARK                         _______ _______ _______ _____ _____    ______ ____
ROOT
ATOM      1  N   UNL     1       0.814   7.468  21.241  0.00  0.00    +0.000 N 
ATOM      2  C   UNL     1       1.627   7.204  20.153  0.00  0.00    +0.000 C 
ATOM      3  O   UNL     1       2.037   8.028  19.337  0.00  0.00    +0.000 OA
ATOM      4  H   UNL     1       0.671   6.700  21.879  0.00  0.00    +0.000 HD
ENDROOT
BRANCH   1   9
ATOM      5  C   UNL     1      -0.637  10.867  20.697  0.00  0.00    +0.000 A 
ATOM      6  C   UNL     1      -0.846  11.270  22.023  0.00  0.00    +0.000 A 
ATOM      7  C   UNL     1      -0.556  10.413  23.079  0.00  0.00    +0.000 A 
ATOM      8  C   UNL     1      -0.026   9.154  22.828  0.00  0.00    +0.000 A 
ATOM      9  C   UNL     1       0.213   8.716  21.526  0.00  0.00    +0.000 A 
ATOM     10  C   UNL     1      -0.114   9.574  20.462  0.00  0.00    +0.000 A 
BRANCH   5  11
ATOM     11  C   UNL     1      -0.855  11.827  19.519  0.00  0.00    +0.000 C 
ATOM     12  C   UNL     1       0.070  13.034  19.727  0.00  0.00    +0.000 C 
BRANCH  11  13
ATOM     13  C   UNL     1      -2.328  12.271  19.313  0.00  0.00    +0.000 C 
BRANCH  13  18
ATOM     14  N   UNL     1      -4.269  11.544  17.788  0.00  0.00    +0.000 N 
ATOM     15  C   UNL     1      -4.328  11.024  16.527  0.00  0.00    +0.000 A 
ATOM     16  N   UNL     1      -3.126  10.974  16.012  0.00  0.00    +0.000 NA
ATOM     17  N   UNL     1      -2.252  11.449  16.954  0.00  0.00    +0.000 NA
ATOM     18  C   UNL     1      -2.936  11.784  18.033  0.00  0.00    +0.000 A 
BRANCH  14  20
ATOM     19  C   UNL     1      -6.710  11.948  17.794  0.00  0.00    +0.000 C 
ATOM     20  C   UNL     1      -5.433  11.796  18.610  0.00  0.00    +0.000 C 
ENDBRANCH  14  20
ENDBRANCH  13  18
ENDBRANCH  11  13
ENDBRANCH   5  11
ENDBRANCH   1   9
BRANCH   2  21
ATOM     21  C   UNL     1       2.101   5.791  20.026  0.00  0.00    +0.000 A 
ATOM     22  C   UNL     1       2.664   5.412  18.819  0.00  0.00    +0.000 A 
ATOM     23  C   UNL     1       3.395   4.242  18.761  0.00  0.00    +0.000 A 
ATOM     24  C   UNL     1       3.329   3.368  19.846  0.00  0.00    +0.000 A 
ATOM     25  C   UNL     1       2.617   3.770  20.970  0.00  0.00    +0.000 A 
ATOM     26  N   UNL     1       2.043   4.988  21.113  0.00  0.00    +0.000 NA
BRANCH  23  27
ATOM     27  C   UNL     1       4.140   3.891  17.524  0.00  0.00    +0.000 C 
ATOM     28  O   UNL     1       3.978   2.753  17.084  0.00  0.00    +0.000 OA
ATOM     29  N   UNL     1       4.944   4.851  16.885  0.00  0.00    +0.000 N 
ATOM     30  C   UNL     1       5.469   4.521  15.566  0.00  0.00    +0.000 C 
ATOM     31  C   UNL     1       6.969   4.769  15.649  0.00  0.00    +0.000 C 
ATOM     32  C   UNL     1       7.109   5.879  16.676  0.00  0.00    +0.000 C 
ATOM     33  C   UNL     1       5.854   5.804  17.563  0.00  0.00    +0.000 C 
ATOM     34  C   UNL     1       5.339   7.239  17.699  0.00  0.00    +0.000 C 
BRANCH  31  35
ATOM     35  O   UNL     1       7.518   5.179  14.403  0.00  0.00    +0.000 OA
ATOM     36  H   UNL     1       8.466   4.972  14.402  0.00  0.00    +0.000 HD
ENDBRANCH  31  35
ENDBRANCH  23  27
ENDBRANCH   2  21
TORSDOF 8
ENDMDL
