MODEL 1
REMARK VINA RESULT:     -10.0      0.000      0.000
REMARK  Name = 
REMARK  8 active torsions:
REMARK  status: ('A' for Active; 'I' for Inactive)
REMARK    1  A    between atoms: C_1  and  N_2
REMARK    2  A    between atoms: C_6  and  C_7
REMARK    3  A    between atoms: C_7  and  C_8
REMARK    4  A    between atoms: C_8  and  C_9
REMARK    5  A    between atoms: C_13  and  N_14
REMARK    6  A    between atoms: C_19  and  C_20
REMARK    7  A    between atoms: C_20  and  N_21
REMARK    8  A    between atoms: C_31  and  C_32
REMARK                            x       y       z     vdW  Elec       q    Type
REMARK                         _______ _______ _______ _____ _____    ______ ____
ROOT
ATOM      1  N   UNL     1       2.261   7.504  19.416  0.00  0.00    +0.000 N 
ATOM      2  C   UNL     1       1.512   7.806  20.616  0.00  0.00    +0.000 C 
ATOM      3  C   UNL     1       0.905   9.131  20.354  0.00  0.00    +0.000 A 
ATOM      4  C   UNL     1       1.180   9.542  19.052  0.00  0.00    +0.000 A 
ATOM      5  C   UNL     1       0.680  10.754  18.566  0.00  0.00    +0.000 A 
ATOM      6  C   UNL     1      -0.113  11.557  19.423  0.00  0.00    +0.000 A 
ATOM      7  C   UNL     1      -0.327  11.123  20.759  0.00  0.00    +0.000 A 
ATOM      8  C   UNL     1       0.177   9.907  21.244  0.00  0.00    +0.000 A 
ATOM      9  C   UNL     1       2.090   8.513  18.447  0.00  0.00    +0.000 C 
ATOM     10  O   UNL     1       2.563   8.609  17.334  0.00  0.00    +0.000 OA
ENDROOT
BRANCH   1  15
ATOM     11  C   UNL     1       5.335   5.394  18.780  0.00  0.00    +0.000 A 
ATOM     12  C   UNL     1       4.845   4.136  19.174  0.00  0.00    +0.000 A 
ATOM     13  C   UNL     1       3.548   3.986  19.686  0.00  0.00    +0.000 A 
ATOM     14  C   UNL     1       2.673   5.083  19.802  0.00  0.00    +0.000 A 
ATOM     15  C   UNL     1       3.095   6.343  19.409  0.00  0.00    +0.000 A 
ATOM     16  C   UNL     1       4.422   6.459  18.935  0.00  0.00    +0.000 A 
BRANCH  11  17
ATOM     17  C   UNL     1       6.829   5.649  18.192  0.00  0.00    +0.000 C 
ATOM     18  C   UNL     1       7.896   6.130  19.214  0.00  0.00    +0.000 C 
ATOM     19  O   UNL     1       8.140   7.352  18.491  0.00  0.00    +0.000 OA
ATOM     20  C   UNL     1       7.119   7.029  17.524  0.00  0.00    +0.000 C 
BRANCH  17  21
ATOM     21  C   UNL     1       7.332   4.448  17.354  0.00  0.00    +0.000 C 
BRANCH  21  27
ATOM     22  C   UNL     1       4.945   3.046  15.841  0.00  0.00    +0.000 C 
ATOM     23  N   UNL     1       5.946   3.908  15.275  0.00  0.00    +0.000 N 
ATOM     24  C   UNL     1       6.028   4.251  13.950  0.00  0.00    +0.000 A 
ATOM     25  N   UNL     1       7.073   5.022  13.767  0.00  0.00    +0.000 NA
ATOM     26  N   UNL     1       7.694   5.178  14.979  0.00  0.00    +0.000 NA
ATOM     27  C   UNL     1       7.002   4.538  15.894  0.00  0.00    +0.000 A 
ENDBRANCH  21  27
ENDBRANCH  17  21
ENDBRANCH  11  17
ENDBRANCH   1  15
BRANCH   8  28
ATOM     28  C   UNL     1      -0.021   9.510  22.687  0.00  0.00    +0.000 C 
ATOM     29  F   UNL     1      -0.646  10.450  23.441  0.00  0.00    +0.000 F 
ATOM     30  F   UNL     1      -0.758   8.373  22.811  0.00  0.00    +0.000 F 
ATOM     31  F   UNL     1       1.162   9.262  23.317  0.00  0.00    +0.000 F 
ENDBRANCH   8  28
BRANCH   6  32
ATOM     32  C   UNL     1      -0.553  12.977  19.088  0.00  0.00    +0.000 C 
BRANCH  32  33
ATOM     33  N   UNL     1       0.312  14.146  19.371  0.00  0.00    +0.000 NA
ATOM     34  C   UNL     1      -0.463  15.330  18.905  0.00  0.00    +0.000 C 
ATOM     35  C   UNL     1       0.269  16.591  19.314  0.00  0.00    +0.000 C 
ATOM     36  O   UNL     1       1.395  16.690  18.459  0.00  0.00    +0.000 OA
ATOM     37  C   UNL     1       2.351  15.597  18.585  0.00  0.00    +0.000 C 
ATOM     38  C   UNL     1       3.484  15.890  19.622  0.00  0.00    +0.000 C 
ATOM     39  C   UNL     1       4.349  16.462  18.486  0.00  0.00    +0.000 C 
ATOM     40  C   UNL     1       3.461  15.713  17.480  0.00  0.00    +0.000 C 
ATOM     41  C   UNL     1       1.646  14.169  18.677  0.00  0.00    +0.000 C 
ENDBRANCH  32  33
ENDBRANCH   6  32
TORSDOF 7
ENDMDL
MODEL 2
REMARK VINA RESULT:      -9.7      1.485      2.393
REMARK  Name = 
REMARK  8 active torsions:
REMARK  status: ('A' for Active; 'I' for Inactive)
REMARK    1  A    between atoms: C_1  and  N_2
REMARK    2  A    between atoms: C_6  and  C_7
REMARK    3  A    between atoms: C_7  and  C_8
REMARK    4  A    between atoms: C_8  and  C_9
REMARK    5  A    between atoms: C_13  and  N_14
REMARK    6  A    between atoms: C_19  and  C_20
REMARK    7  A    between atoms: C_20  and  N_21
REMARK    8  A    between atoms: C_31  and  C_32
REMARK                            x       y       z     vdW  Elec       q    Type
REMARK                         _______ _______ _______ _____ _____    ______ ____
ROOT
ATOM      1  N   UNL     1       2.165   7.425  19.219  0.00  0.00    +0.000 N 
ATOM      2  C   UNL     1       1.455   7.745  20.438  0.00  0.00    +0.000 C 
ATOM      3  C   UNL     1       0.933   9.112  20.218  0.00  0.00    +0.000 A 
ATOM      4  C   UNL     1       1.215   9.538  18.923  0.00  0.00    +0.000 A 
ATOM      5  C   UNL     1       0.789  10.792  18.475  0.00  0.00    +0.000 A 
ATOM      6  C   UNL     1       0.064  11.624  19.364  0.00  0.00    +0.000 A 
ATOM      7  C   UNL     1      -0.159  11.170  20.693  0.00  0.00    +0.000 A 
ATOM      8  C   UNL     1       0.271   9.912  21.139  0.00  0.00    +0.000 A 
ATOM      9  C   UNL     1       2.047   8.468  18.278  0.00  0.00    +0.000 C 
ATOM     10  O   UNL     1       2.509   8.562  17.160  0.00  0.00    +0.000 OA
ENDROOT
BRANCH   1  15
ATOM     11  C   UNL     1       4.597   4.857  17.879  0.00  0.00    +0.000 A 
ATOM     12  C   UNL     1       4.394   3.826  18.815  0.00  0.00    +0.000 A 
ATOM     13  C   UNL     1       3.514   3.986  19.896  0.00  0.00    +0.000 A 
ATOM     14  C   UNL     1       2.777   5.172  20.073  0.00  0.00    +0.000 A 
ATOM     15  C   UNL     1       2.921   6.213  19.169  0.00  0.00    +0.000 A 
ATOM     16  C   UNL     1       3.846   6.028  18.117  0.00  0.00    +0.000 A 
BRANCH  11  17
ATOM     17  C   UNL     1       5.609   4.752  16.611  0.00  0.00    +0.000 C 
ATOM     18  C   UNL     1       5.296   5.679  15.404  0.00  0.00    +0.000 C 
ATOM     19  O   UNL     1       5.137   4.568  14.501  0.00  0.00    +0.000 OA
ATOM     20  C   UNL     1       5.350   3.620  15.569  0.00  0.00    +0.000 C 
BRANCH  17  21
ATOM     21  C   UNL     1       7.092   4.852  17.047  0.00  0.00    +0.000 C 
BRANCH  21  27
ATOM     22  C   UNL     1       8.142   5.738  19.887  0.00  0.00    +0.000 C 
ATOM     23  N   UNL     1       7.968   6.568  18.726  0.00  0.00    +0.000 N 
ATOM     24  C   UNL     1       8.225   7.914  18.679  0.00  0.00    +0.000 A 
ATOM     25  N   UNL     1       7.931   8.369  17.485  0.00  0.00    +0.000 NA
ATOM     26  N   UNL     1       7.463   7.317  16.742  0.00  0.00    +0.000 NA
ATOM     27  C   UNL     1       7.514   6.226  17.473  0.00  0.00    +0.000 A 
ENDBRANCH  21  27
ENDBRANCH  17  21
ENDBRANCH  11  17
ENDBRANCH   1  15
BRANCH   8  28
ATOM     28  C   UNL     1       0.069   9.491  22.575  0.00  0.00    +0.000 C 
ATOM     29  F   UNL     1      -0.720   8.397  22.727  0.00  0.00    +0.000 F 
ATOM     30  F   UNL     1       1.244   9.200  23.196  0.00  0.00    +0.000 F 
ATOM     31  F   UNL     1      -0.517  10.471  23.318  0.00  0.00    +0.000 F 
ENDBRANCH   8  28
BRANCH   6  32
ATOM     32  C   UNL     1      -0.287  13.077  19.072  0.00  0.00    +0.000 C 
BRANCH  32  33
ATOM     33  N   UNL     1       0.664  14.178  19.353  0.00  0.00    +0.000 NA
ATOM     34  C   UNL     1       0.003  15.410  18.838  0.00  0.00    +0.000 C 
ATOM     35  C   UNL     1       0.825  16.616  19.240  0.00  0.00    +0.000 C 
ATOM     36  O   UNL     1       1.979  16.600  18.416  0.00  0.00    +0.000 OA
ATOM     37  C   UNL     1       2.837  15.437  18.594  0.00  0.00    +0.000 C 
ATOM     38  C   UNL     1       3.962  15.661  19.657  0.00  0.00    +0.000 C 
ATOM     39  C   UNL     1       4.902  16.131  18.534  0.00  0.00    +0.000 C 
ATOM     40  C   UNL     1       3.982  15.433  17.520  0.00  0.00    +0.000 C 
ATOM     41  C   UNL     1       2.014  14.074  18.698  0.00  0.00    +0.000 C 
ENDBRANCH  32  33
ENDBRANCH   6  32
TORSDOF 7
ENDMDL
MODEL 3
REMARK VINA RESULT:      -9.4      0.978      1.388
REMARK  Name = 
REMARK  8 active torsions:
REMARK  status: ('A' for Active; 'I' for Inactive)
REMARK    1  A    between atoms: C_1  and  N_2
REMARK    2  A    between atoms: C_6  and  C_7
REMARK    3  A    between atoms: C_7  and  C_8
REMARK    4  A    between atoms: C_8  and  C_9
REMARK    5  A    between atoms: C_13  and  N_14
REMARK    6  A    between atoms: C_19  and  C_20
REMARK    7  A    between atoms: C_20  and  N_21
REMARK    8  A    between atoms: C_31  and  C_32
REMARK                            x       y       z     vdW  Elec       q    Type
REMARK                         _______ _______ _______ _____ _____    ______ ____
ROOT
ATOM      1  N   UNL     1       2.232   7.513  19.435  0.00  0.00    +0.000 N 
ATOM      2  C   UNL     1       1.468   7.800  20.629  0.00  0.00    +0.000 C 
ATOM      3  C   UNL     1       0.869   9.130  20.378  0.00  0.00    +0.000 A 
ATOM      4  C   UNL     1       1.163   9.560  19.087  0.00  0.00    +0.000 A 
ATOM      5  C   UNL     1       0.674  10.781  18.612  0.00  0.00    +0.000 A 
ATOM      6  C   UNL     1      -0.128  11.574  19.471  0.00  0.00    +0.000 A 
ATOM      7  C   UNL     1      -0.361  11.120  20.797  0.00  0.00    +0.000 A 
ATOM      8  C   UNL     1       0.132   9.896  21.270  0.00  0.00    +0.000 A 
ATOM      9  C   UNL     1       2.078   8.537  18.478  0.00  0.00    +0.000 C 
ATOM     10  O   UNL     1       2.566   8.649  17.374  0.00  0.00    +0.000 OA
ENDROOT
BRANCH   1  15
ATOM     11  C   UNL     1       5.295   5.394  18.780  0.00  0.00    +0.000 A 
ATOM     12  C   UNL     1       4.803   4.136  19.173  0.00  0.00    +0.000 A 
ATOM     13  C   UNL     1       3.508   3.990  19.691  0.00  0.00    +0.000 A 
ATOM     14  C   UNL     1       2.638   5.090  19.814  0.00  0.00    +0.000 A 
ATOM     15  C   UNL     1       3.062   6.349  19.421  0.00  0.00    +0.000 A 
ATOM     16  C   UNL     1       4.387   6.462  18.942  0.00  0.00    +0.000 A 
BRANCH  11  17
ATOM     17  C   UNL     1       6.788   5.645  18.186  0.00  0.00    +0.000 C 
ATOM     18  C   UNL     1       7.871   6.083  19.211  0.00  0.00    +0.000 C 
ATOM     19  O   UNL     1       8.125   7.321  18.520  0.00  0.00    +0.000 OA
ATOM     20  C   UNL     1       7.091   7.039  17.554  0.00  0.00    +0.000 C 
BRANCH  17  21
ATOM     21  C   UNL     1       7.267   4.461  17.310  0.00  0.00    +0.000 C 
BRANCH  21  27
ATOM     22  C   UNL     1       4.682   3.407  15.840  0.00  0.00    +0.000 C 
ATOM     23  N   UNL     1       5.784   4.122  15.256  0.00  0.00    +0.000 N 
ATOM     24  C   UNL     1       5.890   4.451  13.929  0.00  0.00    +0.000 A 
ATOM     25  N   UNL     1       7.029   5.069  13.727  0.00  0.00    +0.000 NA
ATOM     26  N   UNL     1       7.686   5.136  14.928  0.00  0.00    +0.000 NA
ATOM     27  C   UNL     1       6.927   4.597  15.856  0.00  0.00    +0.000 A 
ENDBRANCH  21  27
ENDBRANCH  17  21
ENDBRANCH  11  17
ENDBRANCH   1  15
BRANCH   8  28
ATOM     28  C   UNL     1      -0.087   9.478  22.705  0.00  0.00    +0.000 C 
ATOM     29  F   UNL     1       1.056   9.198  23.382  0.00  0.00    +0.000 F 
ATOM     30  F   UNL     1      -0.731  10.434  23.427  0.00  0.00    +0.000 F 
ATOM     31  F   UNL     1      -0.853   8.355  22.799  0.00  0.00    +0.000 F 
ENDBRANCH   8  28
BRANCH   6  32
ATOM     32  C   UNL     1      -0.558  13.000  19.152  0.00  0.00    +0.000 C 
BRANCH  32  33
ATOM     33  N   UNL     1       0.156  14.172  19.712  0.00  0.00    +0.000 NA
ATOM     34  C   UNL     1       0.834  14.811  18.549  0.00  0.00    +0.000 C 
ATOM     35  C   UNL     1       1.447  16.122  18.996  0.00  0.00    +0.000 C 
ATOM     36  O   UNL     1       2.580  15.782  19.778  0.00  0.00    +0.000 OA
ATOM     37  C   UNL     1       2.279  15.032  20.990  0.00  0.00    +0.000 C 
ATOM     38  C   UNL     1       2.060  15.947  22.239  0.00  0.00    +0.000 C 
ATOM     39  C   UNL     1       3.554  15.811  22.576  0.00  0.00    +0.000 C 
ATOM     40  C   UNL     1       3.605  14.561  21.685  0.00  0.00    +0.000 C 
ATOM     41  C   UNL     1       1.203  13.879  20.750  0.00  0.00    +0.000 C 
ENDBRANCH  32  33
ENDBRANCH   6  32
TORSDOF 7
ENDMDL
MODEL 4
REMARK VINA RESULT:      -9.3      1.684      2.214
REMARK  Name = 
REMARK  8 active torsions:
REMARK  status: ('A' for Active; 'I' for Inactive)
REMARK    1  A    between atoms: C_1  and  N_2
REMARK    2  A    between atoms: C_6  and  C_7
REMARK    3  A    between atoms: C_7  and  C_8
REMARK    4  A    between atoms: C_8  and  C_9
REMARK    5  A    between atoms: C_13  and  N_14
REMARK    6  A    between atoms: C_19  and  C_20
REMARK    7  A    between atoms: C_20  and  N_21
REMARK    8  A    between atoms: C_31  and  C_32
REMARK                            x       y       z     vdW  Elec       q    Type
REMARK                         _______ _______ _______ _____ _____    ______ ____
ROOT
ATOM      1  N   UNL     1       2.276   7.464  19.406  0.00  0.00    +0.000 N 
ATOM      2  C   UNL     1       1.528   7.794  20.598  0.00  0.00    +0.000 C 
ATOM      3  C   UNL     1       0.922   9.112  20.306  0.00  0.00    +0.000 A 
ATOM      4  C   UNL     1       1.197   9.494  18.995  0.00  0.00    +0.000 A 
ATOM      5  C   UNL     1       0.698  10.695  18.482  0.00  0.00    +0.000 A 
ATOM      6  C   UNL     1      -0.094  11.518  19.320  0.00  0.00    +0.000 A 
ATOM      7  C   UNL     1      -0.308  11.114  20.666  0.00  0.00    +0.000 A 
ATOM      8  C   UNL     1       0.195   9.910  21.178  0.00  0.00    +0.000 A 
ATOM      9  C   UNL     1       2.106   8.450  18.414  0.00  0.00    +0.000 C 
ATOM     10  O   UNL     1       2.580   8.521  17.299  0.00  0.00    +0.000 OA
ENDROOT
BRANCH   1  15
ATOM     11  C   UNL     1       5.360   5.346  18.847  0.00  0.00    +0.000 A 
ATOM     12  C   UNL     1       4.862   4.092  19.243  0.00  0.00    +0.000 A 
ATOM     13  C   UNL     1       3.556   3.948  19.732  0.00  0.00    +0.000 A 
ATOM     14  C   UNL     1       2.680   5.047  19.822  0.00  0.00    +0.000 A 
ATOM     15  C   UNL     1       3.110   6.302  19.425  0.00  0.00    +0.000 A 
ATOM     16  C   UNL     1       4.445   6.414  18.975  0.00  0.00    +0.000 A 
BRANCH  11  17
ATOM     17  C   UNL     1       6.866   5.595  18.285  0.00  0.00    +0.000 C 
ATOM     18  C   UNL     1       7.939   5.976  19.342  0.00  0.00    +0.000 C 
ATOM     19  O   UNL     1       8.224   7.235  18.703  0.00  0.00    +0.000 OA
ATOM     20  C   UNL     1       7.200   7.007  17.711  0.00  0.00    +0.000 C 
BRANCH  17  21
ATOM     21  C   UNL     1       7.339   4.437  17.371  0.00  0.00    +0.000 C 
BRANCH  21  27
ATOM     22  C   UNL     1       4.706   3.425  15.958  0.00  0.00    +0.000 C 
ATOM     23  N   UNL     1       5.796   4.142  15.355  0.00  0.00    +0.000 N 
ATOM     24  C   UNL     1       5.867   4.492  14.031  0.00  0.00    +0.000 A 
ATOM     25  N   UNL     1       7.004   5.105  13.807  0.00  0.00    +0.000 NA
ATOM     26  N   UNL     1       7.695   5.148  14.989  0.00  0.00    +0.000 NA
ATOM     27  C   UNL     1       6.959   4.600  15.929  0.00  0.00    +0.000 A 
ENDBRANCH  21  27
ENDBRANCH  17  21
ENDBRANCH  11  17
ENDBRANCH   1  15
BRANCH   8  28
ATOM     28  C   UNL     1      -0.003   9.545  22.631  0.00  0.00    +0.000 C 
ATOM     29  F   UNL     1       1.149   9.286  23.300  0.00  0.00    +0.000 F 
ATOM     30  F   UNL     1      -0.633  10.530  23.327  0.00  0.00    +0.000 F 
ATOM     31  F   UNL     1      -0.771   8.430  22.778  0.00  0.00    +0.000 F 
ENDBRANCH   8  28
BRANCH   6  32
ATOM     32  C   UNL     1      -0.534  12.929  18.954  0.00  0.00    +0.000 C 
BRANCH  32  33
ATOM     33  N   UNL     1      -0.901  13.924  19.989  0.00  0.00    +0.000 NA
ATOM     34  C   UNL     1      -2.345  13.687  20.268  0.00  0.00    +0.000 C 
ATOM     35  C   UNL     1      -2.767  14.542  21.444  0.00  0.00    +0.000 C 
ATOM     36  O   UNL     1      -2.831  15.874  20.962  0.00  0.00    +0.000 OA
ATOM     37  C   UNL     1      -1.560  16.412  20.495  0.00  0.00    +0.000 C 
ATOM     38  C   UNL     1      -0.767  17.167  21.610  0.00  0.00    +0.000 C 
ATOM     39  C   UNL     1      -1.437  18.480  21.171  0.00  0.00    +0.000 C 
ATOM     40  C   UNL     1      -1.775  17.816  19.827  0.00  0.00    +0.000 C 
ATOM     41  C   UNL     1      -0.737  15.370  19.610  0.00  0.00    +0.000 C 
ENDBRANCH  32  33
ENDBRANCH   6  32
TORSDOF 7
ENDMDL
MODEL 5
REMARK VINA RESULT:      -9.1      3.209      4.597
REMARK  Name = 
REMARK  8 active torsions:
REMARK  status: ('A' for Active; 'I' for Inactive)
REMARK    1  A    between atoms: C_1  and  N_2
REMARK    2  A    between atoms: C_6  and  C_7
REMARK    3  A    between atoms: C_7  and  C_8
REMARK    4  A    between atoms: C_8  and  C_9
REMARK    5  A    between atoms: C_13  and  N_14
REMARK    6  A    between atoms: C_19  and  C_20
REMARK    7  A    between atoms: C_20  and  N_21
REMARK    8  A    between atoms: C_31  and  C_32
REMARK                            x       y       z     vdW  Elec       q    Type
REMARK                         _______ _______ _______ _____ _____    ______ ____
ROOT
ATOM      1  N   UNL     1       2.193   6.635  19.331  0.00  0.00    +0.000 N 
ATOM      2  C   UNL     1       2.112   7.947  18.730  0.00  0.00    +0.000 C 
ATOM      3  C   UNL     1       1.430   8.782  19.744  0.00  0.00    +0.000 A 
ATOM      4  C   UNL     1       1.216   8.051  20.911  0.00  0.00    +0.000 A 
ATOM      5  C   UNL     1       0.613   8.644  22.023  0.00  0.00    +0.000 A 
ATOM      6  C   UNL     1       0.221  10.004  21.943  0.00  0.00    +0.000 A 
ATOM      7  C   UNL     1       0.413  10.697  20.717  0.00  0.00    +0.000 A 
ATOM      8  C   UNL     1       1.018  10.099  19.602  0.00  0.00    +0.000 A 
ATOM      9  C   UNL     1       1.673   6.647  20.642  0.00  0.00    +0.000 C 
ATOM     10  O   UNL     1       1.565   5.743  21.444  0.00  0.00    +0.000 OA
ENDROOT
BRANCH   1  15
ATOM     11  C   UNL     1       4.594   4.644  17.192  0.00  0.00    +0.000 A 
ATOM     12  C   UNL     1       3.756   3.575  16.826  0.00  0.00    +0.000 A 
ATOM     13  C   UNL     1       2.443   3.479  17.310  0.00  0.00    +0.000 A 
ATOM     14  C   UNL     1       1.901   4.462  18.160  0.00  0.00    +0.000 A 
ATOM     15  C   UNL     1       2.674   5.549  18.536  0.00  0.00    +0.000 A 
ATOM     16  C   UNL     1       4.004   5.589  18.059  0.00  0.00    +0.000 A 
BRANCH  11  17
ATOM     17  C   UNL     1       6.129   4.816  16.684  0.00  0.00    +0.000 C 
ATOM     18  C   UNL     1       7.225   4.777  17.785  0.00  0.00    +0.000 C 
ATOM     19  O   UNL     1       7.689   6.104  17.469  0.00  0.00    +0.000 OA
ATOM     20  C   UNL     1       6.662   6.266  16.468  0.00  0.00    +0.000 C 
BRANCH  17  21
ATOM     21  C   UNL     1       6.458   3.864  15.507  0.00  0.00    +0.000 C 
BRANCH  21  27
ATOM     22  C   UNL     1       5.803   3.332  12.467  0.00  0.00    +0.000 C 
ATOM     23  N   UNL     1       6.738   4.283  13.001  0.00  0.00    +0.000 N 
ATOM     24  C   UNL     1       7.524   5.119  12.249  0.00  0.00    +0.000 A 
ATOM     25  N   UNL     1       8.282   5.833  13.045  0.00  0.00    +0.000 NA
ATOM     26  N   UNL     1       8.007   5.455  14.334  0.00  0.00    +0.000 NA
ATOM     27  C   UNL     1       7.056   4.548  14.314  0.00  0.00    +0.000 A 
ENDBRANCH  21  27
ENDBRANCH  17  21
ENDBRANCH  11  17
ENDBRANCH   1  15
BRANCH   8  28
ATOM     28  C   UNL     1       1.148  10.850  18.298  0.00  0.00    +0.000 C 
ATOM     29  F   UNL     1       2.428  11.000  17.870  0.00  0.00    +0.000 F 
ATOM     30  F   UNL     1       0.478  10.238  17.284  0.00  0.00    +0.000 F 
ATOM     31  F   UNL     1       0.639  12.110  18.380  0.00  0.00    +0.000 F 
ENDBRANCH   8  28
BRANCH   6  32
ATOM     32  C   UNL     1      -0.614  10.711  23.003  0.00  0.00    +0.000 C 
BRANCH  32  33
ATOM     33  N   UNL     1      -1.589  11.769  22.647  0.00  0.00    +0.000 NA
ATOM     34  C   UNL     1      -0.907  13.055  22.966  0.00  0.00    +0.000 C 
ATOM     35  C   UNL     1      -1.760  14.203  22.470  0.00  0.00    +0.000 C 
ATOM     36  O   UNL     1      -2.863  14.288  23.358  0.00  0.00    +0.000 OA
ATOM     37  C   UNL     1      -3.722  13.112  23.375  0.00  0.00    +0.000 C 
ATOM     38  C   UNL     1      -4.909  13.204  22.362  0.00  0.00    +0.000 C 
ATOM     39  C   UNL     1      -5.784  13.808  23.473  0.00  0.00    +0.000 C 
ATOM     40  C   UNL     1      -4.800  13.240  24.508  0.00  0.00    +0.000 C 
ATOM     41  C   UNL     1      -2.896  11.747  23.389  0.00  0.00    +0.000 C 
ENDBRANCH  32  33
ENDBRANCH   6  32
TORSDOF 7
ENDMDL
MODEL 6
REMARK VINA RESULT:      -9.1      4.174     11.417
REMARK  Name = 
REMARK  8 active torsions:
REMARK  status: ('A' for Active; 'I' for Inactive)
REMARK    1  A    between atoms: C_1  and  N_2
REMARK    2  A    between atoms: C_6  and  C_7
REMARK    3  A    between atoms: C_7  and  C_8
REMARK    4  A    between atoms: C_8  and  C_9
REMARK    5  A    between atoms: C_13  and  N_14
REMARK    6  A    between atoms: C_19  and  C_20
REMARK    7  A    between atoms: C_20  and  N_21
REMARK    8  A    between atoms: C_31  and  C_32
REMARK                            x       y       z     vdW  Elec       q    Type
REMARK                         _______ _______ _______ _____ _____    ______ ____
ROOT
ATOM      1  N   UNL     1      -2.359  11.038  18.518  0.00  0.00    +0.000 N 
ATOM      2  C   UNL     1      -1.692  10.956  19.799  0.00  0.00    +0.000 C 
ATOM      3  C   UNL     1      -0.488  10.135  19.542  0.00  0.00    +0.000 A 
ATOM      4  C   UNL     1      -0.382   9.839  18.185  0.00  0.00    +0.000 A 
ATOM      5  C   UNL     1       0.699   9.097  17.699  0.00  0.00    +0.000 A 
ATOM      6  C   UNL     1       1.687   8.652  18.612  0.00  0.00    +0.000 A 
ATOM      7  C   UNL     1       1.513   8.935  19.995  0.00  0.00    +0.000 A 
ATOM      8  C   UNL     1       0.428   9.678  20.479  0.00  0.00    +0.000 A 
ATOM      9  C   UNL     1      -1.610  10.386  17.517  0.00  0.00    +0.000 C 
ATOM     10  O   UNL     1      -1.851  10.240  16.337  0.00  0.00    +0.000 OA
ENDROOT
BRANCH   1  15
ATOM     11  C   UNL     1      -5.373  12.996  19.695  0.00  0.00    +0.000 A 
ATOM     12  C   UNL     1      -6.227  12.803  18.595  0.00  0.00    +0.000 A 
ATOM     13  C   UNL     1      -5.807  12.086  17.464  0.00  0.00    +0.000 A 
ATOM     14  C   UNL     1      -4.525  11.508  17.395  0.00  0.00    +0.000 A 
ATOM     15  C   UNL     1      -3.650  11.648  18.460  0.00  0.00    +0.000 A 
ATOM     16  C   UNL     1      -4.095  12.410  19.563  0.00  0.00    +0.000 A 
BRANCH  11  17
ATOM     17  C   UNL     1      -5.781  13.826  21.033  0.00  0.00    +0.000 C 
ATOM     18  C   UNL     1      -6.128  12.978  22.288  0.00  0.00    +0.000 C 
ATOM     19  O   UNL     1      -7.462  13.516  22.370  0.00  0.00    +0.000 OA
ATOM     20  C   UNL     1      -7.263  14.293  21.171  0.00  0.00    +0.000 C 
BRANCH  17  21
ATOM     21  C   UNL     1      -4.756  14.942  21.355  0.00  0.00    +0.000 C 
BRANCH  21  27
ATOM     22  C   UNL     1      -5.384  16.147  24.203  0.00  0.00    +0.000 C 
ATOM     23  N   UNL     1      -4.302  15.269  23.849  0.00  0.00    +0.000 N 
ATOM     24  C   UNL     1      -3.340  14.821  24.718  0.00  0.00    +0.000 A 
ATOM     25  N   UNL     1      -2.488  14.066  24.067  0.00  0.00    +0.000 NA
ATOM     26  N   UNL     1      -2.882  14.028  22.754  0.00  0.00    +0.000 NA
ATOM     27  C   UNL     1      -3.990  14.722  22.625  0.00  0.00    +0.000 A 
ENDBRANCH  21  27
ENDBRANCH  17  21
ENDBRANCH  11  17
ENDBRANCH   1  15
BRANCH   8  28
ATOM     28  C   UNL     1       0.247   9.905  21.961  0.00  0.00    +0.000 C 
ATOM     29  F   UNL     1      -0.837   9.283  22.490  0.00  0.00    +0.000 F 
ATOM     30  F   UNL     1       1.319   9.477  22.681  0.00  0.00    +0.000 F 
ATOM     31  F   UNL     1       0.095  11.225  22.262  0.00  0.00    +0.000 F 
ENDBRANCH   8  28
BRANCH   6  32
ATOM     32  C   UNL     1       2.802   7.680  18.249  0.00  0.00    +0.000 C 
BRANCH  32  33
ATOM     33  N   UNL     1       3.090   6.483  19.075  0.00  0.00    +0.000 NA
ATOM     34  C   UNL     1       3.921   5.600  18.210  0.00  0.00    +0.000 C 
ATOM     35  C   UNL     1       4.414   4.427  19.032  0.00  0.00    +0.000 C 
ATOM     36  O   UNL     1       3.291   3.584  19.229  0.00  0.00    +0.000 OA
ATOM     37  C   UNL     1       2.201   4.188  19.983  0.00  0.00    +0.000 C 
ATOM     38  C   UNL     1       2.298   3.923  21.520  0.00  0.00    +0.000 C 
ATOM     39  C   UNL     1       1.423   2.671  21.340  0.00  0.00    +0.000 C 
ATOM     40  C   UNL     1       0.951   3.239  19.992  0.00  0.00    +0.000 C 
ATOM     41  C   UNL     1       1.899   5.689  19.532  0.00  0.00    +0.000 C 
ENDBRANCH  32  33
ENDBRANCH   6  32
TORSDOF 7
ENDMDL
MODEL 7
REMARK VINA RESULT:      -9.1      1.110      1.289
REMARK  Name = 
REMARK  8 active torsions:
REMARK  status: ('A' for Active; 'I' for Inactive)
REMARK    1  A    between atoms: C_1  and  N_2
REMARK    2  A    between atoms: C_6  and  C_7
REMARK    3  A    between atoms: C_7  and  C_8
REMARK    4  A    between atoms: C_8  and  C_9
REMARK    5  A    between atoms: C_13  and  N_14
REMARK    6  A    between atoms: C_19  and  C_20
REMARK    7  A    between atoms: C_20  and  N_21
REMARK    8  A    between atoms: C_31  and  C_32
REMARK                            x       y       z     vdW  Elec       q    Type
REMARK                         _______ _______ _______ _____ _____    ______ ____
ROOT
ATOM      1  N   UNL     1       2.000   7.635  18.942  0.00  0.00    +0.000 N 
ATOM      2  C   UNL     1       1.321   7.878  20.195  0.00  0.00    +0.000 C 
ATOM      3  C   UNL     1       1.002   9.323  20.173  0.00  0.00    +0.000 A 
ATOM      4  C   UNL     1       1.364   9.882  18.949  0.00  0.00    +0.000 A 
ATOM      5  C   UNL     1       1.127  11.234  18.685  0.00  0.00    +0.000 A 
ATOM      6  C   UNL     1       0.511  12.027  19.685  0.00  0.00    +0.000 A 
ATOM      7  C   UNL     1       0.203  11.428  20.936  0.00  0.00    +0.000 A 
ATOM      8  C   UNL     1       0.443  10.072  21.199  0.00  0.00    +0.000 A 
ATOM      9  C   UNL     1       2.047   8.805  18.157  0.00  0.00    +0.000 C 
ATOM     10  O   UNL     1       2.537   8.989  17.063  0.00  0.00    +0.000 OA
ENDROOT
BRANCH   1  15
ATOM     11  C   UNL     1       4.556   5.078  17.829  0.00  0.00    +0.000 A 
ATOM     12  C   UNL     1       3.830   3.897  18.067  0.00  0.00    +0.000 A 
ATOM     13  C   UNL     1       2.545   3.932  18.629  0.00  0.00    +0.000 A 
ATOM     14  C   UNL     1       1.918   5.151  18.952  0.00  0.00    +0.000 A 
ATOM     15  C   UNL     1       2.578   6.346  18.719  0.00  0.00    +0.000 A 
ATOM     16  C   UNL     1       3.886   6.268  18.188  0.00  0.00    +0.000 A 
BRANCH  11  17
ATOM     17  C   UNL     1       6.053   5.118  17.195  0.00  0.00    +0.000 C 
ATOM     18  C   UNL     1       7.229   5.081  18.210  0.00  0.00    +0.000 C 
ATOM     19  O   UNL     1       7.744   6.351  17.767  0.00  0.00    +0.000 OA
ATOM     20  C   UNL     1       6.651   6.514  16.838  0.00  0.00    +0.000 C 
BRANCH  17  21
ATOM     21  C   UNL     1       6.230   4.072  16.067  0.00  0.00    +0.000 C 
BRANCH  21  27
ATOM     22  C   UNL     1       5.426   3.463  13.077  0.00  0.00    +0.000 C 
ATOM     23  N   UNL     1       6.484   4.320  13.536  0.00  0.00    +0.000 N 
ATOM     24  C   UNL     1       7.342   5.013  12.720  0.00  0.00    +0.000 A 
ATOM     25  N   UNL     1       8.204   5.670  13.457  0.00  0.00    +0.000 NA
ATOM     26  N   UNL     1       7.923   5.397  14.771  0.00  0.00    +0.000 NA
ATOM     27  C   UNL     1       6.870   4.613  14.824  0.00  0.00    +0.000 A 
ENDBRANCH  21  27
ENDBRANCH  17  21
ENDBRANCH  11  17
ENDBRANCH   1  15
BRANCH   8  28
ATOM     28  C   UNL     1       0.158   9.486  22.562  0.00  0.00    +0.000 C 
ATOM     29  F   UNL     1      -0.434  10.351  23.425  0.00  0.00    +0.000 F 
ATOM     30  F   UNL     1      -0.658   8.400  22.494  0.00  0.00    +0.000 F 
ATOM     31  F   UNL     1       1.293   9.066  23.186  0.00  0.00    +0.000 F 
ENDBRANCH   8  28
BRANCH   6  32
ATOM     32  C   UNL     1       0.374  13.542  19.602  0.00  0.00    +0.000 C 
BRANCH  32  33
ATOM     33  N   UNL     1       1.527  14.442  19.844  0.00  0.00    +0.000 NA
ATOM     34  C   UNL     1       1.101  15.773  19.329  0.00  0.00    +0.000 C 
ATOM     35  C   UNL     1       2.152  16.801  19.694  0.00  0.00    +0.000 C 
ATOM     36  O   UNL     1       3.258  16.556  18.841  0.00  0.00    +0.000 OA
ATOM     37  C   UNL     1       3.880  15.250  19.014  0.00  0.00    +0.000 C 
ATOM     38  C   UNL     1       5.055  15.263  20.045  0.00  0.00    +0.000 C 
ATOM     39  C   UNL     1       6.038  15.533  18.892  0.00  0.00    +0.000 C 
ATOM     40  C   UNL     1       4.973  15.017  17.912  0.00  0.00    +0.000 C 
ATOM     41  C   UNL     1       2.813  14.074  19.157  0.00  0.00    +0.000 C 
ENDBRANCH  32  33
ENDBRANCH   6  32
TORSDOF 7
ENDMDL
MODEL 8
REMARK VINA RESULT:      -9.1      5.080     11.698
REMARK  Name = 
REMARK  8 active torsions:
REMARK  status: ('A' for Active; 'I' for Inactive)
REMARK    1  A    between atoms: C_1  and  N_2
REMARK    2  A    between atoms: C_6  and  C_7
REMARK    3  A    between atoms: C_7  and  C_8
REMARK    4  A    between atoms: C_8  and  C_9
REMARK    5  A    between atoms: C_13  and  N_14
REMARK    6  A    between atoms: C_19  and  C_20
REMARK    7  A    between atoms: C_20  and  N_21
REMARK    8  A    between atoms: C_31  and  C_32
REMARK                            x       y       z     vdW  Elec       q    Type
REMARK                         _______ _______ _______ _____ _____    ______ ____
ROOT
ATOM      1  N   UNL     1      -2.255  12.702  20.584  0.00  0.00    +0.000 N 
ATOM      2  C   UNL     1      -2.703  11.944  19.437  0.00  0.00    +0.000 C 
ATOM      3  C   UNL     1      -1.532  11.125  19.050  0.00  0.00    +0.000 A 
ATOM      4  C   UNL     1      -0.495  11.298  19.964  0.00  0.00    +0.000 A 
ATOM      5  C   UNL     1       0.707  10.598  19.821  0.00  0.00    +0.000 A 
ATOM      6  C   UNL     1       0.851   9.707  18.728  0.00  0.00    +0.000 A 
ATOM      7  C   UNL     1      -0.214   9.599  17.792  0.00  0.00    +0.000 A 
ATOM      8  C   UNL     1      -1.417  10.304  17.938  0.00  0.00    +0.000 A 
ATOM      9  C   UNL     1      -0.939  12.347  20.942  0.00  0.00    +0.000 C 
ATOM     10  O   UNL     1      -0.235  12.771  21.835  0.00  0.00    +0.000 OA
ENDROOT
BRANCH   1  15
ATOM     11  C   UNL     1      -5.411  14.237  21.997  0.00  0.00    +0.000 A 
ATOM     12  C   UNL     1      -5.019  15.587  22.040  0.00  0.00    +0.000 A 
ATOM     13  C   UNL     1      -3.728  15.984  21.661  0.00  0.00    +0.000 A 
ATOM     14  C   UNL     1      -2.780  15.053  21.197  0.00  0.00    +0.000 A 
ATOM     15  C   UNL     1      -3.119  13.712  21.112  0.00  0.00    +0.000 A 
ATOM     16  C   UNL     1      -4.415  13.346  21.540  0.00  0.00    +0.000 A 
BRANCH  11  17
ATOM     17  C   UNL     1      -6.882  13.698  22.433  0.00  0.00    +0.000 C 
ATOM     18  C   UNL     1      -7.430  14.221  23.789  0.00  0.00    +0.000 C 
ATOM     19  O   UNL     1      -7.529  12.894  24.341  0.00  0.00    +0.000 OA
ATOM     20  C   UNL     1      -6.963  12.314  23.147  0.00  0.00    +0.000 C 
BRANCH  17  21
ATOM     21  C   UNL     1      -7.916  13.857  21.291  0.00  0.00    +0.000 C 
BRANCH  21  27
ATOM     22  C   UNL     1      -7.026  15.260  18.609  0.00  0.00    +0.000 C 
ATOM     23  N   UNL     1      -7.134  13.849  18.858  0.00  0.00    +0.000 N 
ATOM     24  C   UNL     1      -6.875  12.867  17.935  0.00  0.00    +0.000 A 
ATOM     25  N   UNL     1      -7.102  11.695  18.476  0.00  0.00    +0.000 NA
ATOM     26  N   UNL     1      -7.529  11.904  19.762  0.00  0.00    +0.000 NA
ATOM     27  C   UNL     1      -7.518  13.195  20.006  0.00  0.00    +0.000 A 
ENDBRANCH  21  27
ENDBRANCH  17  21
ENDBRANCH  11  17
ENDBRANCH   1  15
BRANCH   8  28
ATOM     28  C   UNL     1      -2.500  10.209  16.890  0.00  0.00    +0.000 C 
ATOM     29  F   UNL     1      -2.183   9.416  15.834  0.00  0.00    +0.000 F 
ATOM     30  F   UNL     1      -3.664   9.718  17.396  0.00  0.00    +0.000 F 
ATOM     31  F   UNL     1      -2.805  11.424  16.357  0.00  0.00    +0.000 F 
ENDBRANCH   8  28
BRANCH   6  32
ATOM     32  C   UNL     1       2.164   9.036  18.348  0.00  0.00    +0.000 C 
BRANCH  32  33
ATOM     33  N   UNL     1       2.317   7.562  18.362  0.00  0.00    +0.000 NA
ATOM     34  C   UNL     1       2.308   7.180  19.802  0.00  0.00    +0.000 C 
ATOM     35  C   UNL     1       2.282   5.670  19.911  0.00  0.00    +0.000 C 
ATOM     36  O   UNL     1       3.580   5.225  19.554  0.00  0.00    +0.000 OA
ATOM     37  C   UNL     1       3.972   5.534  18.185  0.00  0.00    +0.000 C 
ATOM     38  C   UNL     1       3.625   4.392  17.175  0.00  0.00    +0.000 C 
ATOM     39  C   UNL     1       5.025   3.796  17.398  0.00  0.00    +0.000 C 
ATOM     40  C   UNL     1       5.478   5.156  17.950  0.00  0.00    +0.000 C 
ATOM     41  C   UNL     1       3.579   7.018  17.752  0.00  0.00    +0.000 C 
ENDBRANCH  32  33
ENDBRANCH   6  32
TORSDOF 7
ENDMDL
MODEL 9
REMARK VINA RESULT:      -9.0      1.525      1.953
REMARK  Name = 
REMARK  8 active torsions:
REMARK  status: ('A' for Active; 'I' for Inactive)
REMARK    1  A    between atoms: C_1  and  N_2
REMARK    2  A    between atoms: C_6  and  C_7
REMARK    3  A    between atoms: C_7  and  C_8
REMARK    4  A    between atoms: C_8  and  C_9
REMARK    5  A    between atoms: C_13  and  N_14
REMARK    6  A    between atoms: C_19  and  C_20
REMARK    7  A    between atoms: C_20  and  N_21
REMARK    8  A    between atoms: C_31  and  C_32
REMARK                            x       y       z     vdW  Elec       q    Type
REMARK                         _______ _______ _______ _____ _____    ______ ____
ROOT
ATOM      1  N   UNL     1       2.237   7.552  19.413  0.00  0.00    +0.000 N 
ATOM      2  C   UNL     1       1.463   7.863  20.593  0.00  0.00    +0.000 C 
ATOM      3  C   UNL     1       0.914   9.213  20.335  0.00  0.00    +0.000 A 
ATOM      4  C   UNL     1       1.243   9.634  19.049  0.00  0.00    +0.000 A 
ATOM      5  C   UNL     1       0.804  10.871  18.569  0.00  0.00    +0.000 A 
ATOM      6  C   UNL     1       0.015  11.690  19.415  0.00  0.00    +0.000 A 
ATOM      7  C   UNL     1      -0.256  11.243  20.737  0.00  0.00    +0.000 A 
ATOM      8  C   UNL     1       0.188  10.002  21.216  0.00  0.00    +0.000 A 
ATOM      9  C   UNL     1       2.134   8.581  18.455  0.00  0.00    +0.000 C 
ATOM     10  O   UNL     1       2.644   8.677  17.359  0.00  0.00    +0.000 OA
ENDROOT
BRANCH   1  15
ATOM     11  C   UNL     1       5.251   5.340  18.839  0.00  0.00    +0.000 A 
ATOM     12  C   UNL     1       4.702   4.094  19.192  0.00  0.00    +0.000 A 
ATOM     13  C   UNL     1       3.384   3.984  19.659  0.00  0.00    +0.000 A 
ATOM     14  C   UNL     1       2.547   5.111  19.766  0.00  0.00    +0.000 A 
ATOM     15  C   UNL     1       3.028   6.361  19.411  0.00  0.00    +0.000 A 
ATOM     16  C   UNL     1       4.373   6.436  18.984  0.00  0.00    +0.000 A 
BRANCH  11  17
ATOM     17  C   UNL     1       6.773   5.549  18.305  0.00  0.00    +0.000 C 
ATOM     18  C   UNL     1       7.838   5.890  19.384  0.00  0.00    +0.000 C 
ATOM     19  O   UNL     1       8.171   7.145  18.761  0.00  0.00    +0.000 OA
ATOM     20  C   UNL     1       7.158   6.955  17.750  0.00  0.00    +0.000 C 
BRANCH  17  21
ATOM     21  C   UNL     1       7.229   4.386  17.390  0.00  0.00    +0.000 C 
BRANCH  21  27
ATOM     22  C   UNL     1       4.607   3.489  15.881  0.00  0.00    +0.000 C 
ATOM     23  N   UNL     1       5.740   4.174  15.323  0.00  0.00    +0.000 N 
ATOM     24  C   UNL     1       5.866   4.540  14.007  0.00  0.00    +0.000 A 
ATOM     25  N   UNL     1       7.030   5.115  13.828  0.00  0.00    +0.000 NA
ATOM     26  N   UNL     1       7.686   5.116  15.031  0.00  0.00    +0.000 NA
ATOM     27  C   UNL     1       6.901   4.582  15.940  0.00  0.00    +0.000 A 
ENDBRANCH  21  27
ENDBRANCH  17  21
ENDBRANCH  11  17
ENDBRANCH   1  15
BRANCH   8  28
ATOM     28  C   UNL     1      -0.069   9.590  22.646  0.00  0.00    +0.000 C 
ATOM     29  F   UNL     1       1.055   9.311  23.354  0.00  0.00    +0.000 F 
ATOM     30  F   UNL     1      -0.730  10.550  23.347  0.00  0.00    +0.000 F 
ATOM     31  F   UNL     1      -0.839   8.469  22.725  0.00  0.00    +0.000 F 
ENDBRANCH   8  28
BRANCH   6  32
ATOM     32  C   UNL     1      -0.362  13.130  19.091  0.00  0.00    +0.000 C 
BRANCH  32  33
ATOM     33  N   UNL     1      -0.722  14.098  20.154  0.00  0.00    +0.000 NA
ATOM     34  C   UNL     1      -1.213  15.307  19.435  0.00  0.00    +0.000 C 
ATOM     35  C   UNL     1      -1.771  16.288  20.444  0.00  0.00    +0.000 C 
ATOM     36  O   UNL     1      -0.652  16.845  21.114  0.00  0.00    +0.000 OA
ATOM     37  C   UNL     1       0.145  15.885  21.867  0.00  0.00    +0.000 C 
ATOM     38  C   UNL     1      -0.307  15.749  23.358  0.00  0.00    +0.000 C 
ATOM     39  C   UNL     1       0.711  16.835  23.745  0.00  0.00    +0.000 C 
ATOM     40  C   UNL     1       1.444  16.569  22.421  0.00  0.00    +0.000 C 
ATOM     41  C   UNL     1       0.393  14.528  21.066  0.00  0.00    +0.000 C 
ENDBRANCH  32  33
ENDBRANCH   6  32
TORSDOF 7
ENDMDL
