MODEL 1
REMARK VINA RESULT:      -9.2      0.000      0.000
REMARK  Name = 
REMARK  9 active torsions:
REMARK  status: ('A' for Active; 'I' for Inactive)
REMARK    1  A    between atoms: C_1  and  C_2
REMARK    2  A    between atoms: C_2  and  C_3
REMARK    3  A    between atoms: C_2  and  C_10
REMARK    4  A    between atoms: C_3  and  C_4
REMARK    5  A    between atoms: N_8  and  C_9
REMARK    6  A    between atoms: C_14  and  N_15
REMARK    7  A    between atoms: C_20  and  C_21
REMARK    8  A    between atoms: C_26  and  O_27
REMARK    9  A    between atoms: C_30  and  C_31
REMARK                            x       y       z     vdW  Elec       q    Type
REMARK                         _______ _______ _______ _____ _____    ______ ____
ROOT
ATOM      1  N   UNL     1       2.503   7.407  18.921  0.00  0.00    +0.000 N 
ATOM      2  C   UNL     1       2.644   5.985  19.167  0.00  0.00    +0.000 C 
ATOM      3  C   UNL     1       3.620   5.519  18.166  0.00  0.00    +0.000 A 
ATOM      4  C   UNL     1       4.029   6.590  17.379  0.00  0.00    +0.000 A 
ATOM      5  C   UNL     1       4.949   6.396  16.368  0.00  0.00    +0.000 A 
ATOM      6  C   UNL     1       5.509   5.111  16.239  0.00  0.00    +0.000 A 
ATOM      7  C   UNL     1       5.036   4.037  17.030  0.00  0.00    +0.000 A 
ATOM      8  C   UNL     1       4.053   4.207  18.003  0.00  0.00    +0.000 A 
ATOM      9  C   UNL     1       3.312   7.811  17.853  0.00  0.00    +0.000 C 
ATOM     10  O   UNL     1       3.458   8.911  17.351  0.00  0.00    +0.000 OA
ENDROOT
BRANCH   6  11
ATOM     11  C   UNL     1       6.558   4.767  15.239  0.00  0.00    +0.000 C 
ATOM     12  O   UNL     1       7.735   4.900  15.570  0.00  0.00    +0.000 OA
ATOM     13  N   UNL     1       6.207   4.324  13.981  0.00  0.00    +0.000 N 
ATOM     14  C   UNL     1       7.234   3.829  13.074  0.00  0.00    +0.000 C 
ATOM     15  C   UNL     1       6.478   3.259  11.876  0.00  0.00    +0.000 C 
ATOM     16  C   UNL     1       5.032   3.160  12.360  0.00  0.00    +0.000 C 
ATOM     17  C   UNL     1       4.925   4.355  13.300  0.00  0.00    +0.000 C 
BRANCH  16  18
ATOM     18  O   UNL     1       4.102   3.194  11.296  0.00  0.00    +0.000 OA
ATOM     19  H   UNL     1       3.475   2.460  11.408  0.00  0.00    +0.000 HD
ENDBRANCH  16  18
ENDBRANCH   6  11
BRANCH   1  24
ATOM     20  C   UNL     1      -0.044  10.023  19.689  0.00  0.00    +0.000 A 
ATOM     21  C   UNL     1      -0.303   9.773  21.035  0.00  0.00    +0.000 A 
ATOM     22  C   UNL     1       0.373   8.740  21.708  0.00  0.00    +0.000 A 
ATOM     23  C   UNL     1       1.317   7.931  21.049  0.00  0.00    +0.000 A 
ATOM     24  C   UNL     1       1.559   8.128  19.696  0.00  0.00    +0.000 A 
ATOM     25  C   UNL     1       0.840   9.157  19.051  0.00  0.00    +0.000 A 
BRANCH  20  27
ATOM     26  C   UNL     1      -0.171  12.623  19.502  0.00  0.00    +0.000 C 
ATOM     27  C   UNL     1      -0.597  11.241  18.946  0.00  0.00    +0.000 C 
BRANCH  27  28
ATOM     28  C   UNL     1      -2.142  11.179  18.838  0.00  0.00    +0.000 C 
BRANCH  28  29
ATOM     29  C   UNL     1      -2.628  10.805  17.472  0.00  0.00    +0.000 A 
ATOM     30  N   UNL     1      -1.982  10.078  16.580  0.00  0.00    +0.000 NA
ATOM     31  N   UNL     1      -2.731  10.042  15.429  0.00  0.00    +0.000 NA
ATOM     32  C   UNL     1      -3.832  10.719  15.651  0.00  0.00    +0.000 A 
ATOM     33  N   UNL     1      -3.825  11.190  16.927  0.00  0.00    +0.000 N 
ATOM     34  C   UNL     1      -4.889  11.916  17.564  0.00  0.00    +0.000 C 
ENDBRANCH  28  29
ENDBRANCH  27  28
ENDBRANCH  20  27
ENDBRANCH   1  24
BRANCH   8  35
ATOM     35  C   UNL     1       3.538   3.077  18.857  0.00  0.00    +0.000 C 
ATOM     36  C   UNL     1       2.197   2.426  18.573  0.00  0.00    +0.000 C 
ATOM     37  C   UNL     1       3.460   1.688  18.265  0.00  0.00    +0.000 C 
ENDBRANCH   8  35
TORSDOF 7
ENDMDL
MODEL 2
REMARK VINA RESULT:      -9.1      2.783      4.341
REMARK  Name = 
REMARK  9 active torsions:
REMARK  status: ('A' for Active; 'I' for Inactive)
REMARK    1  A    between atoms: C_1  and  C_2
REMARK    2  A    between atoms: C_2  and  C_3
REMARK    3  A    between atoms: C_2  and  C_10
REMARK    4  A    between atoms: C_3  and  C_4
REMARK    5  A    between atoms: N_8  and  C_9
REMARK    6  A    between atoms: C_14  and  N_15
REMARK    7  A    between atoms: C_20  and  C_21
REMARK    8  A    between atoms: C_26  and  O_27
REMARK    9  A    between atoms: C_30  and  C_31
REMARK                            x       y       z     vdW  Elec       q    Type
REMARK                         _______ _______ _______ _____ _____    ______ ____
ROOT
ATOM      1  N   UNL     1       1.061   9.650  19.373  0.00  0.00    +0.000 N 
ATOM      2  C   UNL     1       1.006   8.385  20.079  0.00  0.00    +0.000 C 
ATOM      3  C   UNL     1       1.970   7.516  19.381  0.00  0.00    +0.000 A 
ATOM      4  C   UNL     1       2.555   8.215  18.331  0.00  0.00    +0.000 A 
ATOM      5  C   UNL     1       3.497   7.603  17.530  0.00  0.00    +0.000 A 
ATOM      6  C   UNL     1       3.896   6.298  17.879  0.00  0.00    +0.000 A 
ATOM      7  C   UNL     1       3.246   5.604  18.928  0.00  0.00    +0.000 A 
ATOM      8  C   UNL     1       2.240   6.187  19.695  0.00  0.00    +0.000 A 
ATOM      9  C   UNL     1       1.973   9.591  18.313  0.00  0.00    +0.000 C 
ATOM     10  O   UNL     1       2.285  10.439  17.497  0.00  0.00    +0.000 OA
ENDROOT
BRANCH   6  11
ATOM     11  C   UNL     1       4.946   5.535  17.149  0.00  0.00    +0.000 C 
ATOM     12  O   UNL     1       4.714   5.207  15.985  0.00  0.00    +0.000 OA
ATOM     13  N   UNL     1       6.131   5.204  17.771  0.00  0.00    +0.000 N 
ATOM     14  C   UNL     1       7.215   4.611  16.998  0.00  0.00    +0.000 C 
ATOM     15  C   UNL     1       8.409   4.557  17.948  0.00  0.00    +0.000 C 
ATOM     16  C   UNL     1       8.002   5.462  19.111  0.00  0.00    +0.000 C 
ATOM     17  C   UNL     1       6.495   5.244  19.176  0.00  0.00    +0.000 C 
BRANCH  16  18
ATOM     18  O   UNL     1       8.671   5.133  20.311  0.00  0.00    +0.000 OA
ATOM     19  H   UNL     1       8.706   4.165  20.393  0.00  0.00    +0.000 HD
ENDBRANCH  16  18
ENDBRANCH   6  11
BRANCH   1  24
ATOM     20  C   UNL     1      -2.121  11.591  19.539  0.00  0.00    +0.000 A 
ATOM     21  C   UNL     1      -1.757  12.653  20.364  0.00  0.00    +0.000 A 
ATOM     22  C   UNL     1      -0.447  12.745  20.866  0.00  0.00    +0.000 A 
ATOM     23  C   UNL     1       0.525  11.774  20.560  0.00  0.00    +0.000 A 
ATOM     24  C   UNL     1       0.176  10.681  19.779  0.00  0.00    +0.000 A 
ATOM     25  C   UNL     1      -1.156  10.611  19.318  0.00  0.00    +0.000 A 
BRANCH  20  27
ATOM     26  C   UNL     1      -3.390  11.513  17.259  0.00  0.00    +0.000 C 
ATOM     27  C   UNL     1      -3.464  11.526  18.807  0.00  0.00    +0.000 C 
BRANCH  27  28
ATOM     28  C   UNL     1      -4.411  12.661  19.272  0.00  0.00    +0.000 C 
BRANCH  28  29
ATOM     29  C   UNL     1      -5.567  12.173  20.089  0.00  0.00    +0.000 A 
ATOM     30  N   UNL     1      -5.663  12.195  21.405  0.00  0.00    +0.000 NA
ATOM     31  N   UNL     1      -6.837  11.577  21.763  0.00  0.00    +0.000 NA
ATOM     32  C   UNL     1      -7.448  11.219  20.659  0.00  0.00    +0.000 A 
ATOM     33  N   UNL     1      -6.705  11.599  19.585  0.00  0.00    +0.000 N 
ATOM     34  C   UNL     1      -7.076  11.446  18.206  0.00  0.00    +0.000 C 
ENDBRANCH  28  29
ENDBRANCH  27  28
ENDBRANCH  20  27
ENDBRANCH   1  24
BRANCH   8  35
ATOM     35  C   UNL     1       1.539   5.465  20.816  0.00  0.00    +0.000 C 
ATOM     36  C   UNL     1       0.854   4.132  20.585  0.00  0.00    +0.000 C 
ATOM     37  C   UNL     1       2.137   4.183  21.350  0.00  0.00    +0.000 C 
ENDBRANCH   8  35
TORSDOF 7
ENDMDL
MODEL 3
REMARK VINA RESULT:      -9.0      3.147      9.820
REMARK  Name = 
REMARK  9 active torsions:
REMARK  status: ('A' for Active; 'I' for Inactive)
REMARK    1  A    between atoms: C_1  and  C_2
REMARK    2  A    between atoms: C_2  and  C_3
REMARK    3  A    between atoms: C_2  and  C_10
REMARK    4  A    between atoms: C_3  and  C_4
REMARK    5  A    between atoms: N_8  and  C_9
REMARK    6  A    between atoms: C_14  and  N_15
REMARK    7  A    between atoms: C_20  and  C_21
REMARK    8  A    between atoms: C_26  and  O_27
REMARK    9  A    between atoms: C_30  and  C_31
REMARK                            x       y       z     vdW  Elec       q    Type
REMARK                         _______ _______ _______ _____ _____    ______ ____
ROOT
ATOM      1  N   UNL     1       2.307   7.283  19.134  0.00  0.00    +0.000 N 
ATOM      2  C   UNL     1       1.486   7.589  20.288  0.00  0.00    +0.000 C 
ATOM      3  C   UNL     1       0.979   8.952  20.046  0.00  0.00    +0.000 A 
ATOM      4  C   UNL     1       1.469   9.423  18.833  0.00  0.00    +0.000 A 
ATOM      5  C   UNL     1       1.126  10.685  18.390  0.00  0.00    +0.000 A 
ATOM      6  C   UNL     1       0.204  11.416  19.164  0.00  0.00    +0.000 A 
ATOM      7  C   UNL     1      -0.238  10.920  20.414  0.00  0.00    +0.000 A 
ATOM      8  C   UNL     1       0.162   9.679  20.906  0.00  0.00    +0.000 A 
ATOM      9  C   UNL     1       2.329   8.358  18.238  0.00  0.00    +0.000 C 
ATOM     10  O   UNL     1       2.907   8.481  17.173  0.00  0.00    +0.000 OA
ENDROOT
BRANCH   6  11
ATOM     11  C   UNL     1      -0.308  12.761  18.782  0.00  0.00    +0.000 C 
ATOM     12  O   UNL     1      -1.426  12.828  18.272  0.00  0.00    +0.000 OA
ATOM     13  N   UNL     1       0.461  13.887  18.989  0.00  0.00    +0.000 N 
ATOM     14  C   UNL     1      -0.115  15.208  18.772  0.00  0.00    +0.000 C 
ATOM     15  C   UNL     1       0.936  16.197  19.271  0.00  0.00    +0.000 C 
ATOM     16  C   UNL     1       1.911  15.333  20.070  0.00  0.00    +0.000 C 
ATOM     17  C   UNL     1       1.871  14.013  19.308  0.00  0.00    +0.000 C 
BRANCH  16  18
ATOM     18  O   UNL     1       3.202  15.902  20.145  0.00  0.00    +0.000 OA
ATOM     19  H   UNL     1       3.206  16.731  19.637  0.00  0.00    +0.000 HD
ENDBRANCH  16  18
ENDBRANCH   6  11
BRANCH   1  24
ATOM     20  C   UNL     1       4.663   4.671  17.889  0.00  0.00    +0.000 A 
ATOM     21  C   UNL     1       4.443   3.640  18.801  0.00  0.00    +0.000 A 
ATOM     22  C   UNL     1       3.501   3.795  19.833  0.00  0.00    +0.000 A 
ATOM     23  C   UNL     1       2.764   4.985  19.981  0.00  0.00    +0.000 A 
ATOM     24  C   UNL     1       2.998   6.044  19.115  0.00  0.00    +0.000 A 
ATOM     25  C   UNL     1       3.971   5.859  18.110  0.00  0.00    +0.000 A 
BRANCH  20  27
ATOM     26  C   UNL     1       5.292   3.211  15.819  0.00  0.00    +0.000 C 
ATOM     27  C   UNL     1       5.526   4.506  16.637  0.00  0.00    +0.000 C 
BRANCH  27  28
ATOM     28  C   UNL     1       7.033   4.641  16.973  0.00  0.00    +0.000 C 
BRANCH  28  29
ATOM     29  C   UNL     1       7.431   6.026  17.377  0.00  0.00    +0.000 A 
ATOM     30  N   UNL     1       7.458   7.094  16.601  0.00  0.00    +0.000 NA
ATOM     31  N   UNL     1       7.961   8.144  17.330  0.00  0.00    +0.000 NA
ATOM     32  C   UNL     1       8.201   7.707  18.543  0.00  0.00    +0.000 A 
ATOM     33  N   UNL     1       7.855   6.394  18.628  0.00  0.00    +0.000 N 
ATOM     34  C   UNL     1       7.904   5.584  19.813  0.00  0.00    +0.000 C 
ENDBRANCH  28  29
ENDBRANCH  27  28
ENDBRANCH  20  27
ENDBRANCH   1  24
BRANCH   8  35
ATOM     35  C   UNL     1      -0.299   9.134  22.233  0.00  0.00    +0.000 C 
ATOM     36  C   UNL     1       0.431   9.474  23.518  0.00  0.00    +0.000 C 
ATOM     37  C   UNL     1      -0.907  10.080  23.243  0.00  0.00    +0.000 C 
ENDBRANCH   8  35
TORSDOF 7
ENDMDL
MODEL 4
REMARK VINA RESULT:      -8.9      1.927      2.929
REMARK  Name = 
REMARK  9 active torsions:
REMARK  status: ('A' for Active; 'I' for Inactive)
REMARK    1  A    between atoms: C_1  and  C_2
REMARK    2  A    between atoms: C_2  and  C_3
REMARK    3  A    between atoms: C_2  and  C_10
REMARK    4  A    between atoms: C_3  and  C_4
REMARK    5  A    between atoms: N_8  and  C_9
REMARK    6  A    between atoms: C_14  and  N_15
REMARK    7  A    between atoms: C_20  and  C_21
REMARK    8  A    between atoms: C_26  and  O_27
REMARK    9  A    between atoms: C_30  and  C_31
REMARK                            x       y       z     vdW  Elec       q    Type
REMARK                         _______ _______ _______ _____ _____    ______ ____
ROOT
ATOM      1  N   UNL     1       1.112   8.159  20.529  0.00  0.00    +0.000 N 
ATOM      2  C   UNL     1       1.282   6.868  21.169  0.00  0.00    +0.000 C 
ATOM      3  C   UNL     1       1.997   6.043  20.179  0.00  0.00    +0.000 A 
ATOM      4  C   UNL     1       2.233   6.791  19.031  0.00  0.00    +0.000 A 
ATOM      5  C   UNL     1       2.895   6.225  17.959  0.00  0.00    +0.000 A 
ATOM      6  C   UNL     1       3.390   4.917  18.120  0.00  0.00    +0.000 A 
ATOM      7  C   UNL     1       3.093   4.173  19.287  0.00  0.00    +0.000 A 
ATOM      8  C   UNL     1       2.360   4.710  20.343  0.00  0.00    +0.000 A 
ATOM      9  C   UNL     1       1.663   8.155  19.243  0.00  0.00    +0.000 C 
ATOM     10  O   UNL     1       1.709   9.037  18.405  0.00  0.00    +0.000 OA
ENDROOT
BRANCH   6  11
ATOM     11  C   UNL     1       4.177   4.201  17.078  0.00  0.00    +0.000 C 
ATOM     12  O   UNL     1       3.704   3.166  16.609  0.00  0.00    +0.000 OA
ATOM     13  N   UNL     1       5.401   4.687  16.668  0.00  0.00    +0.000 N 
ATOM     14  C   UNL     1       6.080   4.076  15.533  0.00  0.00    +0.000 C 
ATOM     15  C   UNL     1       7.285   4.971  15.250  0.00  0.00    +0.000 C 
ATOM     16  C   UNL     1       7.000   6.243  16.049  0.00  0.00    +0.000 C 
ATOM     17  C   UNL     1       6.253   5.701  17.262  0.00  0.00    +0.000 C 
BRANCH  16  18
ATOM     18  O   UNL     1       8.179   6.948  16.380  0.00  0.00    +0.000 OA
ATOM     19  H   UNL     1       8.943   6.449  16.048  0.00  0.00    +0.000 HD
ENDBRANCH  16  18
ENDBRANCH   6  11
BRANCH   1  24
ATOM     20  C   UNL     1      -0.907  11.264  20.978  0.00  0.00    +0.000 A 
ATOM     21  C   UNL     1      -1.047  11.307  22.364  0.00  0.00    +0.000 A 
ATOM     22  C   UNL     1      -0.463  10.313  23.168  0.00  0.00    +0.000 A 
ATOM     23  C   UNL     1       0.268   9.250  22.604  0.00  0.00    +0.000 A 
ATOM     24  C   UNL     1       0.382   9.157  21.223  0.00  0.00    +0.000 A 
ATOM     25  C   UNL     1      -0.242  10.159  20.451  0.00  0.00    +0.000 A 
BRANCH  20  27
ATOM     26  C   UNL     1      -1.127  13.837  20.604  0.00  0.00    +0.000 C 
ATOM     27  C   UNL     1      -1.351  12.404  20.059  0.00  0.00    +0.000 C 
BRANCH  27  28
ATOM     28  C   UNL     1      -2.831  12.237  19.632  0.00  0.00    +0.000 C 
BRANCH  28  29
ATOM     29  C   UNL     1      -2.992  11.673  18.254  0.00  0.00    +0.000 A 
ATOM     30  N   UNL     1      -2.039  11.507  17.357  0.00  0.00    +0.000 NA
ATOM     31  N   UNL     1      -2.613  11.045  16.197  0.00  0.00    +0.000 NA
ATOM     32  C   UNL     1      -3.899  10.909  16.418  0.00  0.00    +0.000 A 
ATOM     33  N   UNL     1      -4.178  11.261  17.703  0.00  0.00    +0.000 N 
ATOM     34  C   UNL     1      -5.463  11.178  18.340  0.00  0.00    +0.000 C 
ENDBRANCH  28  29
ENDBRANCH  27  28
ENDBRANCH  20  27
ENDBRANCH   1  24
BRANCH   8  35
ATOM     35  C   UNL     1       2.034   3.935  21.595  0.00  0.00    +0.000 C 
ATOM     36  C   UNL     1       1.099   2.741  21.558  0.00  0.00    +0.000 C 
ATOM     37  C   UNL     1       2.567   2.528  21.745  0.00  0.00    +0.000 C 
ENDBRANCH   8  35
TORSDOF 7
ENDMDL
MODEL 5
REMARK VINA RESULT:      -8.7      2.924      9.743
REMARK  Name = 
REMARK  9 active torsions:
REMARK  status: ('A' for Active; 'I' for Inactive)
REMARK    1  A    between atoms: C_1  and  C_2
REMARK    2  A    between atoms: C_2  and  C_3
REMARK    3  A    between atoms: C_2  and  C_10
REMARK    4  A    between atoms: C_3  and  C_4
REMARK    5  A    between atoms: N_8  and  C_9
REMARK    6  A    between atoms: C_14  and  N_15
REMARK    7  A    between atoms: C_20  and  C_21
REMARK    8  A    between atoms: C_26  and  O_27
REMARK    9  A    between atoms: C_30  and  C_31
REMARK                            x       y       z     vdW  Elec       q    Type
REMARK                         _______ _______ _______ _____ _____    ______ ____
ROOT
ATOM      1  N   UNL     1       2.355   7.049  19.137  0.00  0.00    +0.000 N 
ATOM      2  C   UNL     1       1.515   7.422  20.258  0.00  0.00    +0.000 C 
ATOM      3  C   UNL     1       1.134   8.822  20.000  0.00  0.00    +0.000 A 
ATOM      4  C   UNL     1       1.711   9.251  18.810  0.00  0.00    +0.000 A 
ATOM      5  C   UNL     1       1.494  10.538  18.358  0.00  0.00    +0.000 A 
ATOM      6  C   UNL     1       0.604  11.343  19.097  0.00  0.00    +0.000 A 
ATOM      7  C   UNL     1       0.071  10.885  20.325  0.00  0.00    +0.000 A 
ATOM      8  C   UNL     1       0.345   9.615  20.828  0.00  0.00    +0.000 A 
ATOM      9  C   UNL     1       2.504   8.118  18.247  0.00  0.00    +0.000 C 
ATOM     10  O   UNL     1       3.134   8.193  17.208  0.00  0.00    +0.000 OA
ENDROOT
BRANCH   6  11
ATOM     11  C   UNL     1       0.223  12.726  18.699  0.00  0.00    +0.000 C 
ATOM     12  O   UNL     1      -0.831  12.878  18.081  0.00  0.00    +0.000 OA
ATOM     13  N   UNL     1       1.038  13.794  19.010  0.00  0.00    +0.000 N 
ATOM     14  C   UNL     1       0.575  15.154  18.768  0.00  0.00    +0.000 C 
ATOM     15  C   UNL     1       1.632  16.061  19.394  0.00  0.00    +0.000 C 
ATOM     16  C   UNL     1       2.463  15.118  20.266  0.00  0.00    +0.000 C 
ATOM     17  C   UNL     1       2.414  13.819  19.471  0.00  0.00    +0.000 C 
BRANCH  16  18
ATOM     18  O   UNL     1       3.774  15.598  20.483  0.00  0.00    +0.000 OA
ATOM     19  H   UNL     1       4.015  15.436  21.410  0.00  0.00    +0.000 HD
ENDBRANCH  16  18
ENDBRANCH   6  11
BRANCH   1  24
ATOM     20  C   UNL     1       4.714   4.332  18.150  0.00  0.00    +0.000 A 
ATOM     21  C   UNL     1       4.235   3.260  18.902  0.00  0.00    +0.000 A 
ATOM     22  C   UNL     1       3.115   3.423  19.737  0.00  0.00    +0.000 A 
ATOM     23  C   UNL     1       2.455   4.661  19.844  0.00  0.00    +0.000 A 
ATOM     24  C   UNL     1       2.940   5.757  19.142  0.00  0.00    +0.000 A 
ATOM     25  C   UNL     1       4.082   5.559  18.338  0.00  0.00    +0.000 A 
BRANCH  20  27
ATOM     26  C   UNL     1       7.195   4.748  17.456  0.00  0.00    +0.000 C 
ATOM     27  C   UNL     1       5.802   4.182  17.085  0.00  0.00    +0.000 C 
BRANCH  27  28
ATOM     28  C   UNL     1       5.344   4.779  15.729  0.00  0.00    +0.000 C 
BRANCH  28  29
ATOM     29  C   UNL     1       6.460   4.940  14.744  0.00  0.00    +0.000 A 
ATOM     30  N   UNL     1       7.537   5.688  14.892  0.00  0.00    +0.000 NA
ATOM     31  N   UNL     1       8.267   5.629  13.729  0.00  0.00    +0.000 NA
ATOM     32  C   UNL     1       7.639   4.822  12.908  0.00  0.00    +0.000 A 
ATOM     33  N   UNL     1       6.518   4.342  13.512  0.00  0.00    +0.000 N 
ATOM     34  C   UNL     1       5.610   3.376  12.959  0.00  0.00    +0.000 C 
ENDBRANCH  28  29
ENDBRANCH  27  28
ENDBRANCH  20  27
ENDBRANCH   1  24
BRANCH   8  35
ATOM     35  C   UNL     1      -0.214   9.110  22.133  0.00  0.00    +0.000 C 
ATOM     36  C   UNL     1       0.464   9.423  23.453  0.00  0.00    +0.000 C 
ATOM     37  C   UNL     1      -0.822  10.098  23.102  0.00  0.00    +0.000 C 
ENDBRANCH   8  35
TORSDOF 7
ENDMDL
MODEL 6
REMARK VINA RESULT:      -8.7      2.140      3.109
REMARK  Name = 
REMARK  9 active torsions:
REMARK  status: ('A' for Active; 'I' for Inactive)
REMARK    1  A    between atoms: C_1  and  C_2
REMARK    2  A    between atoms: C_2  and  C_3
REMARK    3  A    between atoms: C_2  and  C_10
REMARK    4  A    between atoms: C_3  and  C_4
REMARK    5  A    between atoms: N_8  and  C_9
REMARK    6  A    between atoms: C_14  and  N_15
REMARK    7  A    between atoms: C_20  and  C_21
REMARK    8  A    between atoms: C_26  and  O_27
REMARK    9  A    between atoms: C_30  and  C_31
REMARK                            x       y       z     vdW  Elec       q    Type
REMARK                         _______ _______ _______ _____ _____    ______ ____
ROOT
ATOM      1  N   UNL     1       2.496   7.392  19.006  0.00  0.00    +0.000 N 
ATOM      2  C   UNL     1       2.641   5.963  19.208  0.00  0.00    +0.000 C 
ATOM      3  C   UNL     1       3.612   5.530  18.189  0.00  0.00    +0.000 A 
ATOM      4  C   UNL     1       4.015   6.624  17.432  0.00  0.00    +0.000 A 
ATOM      5  C   UNL     1       4.929   6.462  16.410  0.00  0.00    +0.000 A 
ATOM      6  C   UNL     1       5.491   5.181  16.239  0.00  0.00    +0.000 A 
ATOM      7  C   UNL     1       5.023   4.084  17.001  0.00  0.00    +0.000 A 
ATOM      8  C   UNL     1       4.046   4.223  17.983  0.00  0.00    +0.000 A 
ATOM      9  C   UNL     1       3.299   7.830  17.946  0.00  0.00    +0.000 C 
ATOM     10  O   UNL     1       3.440   8.944  17.476  0.00  0.00    +0.000 OA
ENDROOT
BRANCH   6  11
ATOM     11  C   UNL     1       6.534   4.869  15.223  0.00  0.00    +0.000 C 
ATOM     12  O   UNL     1       7.710   5.064  15.528  0.00  0.00    +0.000 OA
ATOM     13  N   UNL     1       6.179   4.387  13.981  0.00  0.00    +0.000 N 
ATOM     14  C   UNL     1       7.210   3.925  13.061  0.00  0.00    +0.000 C 
ATOM     15  C   UNL     1       6.458   3.298  11.889  0.00  0.00    +0.000 C 
ATOM     16  C   UNL     1       5.028   3.140  12.406  0.00  0.00    +0.000 C 
ATOM     17  C   UNL     1       4.883   4.345  13.327  0.00  0.00    +0.000 C 
BRANCH  16  18
ATOM     18  O   UNL     1       4.077   3.110  11.361  0.00  0.00    +0.000 OA
ATOM     19  H   UNL     1       3.219   3.401  11.714  0.00  0.00    +0.000 HD
ENDBRANCH  16  18
ENDBRANCH   6  11
BRANCH   1  24
ATOM     20  C   UNL     1       0.164  10.136  19.981  0.00  0.00    +0.000 A 
ATOM     21  C   UNL     1      -0.257   9.709  21.239  0.00  0.00    +0.000 A 
ATOM     22  C   UNL     1       0.237   8.512  21.785  0.00  0.00    +0.000 A 
ATOM     23  C   UNL     1       1.157   7.711  21.083  0.00  0.00    +0.000 A 
ATOM     24  C   UNL     1       1.557   8.089  19.808  0.00  0.00    +0.000 A 
ATOM     25  C   UNL     1       1.016   9.283  19.285  0.00  0.00    +0.000 A 
BRANCH  20  27
ATOM     26  C   UNL     1      -1.145  11.517  18.195  0.00  0.00    +0.000 C 
ATOM     27  C   UNL     1      -0.182  11.512  19.408  0.00  0.00    +0.000 C 
BRANCH  27  28
ATOM     28  C   UNL     1       1.099  12.311  19.056  0.00  0.00    +0.000 C 
BRANCH  28  29
ATOM     29  C   UNL     1       1.471  13.324  20.093  0.00  0.00    +0.000 A 
ATOM     30  N   UNL     1       2.158  13.103  21.198  0.00  0.00    +0.000 NA
ATOM     31  N   UNL     1       2.208  14.272  21.918  0.00  0.00    +0.000 NA
ATOM     32  C   UNL     1       1.578  15.191  21.226  0.00  0.00    +0.000 A 
ATOM     33  N   UNL     1       1.127  14.651  20.061  0.00  0.00    +0.000 N 
ATOM     34  C   UNL     1       0.454  15.360  19.008  0.00  0.00    +0.000 C 
ENDBRANCH  28  29
ENDBRANCH  27  28
ENDBRANCH  20  27
ENDBRANCH   1  24
BRANCH   8  35
ATOM     35  C   UNL     1       3.537   3.067  18.806  0.00  0.00    +0.000 C 
ATOM     36  C   UNL     1       2.217   2.393  18.482  0.00  0.00    +0.000 C 
ATOM     37  C   UNL     1       3.502   1.688  18.189  0.00  0.00    +0.000 C 
ENDBRANCH   8  35
TORSDOF 7
ENDMDL
MODEL 7
REMARK VINA RESULT:      -8.6      3.878     11.021
REMARK  Name = 
REMARK  9 active torsions:
REMARK  status: ('A' for Active; 'I' for Inactive)
REMARK    1  A    between atoms: C_1  and  C_2
REMARK    2  A    between atoms: C_2  and  C_3
REMARK    3  A    between atoms: C_2  and  C_10
REMARK    4  A    between atoms: C_3  and  C_4
REMARK    5  A    between atoms: N_8  and  C_9
REMARK    6  A    between atoms: C_14  and  N_15
REMARK    7  A    between atoms: C_20  and  C_21
REMARK    8  A    between atoms: C_26  and  O_27
REMARK    9  A    between atoms: C_30  and  C_31
REMARK                            x       y       z     vdW  Elec       q    Type
REMARK                         _______ _______ _______ _____ _____    ______ ____
ROOT
ATOM      1  N   UNL     1       1.084   8.478  20.496  0.00  0.00    +0.000 N 
ATOM      2  C   UNL     1       0.262   8.982  19.413  0.00  0.00    +0.000 C 
ATOM      3  C   UNL     1      -0.312  10.239  19.923  0.00  0.00    +0.000 A 
ATOM      4  C   UNL     1       0.136  10.465  21.220  0.00  0.00    +0.000 A 
ATOM      5  C   UNL     1      -0.270  11.591  21.908  0.00  0.00    +0.000 A 
ATOM      6  C   UNL     1      -1.066  12.523  21.214  0.00  0.00    +0.000 A 
ATOM      7  C   UNL     1      -1.537  12.237  19.911  0.00  0.00    +0.000 A 
ATOM      8  C   UNL     1      -1.194  11.068  19.236  0.00  0.00    +0.000 A 
ATOM      9  C   UNL     1       1.034   9.334  21.601  0.00  0.00    +0.000 C 
ATOM     10  O   UNL     1       1.576   9.247  22.688  0.00  0.00    +0.000 OA
ENDROOT
BRANCH   6  11
ATOM     11  C   UNL     1      -1.526  13.811  21.802  0.00  0.00    +0.000 C 
ATOM     12  O   UNL     1      -1.024  14.851  21.376  0.00  0.00    +0.000 OA
ATOM     13  N   UNL     1      -2.479  13.825  22.800  0.00  0.00    +0.000 N 
ATOM     14  C   UNL     1      -3.044  15.091  23.245  0.00  0.00    +0.000 C 
ATOM     15  C   UNL     1      -4.176  14.718  24.199  0.00  0.00    +0.000 C 
ATOM     16  C   UNL     1      -4.397  13.226  23.950  0.00  0.00    +0.000 C 
ATOM     17  C   UNL     1      -2.989  12.743  23.623  0.00  0.00    +0.000 C 
BRANCH  16  18
ATOM     18  O   UNL     1      -4.972  12.572  25.063  0.00  0.00    +0.000 OA
ATOM     19  H   UNL     1      -5.738  12.058  24.759  0.00  0.00    +0.000 HD
ENDBRANCH  16  18
ENDBRANCH   6  11
BRANCH   1  24
ATOM     20  C   UNL     1       3.054   5.824  18.765  0.00  0.00    +0.000 A 
ATOM     21  C   UNL     1       2.999   4.786  19.693  0.00  0.00    +0.000 A 
ATOM     22  C   UNL     1       2.298   4.950  20.901  0.00  0.00    +0.000 A 
ATOM     23  C   UNL     1       1.642   6.156  21.209  0.00  0.00    +0.000 A 
ATOM     24  C   UNL     1       1.720   7.222  20.322  0.00  0.00    +0.000 A 
ATOM     25  C   UNL     1       2.457   7.026  19.135  0.00  0.00    +0.000 A 
BRANCH  20  27
ATOM     26  C   UNL     1       3.824   4.194  16.877  0.00  0.00    +0.000 C 
ATOM     27  C   UNL     1       3.633   5.654  17.358  0.00  0.00    +0.000 C 
BRANCH  27  28
ATOM     28  C   UNL     1       4.966   6.430  17.204  0.00  0.00    +0.000 C 
BRANCH  28  29
ATOM     29  C   UNL     1       6.148   5.697  17.760  0.00  0.00    +0.000 A 
ATOM     30  N   UNL     1       6.489   5.608  19.032  0.00  0.00    +0.000 NA
ATOM     31  N   UNL     1       7.679   4.925  19.112  0.00  0.00    +0.000 NA
ATOM     32  C   UNL     1       8.024   4.585  17.893  0.00  0.00    +0.000 A 
ATOM     33  N   UNL     1       7.079   5.020  17.016  0.00  0.00    +0.000 N 
ATOM     34  C   UNL     1       7.067   4.777  15.600  0.00  0.00    +0.000 C 
ENDBRANCH  28  29
ENDBRANCH  27  28
ENDBRANCH  20  27
ENDBRANCH   1  24
BRANCH   8  35
ATOM     35  C   UNL     1      -1.684  10.746  17.847  0.00  0.00    +0.000 C 
ATOM     36  C   UNL     1      -2.925   9.902  17.628  0.00  0.00    +0.000 C 
ATOM     37  C   UNL     1      -2.971  11.372  17.361  0.00  0.00    +0.000 C 
ENDBRANCH   8  35
TORSDOF 7
ENDMDL
MODEL 8
REMARK VINA RESULT:      -8.6      3.841     10.948
REMARK  Name = 
REMARK  9 active torsions:
REMARK  status: ('A' for Active; 'I' for Inactive)
REMARK    1  A    between atoms: C_1  and  C_2
REMARK    2  A    between atoms: C_2  and  C_3
REMARK    3  A    between atoms: C_2  and  C_10
REMARK    4  A    between atoms: C_3  and  C_4
REMARK    5  A    between atoms: N_8  and  C_9
REMARK    6  A    between atoms: C_14  and  N_15
REMARK    7  A    between atoms: C_20  and  C_21
REMARK    8  A    between atoms: C_26  and  O_27
REMARK    9  A    between atoms: C_30  and  C_31
REMARK                            x       y       z     vdW  Elec       q    Type
REMARK                         _______ _______ _______ _____ _____    ______ ____
ROOT
ATOM      1  N   UNL     1       1.067   8.533  20.528  0.00  0.00    +0.000 N 
ATOM      2  C   UNL     1       0.248   9.028  19.438  0.00  0.00    +0.000 C 
ATOM      3  C   UNL     1      -0.322  10.294  19.932  0.00  0.00    +0.000 A 
ATOM      4  C   UNL     1       0.126  10.533  21.227  0.00  0.00    +0.000 A 
ATOM      5  C   UNL     1      -0.277  11.669  21.901  0.00  0.00    +0.000 A 
ATOM      6  C   UNL     1      -1.068  12.596  21.194  0.00  0.00    +0.000 A 
ATOM      7  C   UNL     1      -1.538  12.297  19.893  0.00  0.00    +0.000 A 
ATOM      8  C   UNL     1      -1.198  11.118  19.233  0.00  0.00    +0.000 A 
ATOM      9  C   UNL     1       1.017   9.403  21.623  0.00  0.00    +0.000 C 
ATOM     10  O   UNL     1       1.558   9.326  22.712  0.00  0.00    +0.000 OA
ENDROOT
BRANCH   6  11
ATOM     11  C   UNL     1      -1.524  13.893  21.766  0.00  0.00    +0.000 C 
ATOM     12  O   UNL     1      -0.995  14.924  21.350  0.00  0.00    +0.000 OA
ATOM     13  N   UNL     1      -2.501  13.924  22.739  0.00  0.00    +0.000 N 
ATOM     14  C   UNL     1      -3.059  15.200  23.166  0.00  0.00    +0.000 C 
ATOM     15  C   UNL     1      -4.221  14.848  24.091  0.00  0.00    +0.000 C 
ATOM     16  C   UNL     1      -4.457  13.358  23.842  0.00  0.00    +0.000 C 
ATOM     17  C   UNL     1      -3.048  12.853  23.552  0.00  0.00    +0.000 C 
BRANCH  16  18
ATOM     18  O   UNL     1      -5.071  12.717  24.941  0.00  0.00    +0.000 OA
ATOM     19  H   UNL     1      -4.591  12.960  25.751  0.00  0.00    +0.000 HD
ENDBRANCH  16  18
ENDBRANCH   6  11
BRANCH   1  24
ATOM     20  C   UNL     1       3.071   5.870  18.852  0.00  0.00    +0.000 A 
ATOM     21  C   UNL     1       2.977   4.829  19.774  0.00  0.00    +0.000 A 
ATOM     22  C   UNL     1       2.237   4.994  20.958  0.00  0.00    +0.000 A 
ATOM     23  C   UNL     1       1.581   6.205  21.249  0.00  0.00    +0.000 A 
ATOM     24  C   UNL     1       1.698   7.273  20.370  0.00  0.00    +0.000 A 
ATOM     25  C   UNL     1       2.472   7.076  19.208  0.00  0.00    +0.000 A 
BRANCH  20  27
ATOM     26  C   UNL     1       3.880   4.242  16.980  0.00  0.00    +0.000 C 
ATOM     27  C   UNL     1       3.695   5.701  17.465  0.00  0.00    +0.000 C 
BRANCH  27  28
ATOM     28  C   UNL     1       5.045   6.457  17.362  0.00  0.00    +0.000 C 
BRANCH  28  29
ATOM     29  C   UNL     1       5.939   5.931  16.283  0.00  0.00    +0.000 A 
ATOM     30  N   UNL     1       5.833   6.167  14.989  0.00  0.00    +0.000 NA
ATOM     31  N   UNL     1       6.792   5.431  14.336  0.00  0.00    +0.000 NA
ATOM     32  C   UNL     1       7.483   4.785  15.244  0.00  0.00    +0.000 A 
ATOM     33  N   UNL     1       7.005   5.092  16.480  0.00  0.00    +0.000 N 
ATOM     34  C   UNL     1       7.549   4.638  17.731  0.00  0.00    +0.000 C 
ENDBRANCH  28  29
ENDBRANCH  27  28
ENDBRANCH  20  27
ENDBRANCH   1  24
BRANCH   8  35
ATOM     35  C   UNL     1      -1.687  10.783  17.847  0.00  0.00    +0.000 C 
ATOM     36  C   UNL     1      -2.899   9.895  17.635  0.00  0.00    +0.000 C 
ATOM     37  C   UNL     1      -2.999  11.363  17.372  0.00  0.00    +0.000 C 
ENDBRANCH   8  35
TORSDOF 7
ENDMDL
MODEL 9
REMARK VINA RESULT:      -8.6      2.911      9.682
REMARK  Name = 
REMARK  9 active torsions:
REMARK  status: ('A' for Active; 'I' for Inactive)
REMARK    1  A    between atoms: C_1  and  C_2
REMARK    2  A    between atoms: C_2  and  C_3
REMARK    3  A    between atoms: C_2  and  C_10
REMARK    4  A    between atoms: C_3  and  C_4
REMARK    5  A    between atoms: N_8  and  C_9
REMARK    6  A    between atoms: C_14  and  N_15
REMARK    7  A    between atoms: C_20  and  C_21
REMARK    8  A    between atoms: C_26  and  O_27
REMARK    9  A    between atoms: C_30  and  C_31
REMARK                            x       y       z     vdW  Elec       q    Type
REMARK                         _______ _______ _______ _____ _____    ______ ____
ROOT
ATOM      1  N   UNL     1       2.478   7.257  19.291  0.00  0.00    +0.000 N 
ATOM      2  C   UNL     1       1.611   7.572  20.409  0.00  0.00    +0.000 C 
ATOM      3  C   UNL     1       1.024   8.883  20.080  0.00  0.00    +0.000 A 
ATOM      4  C   UNL     1       1.511   9.318  18.852  0.00  0.00    +0.000 A 
ATOM      5  C   UNL     1       1.099  10.529  18.332  0.00  0.00    +0.000 A 
ATOM      6  C   UNL     1       0.114  11.239  19.044  0.00  0.00    +0.000 A 
ATOM      7  C   UNL     1      -0.325  10.785  20.311  0.00  0.00    +0.000 A 
ATOM      8  C   UNL     1       0.141   9.602  20.880  0.00  0.00    +0.000 A 
ATOM      9  C   UNL     1       2.453   8.280  18.336  0.00  0.00    +0.000 C 
ATOM     10  O   UNL     1       3.047   8.382  17.278  0.00  0.00    +0.000 OA
ENDROOT
BRANCH   6  11
ATOM     11  C   UNL     1      -0.473  12.525  18.577  0.00  0.00    +0.000 C 
ATOM     12  O   UNL     1      -1.513  12.478  17.920  0.00  0.00    +0.000 OA
ATOM     13  N   UNL     1       0.143  13.724  18.868  0.00  0.00    +0.000 N 
ATOM     14  C   UNL     1      -0.527  14.979  18.554  0.00  0.00    +0.000 C 
ATOM     15  C   UNL     1       0.343  16.070  19.175  0.00  0.00    +0.000 C 
ATOM     16  C   UNL     1       1.283  15.310  20.111  0.00  0.00    +0.000 C 
ATOM     17  C   UNL     1       1.478  13.992  19.371  0.00  0.00    +0.000 C 
BRANCH  16  18
ATOM     18  O   UNL     1       2.488  16.008  20.349  0.00  0.00    +0.000 OA
ATOM     19  H   UNL     1       3.136  15.389  20.725  0.00  0.00    +0.000 HD
ENDBRANCH  16  18
ENDBRANCH   6  11
BRANCH   1  24
ATOM     20  C   UNL     1       5.514   5.100  19.060  0.00  0.00    +0.000 A 
ATOM     21  C   UNL     1       4.982   3.841  19.336  0.00  0.00    +0.000 A 
ATOM     22  C   UNL     1       3.608   3.691  19.591  0.00  0.00    +0.000 A 
ATOM     23  C   UNL     1       2.736   4.796  19.581  0.00  0.00    +0.000 A 
ATOM     24  C   UNL     1       3.247   6.067  19.356  0.00  0.00    +0.000 A 
ATOM     25  C   UNL     1       4.635   6.178  19.133  0.00  0.00    +0.000 A 
BRANCH  20  27
ATOM     26  C   UNL     1       7.288   6.726  18.051  0.00  0.00    +0.000 C 
ATOM     27  C   UNL     1       6.954   5.312  18.591  0.00  0.00    +0.000 C 
BRANCH  27  28
ATOM     28  C   UNL     1       7.365   4.247  17.543  0.00  0.00    +0.000 C 
BRANCH  28  29
ATOM     29  C   UNL     1       6.939   4.590  16.149  0.00  0.00    +0.000 A 
ATOM     30  N   UNL     1       7.636   5.273  15.260  0.00  0.00    +0.000 NA
ATOM     31  N   UNL     1       6.858   5.444  14.140  0.00  0.00    +0.000 NA
ATOM     32  C   UNL     1       5.716   4.836  14.355  0.00  0.00    +0.000 A 
ATOM     33  N   UNL     1       5.733   4.260  15.587  0.00  0.00    +0.000 N 
ATOM     34  C   UNL     1       4.693   3.446  16.152  0.00  0.00    +0.000 C 
ENDBRANCH  28  29
ENDBRANCH  27  28
ENDBRANCH  20  27
ENDBRANCH   1  24
BRANCH   8  35
ATOM     35  C   UNL     1      -0.316   9.102  22.226  0.00  0.00    +0.000 C 
ATOM     36  C   UNL     1       0.460   9.425  23.489  0.00  0.00    +0.000 C 
ATOM     37  C   UNL     1      -0.852  10.093  23.233  0.00  0.00    +0.000 C 
ENDBRANCH   8  35
TORSDOF 7
ENDMDL
