MODEL 1
REMARK VINA RESULT:      -9.5      0.000      0.000
REMARK  Name = 
REMARK  7 active torsions:
REMARK  status: ('A' for Active; 'I' for Inactive)
REMARK    1  A    between atoms: C_1  and  N_2
REMARK    2  A    between atoms: C_6  and  C_7
REMARK    3  A    between atoms: C_7  and  C_8
REMARK    4  A    between atoms: C_8  and  C_9
REMARK    5  A    between atoms: C_8  and  C_11
REMARK    6  A    between atoms: C_15  and  N_16
REMARK    7  A    between atoms: C_23  and  C_24
REMARK                            x       y       z     vdW  Elec       q    Type
REMARK                         _______ _______ _______ _____ _____    ______ ____
ROOT
ATOM      1  C   UNL     1       4.415   5.793  17.498  0.00  0.00    +0.000 A 
ATOM      2  C   UNL     1       3.926   4.538  17.880  0.00  0.00    +0.000 A 
ATOM      3  C   UNL     1       2.763   4.429  18.659  0.00  0.00    +0.000 A 
ATOM      4  C   UNL     1       2.058   5.569  19.072  0.00  0.00    +0.000 A 
ATOM      5  C   UNL     1       2.543   6.830  18.748  0.00  0.00    +0.000 A 
ATOM      6  C   UNL     1       3.744   6.904  18.013  0.00  0.00    +0.000 A 
ENDROOT
BRANCH   5   7
ATOM      7  N   UNL     1       1.877   8.045  19.054  0.00  0.00    +0.000 N 
ATOM      8  C   UNL     1       1.272   8.206  20.360  0.00  0.00    +0.000 C 
ATOM      9  C   UNL     1       0.780   9.600  20.374  0.00  0.00    +0.000 A 
ATOM     10  C   UNL     1       1.076  10.205  19.155  0.00  0.00    +0.000 A 
ATOM     11  C   UNL     1       0.722  11.518  18.909  0.00  0.00    +0.000 A 
ATOM     12  C   UNL     1       0.056  12.211  19.930  0.00  0.00    +0.000 A 
ATOM     13  C   UNL     1      -0.235  11.593  21.164  0.00  0.00    +0.000 A 
ATOM     14  C   UNL     1       0.129  10.262  21.410  0.00  0.00    +0.000 A 
ATOM     15  C   UNL     1       1.789   9.221  18.301  0.00  0.00    +0.000 C 
ATOM     16  O   UNL     1       2.183   9.475  17.183  0.00  0.00    +0.000 OA
BRANCH  14  17
ATOM     17  C   UNL     1      -0.164   9.593  22.729  0.00  0.00    +0.000 C 
ATOM     18  F   UNL     1      -0.888   8.439  22.626  0.00  0.00    +0.000 F 
ATOM     19  F   UNL     1       0.962   9.250  23.413  0.00  0.00    +0.000 F 
ATOM     20  F   UNL     1      -0.885  10.388  23.569  0.00  0.00    +0.000 F 
ENDBRANCH  14  17
ENDBRANCH   5   7
BRANCH   1  21
ATOM     21  C   UNL     1       5.586   5.952  16.515  0.00  0.00    +0.000 C 
ATOM     22  C   UNL     1       6.751   6.681  17.208  0.00  0.00    +0.000 C 
ATOM     23  F   UNL     1       5.194   6.783  15.483  0.00  0.00    +0.000 F 
BRANCH  21  24
ATOM     24  C   UNL     1       6.114   4.662  15.794  0.00  0.00    +0.000 C 
BRANCH  24  30
ATOM     25  C   UNL     1       5.443   3.441  12.947  0.00  0.00    +0.000 C 
ATOM     26  N   UNL     1       6.537   4.311  13.288  0.00  0.00    +0.000 N 
ATOM     27  C   UNL     1       7.498   4.731  12.416  0.00  0.00    +0.000 A 
ATOM     28  N   UNL     1       8.351   5.503  13.039  0.00  0.00    +0.000 NA
ATOM     29  N   UNL     1       7.939   5.603  14.343  0.00  0.00    +0.000 NA
ATOM     30  C   UNL     1       6.845   4.879  14.502  0.00  0.00    +0.000 A 
ENDBRANCH  24  30
ENDBRANCH  21  24
ENDBRANCH   1  21
TORSDOF 5
ENDMDL
MODEL 2
REMARK VINA RESULT:      -9.4      1.896      2.730
REMARK  Name = 
REMARK  7 active torsions:
REMARK  status: ('A' for Active; 'I' for Inactive)
REMARK    1  A    between atoms: C_1  and  N_2
REMARK    2  A    between atoms: C_6  and  C_7
REMARK    3  A    between atoms: C_7  and  C_8
REMARK    4  A    between atoms: C_8  and  C_9
REMARK    5  A    between atoms: C_8  and  C_11
REMARK    6  A    between atoms: C_15  and  N_16
REMARK    7  A    between atoms: C_23  and  C_24
REMARK                            x       y       z     vdW  Elec       q    Type
REMARK                         _______ _______ _______ _____ _____    ______ ____
ROOT
ATOM      1  C   UNL     1       4.461   4.624  18.111  0.00  0.00    +0.000 A 
ATOM      2  C   UNL     1       4.180   3.603  19.026  0.00  0.00    +0.000 A 
ATOM      3  C   UNL     1       3.253   3.805  20.062  0.00  0.00    +0.000 A 
ATOM      4  C   UNL     1       2.583   5.027  20.207  0.00  0.00    +0.000 A 
ATOM      5  C   UNL     1       2.874   6.075  19.343  0.00  0.00    +0.000 A 
ATOM      6  C   UNL     1       3.850   5.857  18.350  0.00  0.00    +0.000 A 
ENDROOT
BRANCH   5   7
ATOM      7  N   UNL     1       2.209   7.329  19.355  0.00  0.00    +0.000 N 
ATOM      8  C   UNL     1       1.526   7.752  20.560  0.00  0.00    +0.000 C 
ATOM      9  C   UNL     1       1.056   9.121  20.262  0.00  0.00    +0.000 A 
ATOM     10  C   UNL     1       1.436   9.467  18.968  0.00  0.00    +0.000 A 
ATOM     11  C   UNL     1       1.119  10.704  18.441  0.00  0.00    +0.000 A 
ATOM     12  C   UNL     1       0.401  11.591  19.257  0.00  0.00    +0.000 A 
ATOM     13  C   UNL     1       0.024  11.235  20.569  0.00  0.00    +0.000 A 
ATOM     14  C   UNL     1       0.352   9.980  21.100  0.00  0.00    +0.000 A 
ATOM     15  C   UNL     1       2.186   8.329  18.377  0.00  0.00    +0.000 C 
ATOM     16  O   UNL     1       2.653   8.352  17.258  0.00  0.00    +0.000 OA
BRANCH  14  17
ATOM     17  C   UNL     1      -0.032   9.591  22.506  0.00  0.00    +0.000 C 
ATOM     18  F   UNL     1      -0.859   8.506  22.584  0.00  0.00    +0.000 F 
ATOM     19  F   UNL     1       1.041   9.282  23.284  0.00  0.00    +0.000 F 
ATOM     20  F   UNL     1      -0.696  10.586  23.160  0.00  0.00    +0.000 F 
ENDBRANCH  14  17
ENDBRANCH   5   7
BRANCH   1  21
ATOM     21  C   UNL     1       5.341   4.396  16.872  0.00  0.00    +0.000 C 
ATOM     22  C   UNL     1       4.868   5.305  15.723  0.00  0.00    +0.000 C 
ATOM     23  F   UNL     1       5.153   3.104  16.420  0.00  0.00    +0.000 F 
BRANCH  21  24
ATOM     24  C   UNL     1       6.896   4.522  17.048  0.00  0.00    +0.000 C 
BRANCH  24  30
ATOM     25  C   UNL     1       7.881   5.601  19.861  0.00  0.00    +0.000 C 
ATOM     26  N   UNL     1       7.813   6.329  18.622  0.00  0.00    +0.000 N 
ATOM     27  C   UNL     1       8.143   7.644  18.473  0.00  0.00    +0.000 A 
ATOM     28  N   UNL     1       7.962   8.005  17.228  0.00  0.00    +0.000 NA
ATOM     29  N   UNL     1       7.516   6.905  16.542  0.00  0.00    +0.000 NA
ATOM     30  C   UNL     1       7.416   5.889  17.381  0.00  0.00    +0.000 A 
ENDBRANCH  24  30
ENDBRANCH  21  24
ENDBRANCH   1  21
TORSDOF 5
ENDMDL
MODEL 3
REMARK VINA RESULT:      -9.4      1.346      1.684
REMARK  Name = 
REMARK  7 active torsions:
REMARK  status: ('A' for Active; 'I' for Inactive)
REMARK    1  A    between atoms: C_1  and  N_2
REMARK    2  A    between atoms: C_6  and  C_7
REMARK    3  A    between atoms: C_7  and  C_8
REMARK    4  A    between atoms: C_8  and  C_9
REMARK    5  A    between atoms: C_8  and  C_11
REMARK    6  A    between atoms: C_15  and  N_16
REMARK    7  A    between atoms: C_23  and  C_24
REMARK                            x       y       z     vdW  Elec       q    Type
REMARK                         _______ _______ _______ _____ _____    ______ ____
ROOT
ATOM      1  C   UNL     1       5.285   5.339  19.033  0.00  0.00    +0.000 A 
ATOM      2  C   UNL     1       4.781   4.067  19.326  0.00  0.00    +0.000 A 
ATOM      3  C   UNL     1       3.432   3.894  19.678  0.00  0.00    +0.000 A 
ATOM      4  C   UNL     1       2.555   4.986  19.740  0.00  0.00    +0.000 A 
ATOM      5  C   UNL     1       3.035   6.267  19.499  0.00  0.00    +0.000 A 
ATOM      6  C   UNL     1       4.406   6.410  19.205  0.00  0.00    +0.000 A 
ENDROOT
BRANCH   5   7
ATOM      7  N   UNL     1       2.225   7.431  19.469  0.00  0.00    +0.000 N 
ATOM      8  C   UNL     1       1.514   7.826  20.667  0.00  0.00    +0.000 C 
ATOM      9  C   UNL     1       0.879   9.114  20.317  0.00  0.00    +0.000 A 
ATOM     10  C   UNL     1       1.196   9.441  19.002  0.00  0.00    +0.000 A 
ATOM     11  C   UNL     1       0.725  10.606  18.426  0.00  0.00    +0.000 A 
ATOM     12  C   UNL     1      -0.082  11.438  19.215  0.00  0.00    +0.000 A 
ATOM     13  C   UNL     1      -0.395  11.101  20.549  0.00  0.00    +0.000 A 
ATOM     14  C   UNL     1       0.089   9.921  21.130  0.00  0.00    +0.000 A 
ATOM     15  C   UNL     1       2.068   8.374  18.447  0.00  0.00    +0.000 C 
ATOM     16  O   UNL     1       2.513   8.400  17.319  0.00  0.00    +0.000 OA
BRANCH  14  17
ATOM     17  C   UNL     1      -0.226   9.556  22.559  0.00  0.00    +0.000 C 
ATOM     18  F   UNL     1      -0.978  10.483  23.224  0.00  0.00    +0.000 F 
ATOM     19  F   UNL     1      -0.916   8.388  22.669  0.00  0.00    +0.000 F 
ATOM     20  F   UNL     1       0.896   9.402  23.318  0.00  0.00    +0.000 F 
ENDBRANCH  14  17
ENDBRANCH   5   7
BRANCH   1  21
ATOM     21  C   UNL     1       6.707   5.552  18.489  0.00  0.00    +0.000 C 
ATOM     22  C   UNL     1       7.686   5.755  19.659  0.00  0.00    +0.000 C 
ATOM     23  F   UNL     1       6.740   6.733  17.772  0.00  0.00    +0.000 F 
BRANCH  21  24
ATOM     24  C   UNL     1       7.277   4.480  17.494  0.00  0.00    +0.000 C 
BRANCH  24  30
ATOM     25  C   UNL     1       4.632   3.521  16.034  0.00  0.00    +0.000 C 
ATOM     26  N   UNL     1       5.756   4.201  15.447  0.00  0.00    +0.000 N 
ATOM     27  C   UNL     1       5.869   4.518  14.126  0.00  0.00    +0.000 A 
ATOM     28  N   UNL     1       7.010   5.123  13.915  0.00  0.00    +0.000 NA
ATOM     29  N   UNL     1       7.656   5.216  15.120  0.00  0.00    +0.000 NA
ATOM     30  C   UNL     1       6.905   4.653  16.051  0.00  0.00    +0.000 A 
ENDBRANCH  24  30
ENDBRANCH  21  24
ENDBRANCH   1  21
TORSDOF 5
ENDMDL
MODEL 4
REMARK VINA RESULT:      -8.9      2.878      3.855
REMARK  Name = 
REMARK  7 active torsions:
REMARK  status: ('A' for Active; 'I' for Inactive)
REMARK    1  A    between atoms: C_1  and  N_2
REMARK    2  A    between atoms: C_6  and  C_7
REMARK    3  A    between atoms: C_7  and  C_8
REMARK    4  A    between atoms: C_8  and  C_9
REMARK    5  A    between atoms: C_8  and  C_11
REMARK    6  A    between atoms: C_15  and  N_16
REMARK    7  A    between atoms: C_23  and  C_24
REMARK                            x       y       z     vdW  Elec       q    Type
REMARK                         _______ _______ _______ _____ _____    ______ ____
ROOT
ATOM      1  C   UNL     1       4.473   4.816  16.618  0.00  0.00    +0.000 A 
ATOM      2  C   UNL     1       3.982   3.506  16.643  0.00  0.00    +0.000 A 
ATOM      3  C   UNL     1       2.959   3.142  17.533  0.00  0.00    +0.000 A 
ATOM      4  C   UNL     1       2.399   4.077  18.416  0.00  0.00    +0.000 A 
ATOM      5  C   UNL     1       2.897   5.374  18.447  0.00  0.00    +0.000 A 
ATOM      6  C   UNL     1       3.962   5.690  17.580  0.00  0.00    +0.000 A 
ENDROOT
BRANCH   5   7
ATOM      7  N   UNL     1       2.362   6.415  19.249  0.00  0.00    +0.000 N 
ATOM      8  C   UNL     1       2.131   7.715  18.653  0.00  0.00    +0.000 C 
ATOM      9  C   UNL     1       1.478   8.503  19.719  0.00  0.00    +0.000 A 
ATOM     10  C   UNL     1       1.344   7.715  20.858  0.00  0.00    +0.000 A 
ATOM     11  C   UNL     1       0.759   8.217  22.005  0.00  0.00    +0.000 A 
ATOM     12  C   UNL     1       0.310   9.545  21.975  0.00  0.00    +0.000 A 
ATOM     13  C   UNL     1       0.445  10.336  20.814  0.00  0.00    +0.000 A 
ATOM     14  C   UNL     1       1.035   9.820  19.652  0.00  0.00    +0.000 A 
ATOM     15  C   UNL     1       1.900   6.368  20.568  0.00  0.00    +0.000 C 
ATOM     16  O   UNL     1       1.906   5.465  21.377  0.00  0.00    +0.000 OA
BRANCH  14  17
ATOM     17  C   UNL     1       1.172  10.650  18.400  0.00  0.00    +0.000 C 
ATOM     18  F   UNL     1       0.743  11.941  18.530  0.00  0.00    +0.000 F 
ATOM     19  F   UNL     1       2.458  10.742  17.962  0.00  0.00    +0.000 F 
ATOM     20  F   UNL     1       0.455  10.144  17.357  0.00  0.00    +0.000 F 
ENDBRANCH  14  17
ENDBRANCH   5   7
BRANCH   1  21
ATOM     21  C   UNL     1       5.474   5.297  15.555  0.00  0.00    +0.000 C 
ATOM     22  C   UNL     1       5.147   6.745  15.149  0.00  0.00    +0.000 C 
ATOM     23  F   UNL     1       5.303   4.546  14.407  0.00  0.00    +0.000 F 
BRANCH  21  24
ATOM     24  C   UNL     1       7.004   5.164  15.879  0.00  0.00    +0.000 C 
BRANCH  24  30
ATOM     25  C   UNL     1       7.493   7.932  17.343  0.00  0.00    +0.000 C 
ATOM     26  N   UNL     1       7.627   6.613  17.903  0.00  0.00    +0.000 N 
ATOM     27  C   UNL     1       8.026   6.346  19.179  0.00  0.00    +0.000 A 
ATOM     28  N   UNL     1       8.052   5.052  19.370  0.00  0.00    +0.000 NA
ATOM     29  N   UNL     1       7.652   4.455  18.203  0.00  0.00    +0.000 NA
ATOM     30  C   UNL     1       7.400   5.394  17.308  0.00  0.00    +0.000 A 
ENDBRANCH  24  30
ENDBRANCH  21  24
ENDBRANCH   1  21
TORSDOF 5
ENDMDL
MODEL 5
REMARK VINA RESULT:      -8.7      3.533      9.176
REMARK  Name = 
REMARK  7 active torsions:
REMARK  status: ('A' for Active; 'I' for Inactive)
REMARK    1  A    between atoms: C_1  and  N_2
REMARK    2  A    between atoms: C_6  and  C_7
REMARK    3  A    between atoms: C_7  and  C_8
REMARK    4  A    between atoms: C_8  and  C_9
REMARK    5  A    between atoms: C_8  and  C_11
REMARK    6  A    between atoms: C_15  and  N_16
REMARK    7  A    between atoms: C_23  and  C_24
REMARK                            x       y       z     vdW  Elec       q    Type
REMARK                         _______ _______ _______ _____ _____    ______ ____
ROOT
ATOM      1  C   UNL     1       0.913   9.745  20.274  0.00  0.00    +0.000 A 
ATOM      2  C   UNL     1       0.985  10.657  19.214  0.00  0.00    +0.000 A 
ATOM      3  C   UNL     1       1.618  10.308  18.010  0.00  0.00    +0.000 A 
ATOM      4  C   UNL     1       2.190   9.040  17.834  0.00  0.00    +0.000 A 
ATOM      5  C   UNL     1       2.176   8.129  18.882  0.00  0.00    +0.000 A 
ATOM      6  C   UNL     1       1.583   8.533  20.096  0.00  0.00    +0.000 A 
ENDROOT
BRANCH   5   7
ATOM      7  N   UNL     1       2.664   6.800  18.792  0.00  0.00    +0.000 N 
ATOM      8  C   UNL     1       2.203   5.814  19.748  0.00  0.00    +0.000 C 
ATOM      9  C   UNL     1       2.810   4.544  19.297  0.00  0.00    +0.000 A 
ATOM     10  C   UNL     1       3.577   4.780  18.159  0.00  0.00    +0.000 A 
ATOM     11  C   UNL     1       4.255   3.750  17.534  0.00  0.00    +0.000 A 
ATOM     12  C   UNL     1       4.140   2.468  18.090  0.00  0.00    +0.000 A 
ATOM     13  C   UNL     1       3.357   2.237  19.240  0.00  0.00    +0.000 A 
ATOM     14  C   UNL     1       2.669   3.284  19.868  0.00  0.00    +0.000 A 
ATOM     15  C   UNL     1       3.485   6.222  17.818  0.00  0.00    +0.000 C 
ATOM     16  O   UNL     1       4.044   6.715  16.861  0.00  0.00    +0.000 OA
BRANCH  14  17
ATOM     17  C   UNL     1       1.817   3.049  21.090  0.00  0.00    +0.000 C 
ATOM     18  F   UNL     1       0.503   3.391  20.935  0.00  0.00    +0.000 F 
ATOM     19  F   UNL     1       1.803   1.747  21.487  0.00  0.00    +0.000 F 
ATOM     20  F   UNL     1       2.242   3.765  22.169  0.00  0.00    +0.000 F 
ENDBRANCH  14  17
ENDBRANCH   5   7
BRANCH   1  21
ATOM     21  C   UNL     1       0.093  10.025  21.543  0.00  0.00    +0.000 C 
ATOM     22  C   UNL     1       0.739   9.316  22.747  0.00  0.00    +0.000 C 
ATOM     23  F   UNL     1      -1.156   9.451  21.405  0.00  0.00    +0.000 F 
BRANCH  21  24
ATOM     24  C   UNL     1      -0.207  11.524  21.902  0.00  0.00    +0.000 C 
BRANCH  24  30
ATOM     25  C   UNL     1      -2.332  12.767  19.906  0.00  0.00    +0.000 C 
ATOM     26  N   UNL     1      -2.530  12.425  21.289  0.00  0.00    +0.000 N 
ATOM     27  C   UNL     1      -3.689  12.619  21.980  0.00  0.00    +0.000 A 
ATOM     28  N   UNL     1      -3.539  12.212  23.215  0.00  0.00    +0.000 NA
ATOM     29  N   UNL     1      -2.262  11.731  23.337  0.00  0.00    +0.000 NA
ATOM     30  C   UNL     1      -1.642  11.863  22.177  0.00  0.00    +0.000 A 
ENDBRANCH  24  30
ENDBRANCH  21  24
ENDBRANCH   1  21
TORSDOF 5
ENDMDL
MODEL 6
REMARK VINA RESULT:      -8.7      2.290      2.888
REMARK  Name = 
REMARK  7 active torsions:
REMARK  status: ('A' for Active; 'I' for Inactive)
REMARK    1  A    between atoms: C_1  and  N_2
REMARK    2  A    between atoms: C_6  and  C_7
REMARK    3  A    between atoms: C_7  and  C_8
REMARK    4  A    between atoms: C_8  and  C_9
REMARK    5  A    between atoms: C_8  and  C_11
REMARK    6  A    between atoms: C_15  and  N_16
REMARK    7  A    between atoms: C_23  and  C_24
REMARK                            x       y       z     vdW  Elec       q    Type
REMARK                         _______ _______ _______ _____ _____    ______ ____
ROOT
ATOM      1  C   UNL     1       4.574   4.588  17.102  0.00  0.00    +0.000 A 
ATOM      2  C   UNL     1       3.782   3.483  16.771  0.00  0.00    +0.000 A 
ATOM      3  C   UNL     1       2.480   3.355  17.283  0.00  0.00    +0.000 A 
ATOM      4  C   UNL     1       1.937   4.329  18.133  0.00  0.00    +0.000 A 
ATOM      5  C   UNL     1       2.714   5.415  18.516  0.00  0.00    +0.000 A 
ATOM      6  C   UNL     1       4.035   5.483  18.029  0.00  0.00    +0.000 A 
ENDROOT
BRANCH   5   7
ATOM      7  N   UNL     1       2.245   6.491  19.314  0.00  0.00    +0.000 N 
ATOM      8  C   UNL     1       2.038   7.785  18.700  0.00  0.00    +0.000 C 
ATOM      9  C   UNL     1       1.451   8.618  19.771  0.00  0.00    +0.000 A 
ATOM     10  C   UNL     1       1.331   7.857  20.931  0.00  0.00    +0.000 A 
ATOM     11  C   UNL     1       0.806   8.403  22.086  0.00  0.00    +0.000 A 
ATOM     12  C   UNL     1       0.402   9.744  22.044  0.00  0.00    +0.000 A 
ATOM     13  C   UNL     1       0.522  10.507  20.863  0.00  0.00    +0.000 A 
ATOM     14  C   UNL     1       1.052   9.948  19.692  0.00  0.00    +0.000 A 
ATOM     15  C   UNL     1       1.829   6.486  20.650  0.00  0.00    +0.000 C 
ATOM     16  O   UNL     1       1.833   5.599  21.477  0.00  0.00    +0.000 OA
BRANCH  14  17
ATOM     17  C   UNL     1       1.173  10.747  18.419  0.00  0.00    +0.000 C 
ATOM     18  F   UNL     1       0.852  12.069  18.551  0.00  0.00    +0.000 F 
ATOM     19  F   UNL     1       2.431  10.733  17.900  0.00  0.00    +0.000 F 
ATOM     20  F   UNL     1       0.355  10.284  17.432  0.00  0.00    +0.000 F 
ENDBRANCH  14  17
ENDBRANCH   5   7
BRANCH   1  21
ATOM     21  C   UNL     1       5.936   4.849  16.439  0.00  0.00    +0.000 C 
ATOM     22  C   UNL     1       7.035   4.908  17.516  0.00  0.00    +0.000 C 
ATOM     23  F   UNL     1       5.920   6.104  15.861  0.00  0.00    +0.000 F 
BRANCH  21  24
ATOM     24  C   UNL     1       6.377   3.892  15.276  0.00  0.00    +0.000 C 
BRANCH  24  30
ATOM     25  C   UNL     1       5.844   3.235  12.221  0.00  0.00    +0.000 C 
ATOM     26  N   UNL     1       6.744   4.221  12.758  0.00  0.00    +0.000 N 
ATOM     27  C   UNL     1       7.552   5.025  12.010  0.00  0.00    +0.000 A 
ATOM     28  N   UNL     1       8.251   5.802  12.799  0.00  0.00    +0.000 NA
ATOM     29  N   UNL     1       7.890   5.511  14.088  0.00  0.00    +0.000 NA
ATOM     30  C   UNL     1       6.983   4.550  14.072  0.00  0.00    +0.000 A 
ENDBRANCH  24  30
ENDBRANCH  21  24
ENDBRANCH   1  21
TORSDOF 5
ENDMDL
MODEL 7
REMARK VINA RESULT:      -8.6      2.045      2.928
REMARK  Name = 
REMARK  7 active torsions:
REMARK  status: ('A' for Active; 'I' for Inactive)
REMARK    1  A    between atoms: C_1  and  N_2
REMARK    2  A    between atoms: C_6  and  C_7
REMARK    3  A    between atoms: C_7  and  C_8
REMARK    4  A    between atoms: C_8  and  C_9
REMARK    5  A    between atoms: C_8  and  C_11
REMARK    6  A    between atoms: C_15  and  N_16
REMARK    7  A    between atoms: C_23  and  C_24
REMARK                            x       y       z     vdW  Elec       q    Type
REMARK                         _______ _______ _______ _____ _____    ______ ____
ROOT
ATOM      1  C   UNL     1       4.384   4.533  17.043  0.00  0.00    +0.000 A 
ATOM      2  C   UNL     1       3.740   3.386  17.522  0.00  0.00    +0.000 A 
ATOM      3  C   UNL     1       2.614   3.491  18.354  0.00  0.00    +0.000 A 
ATOM      4  C   UNL     1       2.102   4.743  18.725  0.00  0.00    +0.000 A 
ATOM      5  C   UNL     1       2.746   5.899  18.304  0.00  0.00    +0.000 A 
ATOM      6  C   UNL     1       3.906   5.756  17.517  0.00  0.00    +0.000 A 
ENDROOT
BRANCH   5   7
ATOM      7  N   UNL     1       2.278   7.214  18.563  0.00  0.00    +0.000 N 
ATOM      8  C   UNL     1       1.632   7.495  19.828  0.00  0.00    +0.000 C 
ATOM      9  C   UNL     1       1.383   8.951  19.805  0.00  0.00    +0.000 A 
ATOM     10  C   UNL     1       1.848   9.479  18.603  0.00  0.00    +0.000 A 
ATOM     11  C   UNL     1       1.736  10.828  18.329  0.00  0.00    +0.000 A 
ATOM     12  C   UNL     1       1.137  11.639  19.303  0.00  0.00    +0.000 A 
ATOM     13  C   UNL     1       0.673  11.098  20.520  0.00  0.00    +0.000 A 
ATOM     14  C   UNL     1       0.793   9.729  20.795  0.00  0.00    +0.000 A 
ATOM     15  C   UNL     1       2.434   8.375  17.799  0.00  0.00    +0.000 C 
ATOM     16  O   UNL     1       2.931   8.543  16.706  0.00  0.00    +0.000 OA
BRANCH  14  17
ATOM     17  C   UNL     1       0.313   9.140  22.098  0.00  0.00    +0.000 C 
ATOM     18  F   UNL     1      -0.629   8.160  21.960  0.00  0.00    +0.000 F 
ATOM     19  F   UNL     1       1.315   8.573  22.825  0.00  0.00    +0.000 F 
ATOM     20  F   UNL     1      -0.262  10.069  22.912  0.00  0.00    +0.000 F 
ENDBRANCH  14  17
ENDBRANCH   5   7
BRANCH   1  21
ATOM     21  C   UNL     1       5.515   4.465  16.004  0.00  0.00    +0.000 C 
ATOM     22  C   UNL     1       4.925   4.565  14.586  0.00  0.00    +0.000 C 
ATOM     23  F   UNL     1       6.109   3.219  16.069  0.00  0.00    +0.000 F 
BRANCH  21  24
ATOM     24  C   UNL     1       6.710   5.471  16.160  0.00  0.00    +0.000 C 
BRANCH  24  30
ATOM     25  C   UNL     1       7.658   8.108  17.641  0.00  0.00    +0.000 C 
ATOM     26  N   UNL     1       7.718   6.759  18.137  0.00  0.00    +0.000 N 
ATOM     27  C   UNL     1       8.235   6.397  19.345  0.00  0.00    +0.000 A 
ATOM     28  N   UNL     1       8.148   5.099  19.490  0.00  0.00    +0.000 NA
ATOM     29  N   UNL     1       7.552   4.599  18.362  0.00  0.00    +0.000 NA
ATOM     30  C   UNL     1       7.295   5.597  17.535  0.00  0.00    +0.000 A 
ENDBRANCH  24  30
ENDBRANCH  21  24
ENDBRANCH   1  21
TORSDOF 5
ENDMDL
MODEL 8
REMARK VINA RESULT:      -8.5      4.245      8.347
REMARK  Name = 
REMARK  7 active torsions:
REMARK  status: ('A' for Active; 'I' for Inactive)
REMARK    1  A    between atoms: C_1  and  N_2
REMARK    2  A    between atoms: C_6  and  C_7
REMARK    3  A    between atoms: C_7  and  C_8
REMARK    4  A    between atoms: C_8  and  C_9
REMARK    5  A    between atoms: C_8  and  C_11
REMARK    6  A    between atoms: C_15  and  N_16
REMARK    7  A    between atoms: C_23  and  C_24
REMARK                            x       y       z     vdW  Elec       q    Type
REMARK                         _______ _______ _______ _____ _____    ______ ____
ROOT
ATOM      1  C   UNL     1      -0.776  10.923  20.584  0.00  0.00    +0.000 A 
ATOM      2  C   UNL     1      -0.801  11.043  21.978  0.00  0.00    +0.000 A 
ATOM      3  C   UNL     1      -0.083  10.148  22.788  0.00  0.00    +0.000 A 
ATOM      4  C   UNL     1       0.680   9.115  22.225  0.00  0.00    +0.000 A 
ATOM      5  C   UNL     1       0.689   8.941  20.847  0.00  0.00    +0.000 A 
ATOM      6  C   UNL     1      -0.089   9.822  20.068  0.00  0.00    +0.000 A 
ENDROOT
BRANCH   5   7
ATOM      7  N   UNL     1       1.477   7.975  20.169  0.00  0.00    +0.000 N 
ATOM      8  C   UNL     1       1.502   6.615  20.662  0.00  0.00    +0.000 C 
ATOM      9  C   UNL     1       2.311   5.873  19.672  0.00  0.00    +0.000 A 
ATOM     10  C   UNL     1       2.731   6.747  18.674  0.00  0.00    +0.000 A 
ATOM     11  C   UNL     1       3.506   6.302  17.620  0.00  0.00    +0.000 A 
ATOM     12  C   UNL     1       3.851   4.943  17.599  0.00  0.00    +0.000 A 
ATOM     13  C   UNL     1       3.417   4.063  18.612  0.00  0.00    +0.000 A 
ATOM     14  C   UNL     1       2.627   4.518  19.676  0.00  0.00    +0.000 A 
ATOM     15  C   UNL     1       2.195   8.100  18.974  0.00  0.00    +0.000 C 
ATOM     16  O   UNL     1       2.391   9.064  18.265  0.00  0.00    +0.000 OA
BRANCH  14  17
ATOM     17  C   UNL     1       2.144   3.585  20.758  0.00  0.00    +0.000 C 
ATOM     18  F   UNL     1       2.520   3.946  22.022  0.00  0.00    +0.000 F 
ATOM     19  F   UNL     1       0.788   3.481  20.804  0.00  0.00    +0.000 F 
ATOM     20  F   UNL     1       2.614   2.316  20.601  0.00  0.00    +0.000 F 
ENDBRANCH  14  17
ENDBRANCH   5   7
BRANCH   1  21
ATOM     21  C   UNL     1      -1.413  11.971  19.659  0.00  0.00    +0.000 C 
ATOM     22  C   UNL     1      -2.605  12.637  20.370  0.00  0.00    +0.000 C 
ATOM     23  F   UNL     1      -1.951  11.331  18.559  0.00  0.00    +0.000 F 
BRANCH  21  24
ATOM     24  C   UNL     1      -0.474  13.070  19.046  0.00  0.00    +0.000 C 
BRANCH  24  30
ATOM     25  C   UNL     1       2.575  12.593  18.323  0.00  0.00    +0.000 C 
ATOM     26  N   UNL     1       2.045  13.190  19.520  0.00  0.00    +0.000 N 
ATOM     27  C   UNL     1       2.797  13.626  20.570  0.00  0.00    +0.000 A 
ATOM     28  N   UNL     1       2.014  14.108  21.502  0.00  0.00    +0.000 NA
ATOM     29  N   UNL     1       0.724  13.996  21.053  0.00  0.00    +0.000 NA
ATOM     30  C   UNL     1       0.734  13.435  19.856  0.00  0.00    +0.000 A 
ENDBRANCH  24  30
ENDBRANCH  21  24
ENDBRANCH   1  21
TORSDOF 5
ENDMDL
MODEL 9
REMARK VINA RESULT:      -8.4      3.547      9.099
REMARK  Name = 
REMARK  7 active torsions:
REMARK  status: ('A' for Active; 'I' for Inactive)
REMARK    1  A    between atoms: C_1  and  N_2
REMARK    2  A    between atoms: C_6  and  C_7
REMARK    3  A    between atoms: C_7  and  C_8
REMARK    4  A    between atoms: C_8  and  C_9
REMARK    5  A    between atoms: C_8  and  C_11
REMARK    6  A    between atoms: C_15  and  N_16
REMARK    7  A    between atoms: C_23  and  C_24
REMARK                            x       y       z     vdW  Elec       q    Type
REMARK                         _______ _______ _______ _____ _____    ______ ____
ROOT
ATOM      1  C   UNL     1       0.861   9.528  20.042  0.00  0.00    +0.000 A 
ATOM      2  C   UNL     1       1.118  10.465  19.034  0.00  0.00    +0.000 A 
ATOM      3  C   UNL     1       1.921  10.129  17.932  0.00  0.00    +0.000 A 
ATOM      4  C   UNL     1       2.483   8.851  17.807  0.00  0.00    +0.000 A 
ATOM      5  C   UNL     1       2.285   7.914  18.813  0.00  0.00    +0.000 A 
ATOM      6  C   UNL     1       1.521   8.302  19.932  0.00  0.00    +0.000 A 
ENDROOT
BRANCH   5   7
ATOM      7  N   UNL     1       2.748   6.574  18.759  0.00  0.00    +0.000 N 
ATOM      8  C   UNL     1       2.287   5.628  19.754  0.00  0.00    +0.000 C 
ATOM      9  C   UNL     1       2.865   4.334  19.335  0.00  0.00    +0.000 A 
ATOM     10  C   UNL     1       3.616   4.518  18.178  0.00  0.00    +0.000 A 
ATOM     11  C   UNL     1       4.265   3.457  17.576  0.00  0.00    +0.000 A 
ATOM     12  C   UNL     1       4.139   2.196  18.176  0.00  0.00    +0.000 A 
ATOM     13  C   UNL     1       3.372   2.017  19.346  0.00  0.00    +0.000 A 
ATOM     14  C   UNL     1       2.712   3.095  19.950  0.00  0.00    +0.000 A 
ATOM     15  C   UNL     1       3.542   5.950  17.790  0.00  0.00    +0.000 C 
ATOM     16  O   UNL     1       4.093   6.401  16.808  0.00  0.00    +0.000 OA
BRANCH  14  17
ATOM     17  C   UNL     1       1.878   2.916  21.194  0.00  0.00    +0.000 C 
ATOM     18  F   UNL     1       0.552   3.201  21.027  0.00  0.00    +0.000 F 
ATOM     19  F   UNL     1       1.913   1.644  21.678  0.00  0.00    +0.000 F 
ATOM     20  F   UNL     1       2.285   3.719  22.217  0.00  0.00    +0.000 F 
ENDBRANCH  14  17
ENDBRANCH   5   7
BRANCH   1  21
ATOM     21  C   UNL     1      -0.138   9.798  21.178  0.00  0.00    +0.000 C 
ATOM     22  C   UNL     1       0.612   9.891  22.519  0.00  0.00    +0.000 C 
ATOM     23  F   UNL     1      -0.980   8.709  21.302  0.00  0.00    +0.000 F 
BRANCH  21  24
ATOM     24  C   UNL     1      -1.109  11.022  21.021  0.00  0.00    +0.000 C 
BRANCH  24  30
ATOM     25  C   UNL     1      -2.863  12.221  23.372  0.00  0.00    +0.000 C 
ATOM     26  N   UNL     1      -1.610  12.723  22.875  0.00  0.00    +0.000 N 
ATOM     27  C   UNL     1      -0.983  13.843  23.335  0.00  0.00    +0.000 A 
ATOM     28  N   UNL     1       0.128  14.030  22.670  0.00  0.00    +0.000 NA
ATOM     29  N   UNL     1       0.242  13.008  21.763  0.00  0.00    +0.000 NA
ATOM     30  C   UNL     1      -0.810  12.217  21.877  0.00  0.00    +0.000 A 
ENDBRANCH  24  30
ENDBRANCH  21  24
ENDBRANCH   1  21
TORSDOF 5
ENDMDL
