MODEL 1
REMARK VINA RESULT:      -9.6      0.000      0.000
REMARK  Name = 
REMARK  10 active torsions:
REMARK  status: ('A' for Active; 'I' for Inactive)
REMARK    1  A    between atoms: C_1  and  C_2
REMARK    2  A    between atoms: N_4  and  C_5
REMARK    3  A    between atoms: C_5  and  C_6
REMARK    4  A    between atoms: C_10  and  C_11
REMARK    5  A    between atoms: N_17  and  C_18
REMARK    6  A    between atoms: C_22  and  C_23
REMARK    7  A    between atoms: C_24  and  C_25
REMARK    8  A    between atoms: N_29  and  C_30
REMARK    9  A    between atoms: N_33  and  C_34
REMARK   10  A    between atoms: C_39  and  C_40
REMARK                            x       y       z     vdW  Elec       q    Type
REMARK                         _______ _______ _______ _____ _____    ______ ____
ROOT
ATOM      1  C   UNL     1       3.179   4.251  17.967  0.00  0.00    +0.000 A 
ATOM      2  C   UNL     1       2.754   5.579  17.895  0.00  0.00    +0.000 A 
ATOM      3  C   UNL     1       2.195   6.137  19.024  0.00  0.00    +0.000 A 
ATOM      4  C   UNL     1       1.991   5.438  20.207  0.00  0.00    +0.000 A 
ATOM      5  C   UNL     1       2.323   4.089  20.286  0.00  0.00    +0.000 A 
ATOM      6  C   UNL     1       2.946   3.511  19.153  0.00  0.00    +0.000 A 
ATOM      7  C   UNL     1       1.421   6.373  21.230  0.00  0.00    +0.000 C 
ATOM      8  N   UNL     1       1.290   7.631  20.505  0.00  0.00    +0.000 N 
ATOM      9  C   UNL     1       1.749   7.516  19.195  0.00  0.00    +0.000 C 
ATOM     10  O   UNL     1       1.821   8.321  18.285  0.00  0.00    +0.000 OA
ENDROOT
BRANCH   8  11
ATOM     11  C   UNL     1       0.747   8.803  21.088  0.00  0.00    +0.000 A 
ATOM     12  C   UNL     1       0.314   8.816  22.416  0.00  0.00    +0.000 A 
ATOM     13  C   UNL     1      -0.216   9.969  22.987  0.00  0.00    +0.000 A 
ATOM     14  C   UNL     1      -0.353  11.126  22.228  0.00  0.00    +0.000 A 
ATOM     15  C   UNL     1       0.088  11.165  20.902  0.00  0.00    +0.000 A 
ATOM     16  C   UNL     1       0.648   9.994  20.356  0.00  0.00    +0.000 A 
BRANCH  15  17
ATOM     17  C   UNL     1       0.019  12.391  20.083  0.00  0.00    +0.000 A 
ATOM     18  C   UNL     1      -0.929  12.814  19.152  0.00  0.00    +0.000 A 
ATOM     19  C   UNL     1      -0.364  13.939  18.524  0.00  0.00    +0.000 A 
ATOM     20  N   UNL     1       0.825  14.254  19.022  0.00  0.00    +0.000 NA
ATOM     21  N   UNL     1       1.030  13.335  19.994  0.00  0.00    +0.000 N 
ATOM     22  C   UNL     1       2.255  13.428  20.750  0.00  0.00    +0.000 C 
BRANCH  18  23
ATOM     23  C   UNL     1      -2.252  12.196  18.881  0.00  0.00    +0.000 A 
ATOM     24  N   UNL     1      -3.377  12.550  19.472  0.00  0.00    +0.000 NA
ATOM     25  N   UNL     1      -4.399  11.781  18.968  0.00  0.00    +0.000 NA
ATOM     26  C   UNL     1      -3.873  10.946  18.106  0.00  0.00    +0.000 A 
ATOM     27  N   UNL     1      -2.529  11.155  18.032  0.00  0.00    +0.000 N 
ATOM     28  C   UNL     1      -1.588  10.280  17.385  0.00  0.00    +0.000 C 
ENDBRANCH  18  23
ENDBRANCH  15  17
ENDBRANCH   8  11
BRANCH   5  29
ATOM     29  C   UNL     1       2.032   3.254  21.506  0.00  0.00    +0.000 C 
ATOM     30  F   UNL     1       2.313   3.888  22.681  0.00  0.00    +0.000 F 
ATOM     31  F   UNL     1       0.720   2.898  21.590  0.00  0.00    +0.000 F 
ATOM     32  F   UNL     1       2.741   2.093  21.537  0.00  0.00    +0.000 F 
ENDBRANCH   5  29
BRANCH   1  33
ATOM     33  C   UNL     1       3.908   3.660  16.778  0.00  0.00    +0.000 C 
BRANCH  33  37
ATOM     34  C   UNL     1       7.220   6.636  17.135  0.00  0.00    +0.000 C 
ATOM     35  C   UNL     1       7.389   5.124  17.255  0.00  0.00    +0.000 C 
ATOM     36  C   UNL     1       6.073   4.407  17.606  0.00  0.00    +0.000 C 
ATOM     37  N   UNL     1       5.162   4.345  16.444  0.00  0.00    +0.000 NA
ATOM     38  C   UNL     1       5.871   3.584  15.391  0.00  0.00    +0.000 C 
ATOM     39  C   UNL     1       7.209   4.239  14.989  0.00  0.00    +0.000 C 
ATOM     40  C   UNL     1       7.023   5.426  14.050  0.00  0.00    +0.000 C 
ATOM     41  O   UNL     1       8.047   4.558  16.110  0.00  0.00    +0.000 OA
ENDBRANCH  33  37
ENDBRANCH   1  33
TORSDOF 6
ENDMDL
MODEL 2
REMARK VINA RESULT:      -9.6      0.492      1.098
REMARK  Name = 
REMARK  10 active torsions:
REMARK  status: ('A' for Active; 'I' for Inactive)
REMARK    1  A    between atoms: C_1  and  C_2
REMARK    2  A    between atoms: N_4  and  C_5
REMARK    3  A    between atoms: C_5  and  C_6
REMARK    4  A    between atoms: C_10  and  C_11
REMARK    5  A    between atoms: N_17  and  C_18
REMARK    6  A    between atoms: C_22  and  C_23
REMARK    7  A    between atoms: C_24  and  C_25
REMARK    8  A    between atoms: N_29  and  C_30
REMARK    9  A    between atoms: N_33  and  C_34
REMARK   10  A    between atoms: C_39  and  C_40
REMARK                            x       y       z     vdW  Elec       q    Type
REMARK                         _______ _______ _______ _____ _____    ______ ____
ROOT
ATOM      1  C   UNL     1       3.191   4.250  17.994  0.00  0.00    +0.000 A 
ATOM      2  C   UNL     1       2.779   5.581  17.907  0.00  0.00    +0.000 A 
ATOM      3  C   UNL     1       2.219   6.156  19.027  0.00  0.00    +0.000 A 
ATOM      4  C   UNL     1       2.001   5.471  20.215  0.00  0.00    +0.000 A 
ATOM      5  C   UNL     1       2.321   4.120  20.310  0.00  0.00    +0.000 A 
ATOM      6  C   UNL     1       2.944   3.525  19.187  0.00  0.00    +0.000 A 
ATOM      7  C   UNL     1       1.434   6.422  21.225  0.00  0.00    +0.000 C 
ATOM      8  N   UNL     1       1.319   7.673  20.486  0.00  0.00    +0.000 N 
ATOM      9  C   UNL     1       1.784   7.541  19.180  0.00  0.00    +0.000 C 
ATOM     10  O   UNL     1       1.869   8.336  18.263  0.00  0.00    +0.000 OA
ENDROOT
BRANCH   8  11
ATOM     11  C   UNL     1       0.783   8.856  21.054  0.00  0.00    +0.000 A 
ATOM     12  C   UNL     1       0.300   8.874  22.365  0.00  0.00    +0.000 A 
ATOM     13  C   UNL     1      -0.223  10.038  22.921  0.00  0.00    +0.000 A 
ATOM     14  C   UNL     1      -0.302  11.202  22.163  0.00  0.00    +0.000 A 
ATOM     15  C   UNL     1       0.191  11.235  20.856  0.00  0.00    +0.000 A 
ATOM     16  C   UNL     1       0.742  10.053  20.325  0.00  0.00    +0.000 A 
BRANCH  15  17
ATOM     17  C   UNL     1       0.184  12.465  20.041  0.00  0.00    +0.000 A 
ATOM     18  C   UNL     1      -0.695  12.896  19.046  0.00  0.00    +0.000 A 
ATOM     19  C   UNL     1      -0.083  14.023  18.467  0.00  0.00    +0.000 A 
ATOM     20  N   UNL     1       1.068  14.332  19.050  0.00  0.00    +0.000 NA
ATOM     21  N   UNL     1       1.201  13.407  20.029  0.00  0.00    +0.000 N 
ATOM     22  C   UNL     1       2.368  13.492  20.872  0.00  0.00    +0.000 C 
BRANCH  18  23
ATOM     23  C   UNL     1      -1.996  12.283  18.677  0.00  0.00    +0.000 A 
ATOM     24  N   UNL     1      -2.239  11.682  17.529  0.00  0.00    +0.000 NA
ATOM     25  N   UNL     1      -3.536  11.222  17.539  0.00  0.00    +0.000 NA
ATOM     26  C   UNL     1      -4.070  11.584  18.680  0.00  0.00    +0.000 A 
ATOM     27  N   UNL     1      -3.150  12.267  19.417  0.00  0.00    +0.000 N 
ATOM     28  C   UNL     1      -3.439  13.024  20.606  0.00  0.00    +0.000 C 
ENDBRANCH  18  23
ENDBRANCH  15  17
ENDBRANCH   8  11
BRANCH   5  29
ATOM     29  C   UNL     1       2.015   3.301  21.537  0.00  0.00    +0.000 C 
ATOM     30  F   UNL     1       2.697   2.121  21.591  0.00  0.00    +0.000 F 
ATOM     31  F   UNL     1       2.330   3.956  22.689  0.00  0.00    +0.000 F 
ATOM     32  F   UNL     1       0.699   2.969  21.639  0.00  0.00    +0.000 F 
ENDBRANCH   5  29
BRANCH   1  33
ATOM     33  C   UNL     1       3.922   3.641  16.816  0.00  0.00    +0.000 C 
BRANCH  33  37
ATOM     34  C   UNL     1       7.201   6.662  17.088  0.00  0.00    +0.000 C 
ATOM     35  C   UNL     1       7.388   5.155  17.238  0.00  0.00    +0.000 C 
ATOM     36  C   UNL     1       6.082   4.430  17.614  0.00  0.00    +0.000 C 
ATOM     37  N   UNL     1       5.165   4.333  16.459  0.00  0.00    +0.000 NA
ATOM     38  C   UNL     1       5.877   3.559  15.418  0.00  0.00    +0.000 C 
ATOM     39  C   UNL     1       7.204   4.220  14.993  0.00  0.00    +0.000 C 
ATOM     40  C   UNL     1       6.998   5.384  14.030  0.00  0.00    +0.000 C 
ATOM     41  O   UNL     1       8.045   4.573  16.102  0.00  0.00    +0.000 OA
ENDBRANCH  33  37
ENDBRANCH   1  33
TORSDOF 6
ENDMDL
MODEL 3
REMARK VINA RESULT:      -9.4      4.408     11.053
REMARK  Name = 
REMARK  10 active torsions:
REMARK  status: ('A' for Active; 'I' for Inactive)
REMARK    1  A    between atoms: C_1  and  C_2
REMARK    2  A    between atoms: N_4  and  C_5
REMARK    3  A    between atoms: C_5  and  C_6
REMARK    4  A    between atoms: C_10  and  C_11
REMARK    5  A    between atoms: N_17  and  C_18
REMARK    6  A    between atoms: C_22  and  C_23
REMARK    7  A    between atoms: C_24  and  C_25
REMARK    8  A    between atoms: N_29  and  C_30
REMARK    9  A    between atoms: N_33  and  C_34
REMARK   10  A    between atoms: C_39  and  C_40
REMARK                            x       y       z     vdW  Elec       q    Type
REMARK                         _______ _______ _______ _____ _____    ______ ____
ROOT
ATOM      1  C   UNL     1      -1.598  11.858  22.482  0.00  0.00    +0.000 A 
ATOM      2  C   UNL     1      -0.549  10.937  22.493  0.00  0.00    +0.000 A 
ATOM      3  C   UNL     1      -0.161  10.392  21.288  0.00  0.00    +0.000 A 
ATOM      4  C   UNL     1      -0.784  10.674  20.079  0.00  0.00    +0.000 A 
ATOM      5  C   UNL     1      -1.888  11.522  20.045  0.00  0.00    +0.000 A 
ATOM      6  C   UNL     1      -2.270  12.131  21.265  0.00  0.00    +0.000 A 
ATOM      7  C   UNL     1      -0.063   9.953  18.982  0.00  0.00    +0.000 C 
ATOM      8  N   UNL     1       0.982   9.220  19.687  0.00  0.00    +0.000 N 
ATOM      9  C   UNL     1       0.947   9.470  21.057  0.00  0.00    +0.000 C 
ATOM     10  O   UNL     1       1.639   9.071  21.975  0.00  0.00    +0.000 OA
ENDROOT
BRANCH   8  11
ATOM     11  C   UNL     1       1.896   8.359  19.030  0.00  0.00    +0.000 A 
ATOM     12  C   UNL     1       2.560   8.760  17.868  0.00  0.00    +0.000 A 
ATOM     13  C   UNL     1       3.459   7.914  17.226  0.00  0.00    +0.000 A 
ATOM     14  C   UNL     1       3.688   6.633  17.718  0.00  0.00    +0.000 A 
ATOM     15  C   UNL     1       3.062   6.198  18.890  0.00  0.00    +0.000 A 
ATOM     16  C   UNL     1       2.179   7.083  19.538  0.00  0.00    +0.000 A 
BRANCH  15  17
ATOM     17  C   UNL     1       3.326   4.871  19.480  0.00  0.00    +0.000 A 
ATOM     18  C   UNL     1       4.476   4.082  19.472  0.00  0.00    +0.000 A 
ATOM     19  C   UNL     1       4.078   2.834  19.987  0.00  0.00    +0.000 A 
ATOM     20  N   UNL     1       2.800   2.814  20.340  0.00  0.00    +0.000 NA
ATOM     21  N   UNL     1       2.363   4.066  20.067  0.00  0.00    +0.000 N 
ATOM     22  C   UNL     1       0.986   4.371  20.369  0.00  0.00    +0.000 C 
BRANCH  18  23
ATOM     23  C   UNL     1       5.830   4.480  19.008  0.00  0.00    +0.000 A 
ATOM     24  N   UNL     1       6.721   5.102  19.755  0.00  0.00    +0.000 NA
ATOM     25  N   UNL     1       7.860   5.297  19.009  0.00  0.00    +0.000 NA
ATOM     26  C   UNL     1       7.628   4.822  17.810  0.00  0.00    +0.000 A 
ATOM     27  N   UNL     1       6.363   4.318  17.756  0.00  0.00    +0.000 N 
ATOM     28  C   UNL     1       5.673   3.939  16.552  0.00  0.00    +0.000 C 
ENDBRANCH  18  23
ENDBRANCH  15  17
ENDBRANCH   8  11
BRANCH   5  29
ATOM     29  C   UNL     1      -2.666  11.785  18.783  0.00  0.00    +0.000 C 
ATOM     30  F   UNL     1      -1.922  12.351  17.790  0.00  0.00    +0.000 F 
ATOM     31  F   UNL     1      -3.182  10.645  18.244  0.00  0.00    +0.000 F 
ATOM     32  F   UNL     1      -3.721  12.623  18.974  0.00  0.00    +0.000 F 
ENDBRANCH   5  29
BRANCH   1  33
ATOM     33  C   UNL     1      -1.956  12.560  23.776  0.00  0.00    +0.000 C 
BRANCH  33  37
ATOM     34  C   UNL     1      -5.389  15.058  22.386  0.00  0.00    +0.000 C 
ATOM     35  C   UNL     1      -5.032  14.801  23.847  0.00  0.00    +0.000 C 
ATOM     36  C   UNL     1      -4.172  13.537  24.033  0.00  0.00    +0.000 C 
ATOM     37  N   UNL     1      -2.778  13.763  23.597  0.00  0.00    +0.000 NA
ATOM     38  C   UNL     1      -2.241  14.854  24.442  0.00  0.00    +0.000 C 
ATOM     39  C   UNL     1      -3.059  16.155  24.315  0.00  0.00    +0.000 C 
ATOM     40  C   UNL     1      -2.730  16.934  23.046  0.00  0.00    +0.000 C 
ATOM     41  O   UNL     1      -4.471  15.960  24.482  0.00  0.00    +0.000 OA
ENDBRANCH  33  37
ENDBRANCH   1  33
TORSDOF 6
ENDMDL
MODEL 4
REMARK VINA RESULT:      -9.3      1.112      3.059
REMARK  Name = 
REMARK  10 active torsions:
REMARK  status: ('A' for Active; 'I' for Inactive)
REMARK    1  A    between atoms: C_1  and  C_2
REMARK    2  A    between atoms: N_4  and  C_5
REMARK    3  A    between atoms: C_5  and  C_6
REMARK    4  A    between atoms: C_10  and  C_11
REMARK    5  A    between atoms: N_17  and  C_18
REMARK    6  A    between atoms: C_22  and  C_23
REMARK    7  A    between atoms: C_24  and  C_25
REMARK    8  A    between atoms: N_29  and  C_30
REMARK    9  A    between atoms: N_33  and  C_34
REMARK   10  A    between atoms: C_39  and  C_40
REMARK                            x       y       z     vdW  Elec       q    Type
REMARK                         _______ _______ _______ _____ _____    ______ ____
ROOT
ATOM      1  C   UNL     1       3.184   4.369  17.909  0.00  0.00    +0.000 A 
ATOM      2  C   UNL     1       2.793   5.706  17.817  0.00  0.00    +0.000 A 
ATOM      3  C   UNL     1       2.242   6.293  18.936  0.00  0.00    +0.000 A 
ATOM      4  C   UNL     1       2.013   5.615  20.126  0.00  0.00    +0.000 A 
ATOM      5  C   UNL     1       2.311   4.258  20.224  0.00  0.00    +0.000 A 
ATOM      6  C   UNL     1       2.925   3.651  19.103  0.00  0.00    +0.000 A 
ATOM      7  C   UNL     1       1.461   6.577  21.133  0.00  0.00    +0.000 C 
ATOM      8  N   UNL     1       1.366   7.828  20.391  0.00  0.00    +0.000 N 
ATOM      9  C   UNL     1       1.830   7.685  19.085  0.00  0.00    +0.000 C 
ATOM     10  O   UNL     1       1.928   8.476  18.165  0.00  0.00    +0.000 OA
ENDROOT
BRANCH   8  11
ATOM     11  C   UNL     1       0.850   9.021  20.955  0.00  0.00    +0.000 A 
ATOM     12  C   UNL     1       0.431   9.068  22.287  0.00  0.00    +0.000 A 
ATOM     13  C   UNL     1      -0.073  10.242  22.840  0.00  0.00    +0.000 A 
ATOM     14  C   UNL     1      -0.199  11.386  22.058  0.00  0.00    +0.000 A 
ATOM     15  C   UNL     1       0.229  11.390  20.728  0.00  0.00    +0.000 A 
ATOM     16  C   UNL     1       0.763  10.199  20.200  0.00  0.00    +0.000 A 
BRANCH  15  17
ATOM     17  C   UNL     1       0.172  12.600  19.884  0.00  0.00    +0.000 A 
ATOM     18  C   UNL     1       0.908  13.784  19.937  0.00  0.00    +0.000 A 
ATOM     19  C   UNL     1       0.272  14.662  19.039  0.00  0.00    +0.000 A 
ATOM     20  N   UNL     1      -0.759  14.098  18.422  0.00  0.00    +0.000 NA
ATOM     21  N   UNL     1      -0.785  12.835  18.911  0.00  0.00    +0.000 N 
ATOM     22  C   UNL     1      -1.804  11.948  18.406  0.00  0.00    +0.000 C 
BRANCH  18  23
ATOM     23  C   UNL     1       2.105  14.055  20.773  0.00  0.00    +0.000 A 
ATOM     24  N   UNL     1       2.068  14.325  22.064  0.00  0.00    +0.000 NA
ATOM     25  N   UNL     1       3.356  14.505  22.512  0.00  0.00    +0.000 NA
ATOM     26  C   UNL     1       4.151  14.377  21.479  0.00  0.00    +0.000 A 
ATOM     27  N   UNL     1       3.412  14.115  20.365  0.00  0.00    +0.000 N 
ATOM     28  C   UNL     1       3.907  14.154  19.014  0.00  0.00    +0.000 C 
ENDBRANCH  18  23
ENDBRANCH  15  17
ENDBRANCH   8  11
BRANCH   5  29
ATOM     29  C   UNL     1       1.992   3.448  21.454  0.00  0.00    +0.000 C 
ATOM     30  F   UNL     1       0.675   3.109  21.558  0.00  0.00    +0.000 F 
ATOM     31  F   UNL     1       2.674   2.269  21.489  0.00  0.00    +0.000 F 
ATOM     32  F   UNL     1       2.297   4.096  22.610  0.00  0.00    +0.000 F 
ENDBRANCH   5  29
BRANCH   1  33
ATOM     33  C   UNL     1       3.905   3.744  16.732  0.00  0.00    +0.000 C 
BRANCH  33  37
ATOM     34  C   UNL     1       7.237   6.707  17.004  0.00  0.00    +0.000 C 
ATOM     35  C   UNL     1       7.392   5.200  17.188  0.00  0.00    +0.000 C 
ATOM     36  C   UNL     1       6.066   4.509  17.554  0.00  0.00    +0.000 C 
ATOM     37  N   UNL     1       5.168   4.405  16.385  0.00  0.00    +0.000 NA
ATOM     38  C   UNL     1       5.884   3.596  15.373  0.00  0.00    +0.000 C 
ATOM     39  C   UNL     1       7.231   4.223  14.960  0.00  0.00    +0.000 C 
ATOM     40  C   UNL     1       7.065   5.370  13.970  0.00  0.00    +0.000 C 
ATOM     41  O   UNL     1       8.058   4.582  16.077  0.00  0.00    +0.000 OA
ENDBRANCH  33  37
ENDBRANCH   1  33
TORSDOF 6
ENDMDL
MODEL 5
REMARK VINA RESULT:      -9.1      4.505     11.142
REMARK  Name = 
REMARK  10 active torsions:
REMARK  status: ('A' for Active; 'I' for Inactive)
REMARK    1  A    between atoms: C_1  and  C_2
REMARK    2  A    between atoms: N_4  and  C_5
REMARK    3  A    between atoms: C_5  and  C_6
REMARK    4  A    between atoms: C_10  and  C_11
REMARK    5  A    between atoms: N_17  and  C_18
REMARK    6  A    between atoms: C_22  and  C_23
REMARK    7  A    between atoms: C_24  and  C_25
REMARK    8  A    between atoms: N_29  and  C_30
REMARK    9  A    between atoms: N_33  and  C_34
REMARK   10  A    between atoms: C_39  and  C_40
REMARK                            x       y       z     vdW  Elec       q    Type
REMARK                         _______ _______ _______ _____ _____    ______ ____
ROOT
ATOM      1  C   UNL     1      -1.362  11.980  22.239  0.00  0.00    +0.000 A 
ATOM      2  C   UNL     1      -0.839  10.691  22.124  0.00  0.00    +0.000 A 
ATOM      3  C   UNL     1      -0.080  10.402  21.011  0.00  0.00    +0.000 A 
ATOM      4  C   UNL     1       0.152  11.305  19.983  0.00  0.00    +0.000 A 
ATOM      5  C   UNL     1      -0.425  12.571  20.023  0.00  0.00    +0.000 A 
ATOM      6  C   UNL     1      -1.166  12.905  21.183  0.00  0.00    +0.000 A 
ATOM      7  C   UNL     1       1.060  10.670  18.975  0.00  0.00    +0.000 C 
ATOM      8  N   UNL     1       1.277   9.331  19.510  0.00  0.00    +0.000 N 
ATOM      9  C   UNL     1       0.614   9.151  20.722  0.00  0.00    +0.000 C 
ATOM     10  O   UNL     1       0.550   8.202  21.481  0.00  0.00    +0.000 OA
ENDROOT
BRANCH   8  11
ATOM     11  C   UNL     1       2.061   8.354  18.847  0.00  0.00    +0.000 A 
ATOM     12  C   UNL     1       2.606   8.600  17.585  0.00  0.00    +0.000 A 
ATOM     13  C   UNL     1       3.379   7.640  16.937  0.00  0.00    +0.000 A 
ATOM     14  C   UNL     1       3.595   6.400  17.528  0.00  0.00    +0.000 A 
ATOM     15  C   UNL     1       3.087   6.119  18.800  0.00  0.00    +0.000 A 
ATOM     16  C   UNL     1       2.334   7.117  19.448  0.00  0.00    +0.000 A 
BRANCH  15  17
ATOM     17  C   UNL     1       3.347   4.840  19.489  0.00  0.00    +0.000 A 
ATOM     18  C   UNL     1       4.489   4.040  19.527  0.00  0.00    +0.000 A 
ATOM     19  C   UNL     1       4.087   2.841  20.145  0.00  0.00    +0.000 A 
ATOM     20  N   UNL     1       2.813   2.863  20.517  0.00  0.00    +0.000 NA
ATOM     21  N   UNL     1       2.385   4.095  20.152  0.00  0.00    +0.000 N 
ATOM     22  C   UNL     1       1.016   4.437  20.449  0.00  0.00    +0.000 C 
BRANCH  18  23
ATOM     23  C   UNL     1       5.839   4.385  19.013  0.00  0.00    +0.000 A 
ATOM     24  N   UNL     1       6.777   4.983  19.723  0.00  0.00    +0.000 NA
ATOM     25  N   UNL     1       7.895   5.130  18.936  0.00  0.00    +0.000 NA
ATOM     26  C   UNL     1       7.606   4.652  17.751  0.00  0.00    +0.000 A 
ATOM     27  N   UNL     1       6.324   4.192  17.746  0.00  0.00    +0.000 N 
ATOM     28  C   UNL     1       5.580   3.825  16.570  0.00  0.00    +0.000 C 
ENDBRANCH  18  23
ENDBRANCH  15  17
ENDBRANCH   8  11
BRANCH   5  29
ATOM     29  C   UNL     1      -0.293  13.557  18.891  0.00  0.00    +0.000 C 
ATOM     30  F   UNL     1       0.999  13.803  18.529  0.00  0.00    +0.000 F 
ATOM     31  F   UNL     1      -0.913  13.129  17.757  0.00  0.00    +0.000 F 
ATOM     32  F   UNL     1      -0.831  14.773  19.181  0.00  0.00    +0.000 F 
ENDBRANCH   5  29
BRANCH   1  33
ATOM     33  C   UNL     1      -2.092  12.353  23.513  0.00  0.00    +0.000 C 
BRANCH  33  37
ATOM     34  C   UNL     1      -5.484  14.697  21.793  0.00  0.00    +0.000 C 
ATOM     35  C   UNL     1      -5.424  14.171  23.224  0.00  0.00    +0.000 C 
ATOM     36  C   UNL     1      -4.436  13.001  23.385  0.00  0.00    +0.000 C 
ATOM     37  N   UNL     1      -3.034  13.468  23.358  0.00  0.00    +0.000 NA
ATOM     38  C   UNL     1      -2.878  14.404  24.494  0.00  0.00    +0.000 C 
ATOM     39  C   UNL     1      -3.844  15.603  24.408  0.00  0.00    +0.000 C 
ATOM     40  C   UNL     1      -3.370  16.669  23.425  0.00  0.00    +0.000 C 
ATOM     41  O   UNL     1      -5.209  15.221  24.180  0.00  0.00    +0.000 OA
ENDBRANCH  33  37
ENDBRANCH   1  33
TORSDOF 6
ENDMDL
MODEL 6
REMARK VINA RESULT:      -9.0      4.402     10.990
REMARK  Name = 
REMARK  10 active torsions:
REMARK  status: ('A' for Active; 'I' for Inactive)
REMARK    1  A    between atoms: C_1  and  C_2
REMARK    2  A    between atoms: N_4  and  C_5
REMARK    3  A    between atoms: C_5  and  C_6
REMARK    4  A    between atoms: C_10  and  C_11
REMARK    5  A    between atoms: N_17  and  C_18
REMARK    6  A    between atoms: C_22  and  C_23
REMARK    7  A    between atoms: C_24  and  C_25
REMARK    8  A    between atoms: N_29  and  C_30
REMARK    9  A    between atoms: N_33  and  C_34
REMARK   10  A    between atoms: C_39  and  C_40
REMARK                            x       y       z     vdW  Elec       q    Type
REMARK                         _______ _______ _______ _____ _____    ______ ____
ROOT
ATOM      1  C   UNL     1      -1.615  11.877  22.194  0.00  0.00    +0.000 A 
ATOM      2  C   UNL     1      -1.110  10.585  22.034  0.00  0.00    +0.000 A 
ATOM      3  C   UNL     1      -0.258  10.355  20.975  0.00  0.00    +0.000 A 
ATOM      4  C   UNL     1       0.085  11.322  20.040  0.00  0.00    +0.000 A 
ATOM      5  C   UNL     1      -0.468  12.598  20.120  0.00  0.00    +0.000 A 
ATOM      6  C   UNL     1      -1.305  12.868  21.229  0.00  0.00    +0.000 A 
ATOM      7  C   UNL     1       1.069  10.735  19.074  0.00  0.00    +0.000 C 
ATOM      8  N   UNL     1       1.209   9.357  19.528  0.00  0.00    +0.000 N 
ATOM      9  C   UNL     1       0.435   9.110  20.659  0.00  0.00    +0.000 C 
ATOM     10  O   UNL     1       0.283   8.112  21.339  0.00  0.00    +0.000 OA
ENDROOT
BRANCH   8  11
ATOM     11  C   UNL     1       2.031   8.409  18.869  0.00  0.00    +0.000 A 
ATOM     12  C   UNL     1       2.628   8.700  17.641  0.00  0.00    +0.000 A 
ATOM     13  C   UNL     1       3.438   7.769  16.997  0.00  0.00    +0.000 A 
ATOM     14  C   UNL     1       3.639   6.511  17.557  0.00  0.00    +0.000 A 
ATOM     15  C   UNL     1       3.079   6.185  18.795  0.00  0.00    +0.000 A 
ATOM     16  C   UNL     1       2.288   7.155  19.441  0.00  0.00    +0.000 A 
BRANCH  15  17
ATOM     17  C   UNL     1       3.320   4.886  19.453  0.00  0.00    +0.000 A 
ATOM     18  C   UNL     1       4.455   4.075  19.482  0.00  0.00    +0.000 A 
ATOM     19  C   UNL     1       4.036   2.864  20.064  0.00  0.00    +0.000 A 
ATOM     20  N   UNL     1       2.759   2.888  20.423  0.00  0.00    +0.000 NA
ATOM     21  N   UNL     1       2.345   4.132  20.086  0.00  0.00    +0.000 N 
ATOM     22  C   UNL     1       0.975   4.479  20.377  0.00  0.00    +0.000 C 
BRANCH  18  23
ATOM     23  C   UNL     1       5.813   4.422  18.992  0.00  0.00    +0.000 A 
ATOM     24  N   UNL     1       6.743   5.008  19.722  0.00  0.00    +0.000 NA
ATOM     25  N   UNL     1       7.873   5.160  18.953  0.00  0.00    +0.000 NA
ATOM     26  C   UNL     1       7.599   4.697  17.759  0.00  0.00    +0.000 A 
ATOM     27  N   UNL     1       6.316   4.242  17.729  0.00  0.00    +0.000 N 
ATOM     28  C   UNL     1       5.588   3.891  16.539  0.00  0.00    +0.000 C 
ENDBRANCH  18  23
ENDBRANCH  15  17
ENDBRANCH   8  11
BRANCH   5  29
ATOM     29  C   UNL     1      -0.213  13.656  19.079  0.00  0.00    +0.000 C 
ATOM     30  F   UNL     1      -0.819  14.847  19.351  0.00  0.00    +0.000 F 
ATOM     31  F   UNL     1       1.111  13.944  18.946  0.00  0.00    +0.000 F 
ATOM     32  F   UNL     1      -0.648  13.298  17.840  0.00  0.00    +0.000 F 
ENDBRANCH   5  29
BRANCH   1  33
ATOM     33  C   UNL     1      -2.451  12.179  23.421  0.00  0.00    +0.000 C 
BRANCH  33  37
ATOM     34  C   UNL     1      -6.844  12.385  24.203  0.00  0.00    +0.000 C 
ATOM     35  C   UNL     1      -5.973  13.571  23.799  0.00  0.00    +0.000 C 
ATOM     36  C   UNL     1      -4.481  13.340  24.100  0.00  0.00    +0.000 C 
ATOM     37  N   UNL     1      -3.874  12.398  23.136  0.00  0.00    +0.000 NA
ATOM     38  C   UNL     1      -4.017  13.013  21.797  0.00  0.00    +0.000 C 
ATOM     39  C   UNL     1      -5.489  13.284  21.427  0.00  0.00    +0.000 C 
ATOM     40  C   UNL     1      -6.218  12.027  20.962  0.00  0.00    +0.000 C 
ATOM     41  O   UNL     1      -6.214  13.987  22.447  0.00  0.00    +0.000 OA
ENDBRANCH  33  37
ENDBRANCH   1  33
TORSDOF 6
ENDMDL
MODEL 7
REMARK VINA RESULT:      -8.9      1.187      3.185
REMARK  Name = 
REMARK  10 active torsions:
REMARK  status: ('A' for Active; 'I' for Inactive)
REMARK    1  A    between atoms: C_1  and  C_2
REMARK    2  A    between atoms: N_4  and  C_5
REMARK    3  A    between atoms: C_5  and  C_6
REMARK    4  A    between atoms: C_10  and  C_11
REMARK    5  A    between atoms: N_17  and  C_18
REMARK    6  A    between atoms: C_22  and  C_23
REMARK    7  A    between atoms: C_24  and  C_25
REMARK    8  A    between atoms: N_29  and  C_30
REMARK    9  A    between atoms: N_33  and  C_34
REMARK   10  A    between atoms: C_39  and  C_40
REMARK                            x       y       z     vdW  Elec       q    Type
REMARK                         _______ _______ _______ _____ _____    ______ ____
ROOT
ATOM      1  C   UNL     1       3.187   4.387  17.963  0.00  0.00    +0.000 A 
ATOM      2  C   UNL     1       2.766   5.713  17.850  0.00  0.00    +0.000 A 
ATOM      3  C   UNL     1       2.224   6.313  18.965  0.00  0.00    +0.000 A 
ATOM      4  C   UNL     1       2.032   5.658  20.174  0.00  0.00    +0.000 A 
ATOM      5  C   UNL     1       2.360   4.310  20.297  0.00  0.00    +0.000 A 
ATOM      6  C   UNL     1       2.966   3.691  19.177  0.00  0.00    +0.000 A 
ATOM      7  C   UNL     1       1.478   6.630  21.171  0.00  0.00    +0.000 C 
ATOM      8  N   UNL     1       1.343   7.862  20.403  0.00  0.00    +0.000 N 
ATOM      9  C   UNL     1       1.785   7.699  19.092  0.00  0.00    +0.000 C 
ATOM     10  O   UNL     1       1.849   8.472  18.154  0.00  0.00    +0.000 OA
ENDROOT
BRANCH   8  11
ATOM     11  C   UNL     1       0.812   9.056  20.951  0.00  0.00    +0.000 A 
ATOM     12  C   UNL     1       0.314   9.094  22.256  0.00  0.00    +0.000 A 
ATOM     13  C   UNL     1      -0.204  10.269  22.793  0.00  0.00    +0.000 A 
ATOM     14  C   UNL     1      -0.264  11.424  22.021  0.00  0.00    +0.000 A 
ATOM     15  C   UNL     1       0.243  11.438  20.718  0.00  0.00    +0.000 A 
ATOM     16  C   UNL     1       0.789  10.245  20.207  0.00  0.00    +0.000 A 
BRANCH  15  17
ATOM     17  C   UNL     1       0.257  12.658  19.889  0.00  0.00    +0.000 A 
ATOM     18  C   UNL     1       0.974  13.847  20.027  0.00  0.00    +0.000 A 
ATOM     19  C   UNL     1       0.418  14.733  19.085  0.00  0.00    +0.000 A 
ATOM     20  N   UNL     1      -0.544  14.170  18.365  0.00  0.00    +0.000 NA
ATOM     21  N   UNL     1      -0.606  12.901  18.832  0.00  0.00    +0.000 N 
ATOM     22  C   UNL     1      -1.564  12.013  18.220  0.00  0.00    +0.000 C 
BRANCH  18  23
ATOM     23  C   UNL     1       2.083  14.116  20.977  0.00  0.00    +0.000 A 
ATOM     24  N   UNL     1       3.127  13.328  21.148  0.00  0.00    +0.000 NA
ATOM     25  N   UNL     1       3.955  13.894  22.088  0.00  0.00    +0.000 NA
ATOM     26  C   UNL     1       3.383  14.998  22.500  0.00  0.00    +0.000 A 
ATOM     27  N   UNL     1       2.200  15.169  21.847  0.00  0.00    +0.000 N 
ATOM     28  C   UNL     1       1.187  16.126  22.205  0.00  0.00    +0.000 C 
ENDBRANCH  18  23
ENDBRANCH  15  17
ENDBRANCH   8  11
BRANCH   5  29
ATOM     29  C   UNL     1       2.082   3.521  21.549  0.00  0.00    +0.000 C 
ATOM     30  F   UNL     1       2.729   2.321  21.595  0.00  0.00    +0.000 F 
ATOM     31  F   UNL     1       2.465   4.183  22.676  0.00  0.00    +0.000 F 
ATOM     32  F   UNL     1       0.762   3.232  21.712  0.00  0.00    +0.000 F 
ENDBRANCH   5  29
BRANCH   1  33
ATOM     33  C   UNL     1       3.899   3.752  16.786  0.00  0.00    +0.000 C 
BRANCH  33  37
ATOM     34  C   UNL     1       7.301   6.629  17.093  0.00  0.00    +0.000 C 
ATOM     35  C   UNL     1       7.424   5.115  17.235  0.00  0.00    +0.000 C 
ATOM     36  C   UNL     1       6.087   4.444  17.600  0.00  0.00    +0.000 C 
ATOM     37  N   UNL     1       5.172   4.393  16.440  0.00  0.00    +0.000 NA
ATOM     38  C   UNL     1       5.856   3.595  15.397  0.00  0.00    +0.000 C 
ATOM     39  C   UNL     1       7.211   4.202  14.983  0.00  0.00    +0.000 C 
ATOM     40  C   UNL     1       7.060   5.379  14.026  0.00  0.00    +0.000 C 
ATOM     41  O   UNL     1       8.061   4.512  16.098  0.00  0.00    +0.000 OA
ENDBRANCH  33  37
ENDBRANCH   1  33
TORSDOF 6
ENDMDL
MODEL 8
REMARK VINA RESULT:      -8.8      2.969      9.486
REMARK  Name = 
REMARK  10 active torsions:
REMARK  status: ('A' for Active; 'I' for Inactive)
REMARK    1  A    between atoms: C_1  and  C_2
REMARK    2  A    between atoms: N_4  and  C_5
REMARK    3  A    between atoms: C_5  and  C_6
REMARK    4  A    between atoms: C_10  and  C_11
REMARK    5  A    between atoms: N_17  and  C_18
REMARK    6  A    between atoms: C_22  and  C_23
REMARK    7  A    between atoms: C_24  and  C_25
REMARK    8  A    between atoms: N_29  and  C_30
REMARK    9  A    between atoms: N_33  and  C_34
REMARK   10  A    between atoms: C_39  and  C_40
REMARK                            x       y       z     vdW  Elec       q    Type
REMARK                         _______ _______ _______ _____ _____    ______ ____
ROOT
ATOM      1  C   UNL     1       0.986  11.634  19.389  0.00  0.00    +0.000 A 
ATOM      2  C   UNL     1       1.690  10.842  18.479  0.00  0.00    +0.000 A 
ATOM      3  C   UNL     1       1.790   9.493  18.744  0.00  0.00    +0.000 A 
ATOM      4  C   UNL     1       1.272   8.893  19.884  0.00  0.00    +0.000 A 
ATOM      5  C   UNL     1       0.640   9.666  20.854  0.00  0.00    +0.000 A 
ATOM      6  C   UNL     1       0.482  11.045  20.576  0.00  0.00    +0.000 A 
ATOM      7  C   UNL     1       1.517   7.417  19.808  0.00  0.00    +0.000 C 
ATOM      8  N   UNL     1       2.246   7.257  18.555  0.00  0.00    +0.000 N 
ATOM      9  C   UNL     1       2.414   8.477  17.904  0.00  0.00    +0.000 C 
ATOM     10  O   UNL     1       2.947   8.768  16.849  0.00  0.00    +0.000 OA
ENDROOT
BRANCH   8  11
ATOM     11  C   UNL     1       2.719   6.004  18.095  0.00  0.00    +0.000 A 
ATOM     12  C   UNL     1       2.039   4.820  18.390  0.00  0.00    +0.000 A 
ATOM     13  C   UNL     1       2.504   3.591  17.933  0.00  0.00    +0.000 A 
ATOM     14  C   UNL     1       3.683   3.518  17.198  0.00  0.00    +0.000 A 
ATOM     15  C   UNL     1       4.384   4.679  16.860  0.00  0.00    +0.000 A 
ATOM     16  C   UNL     1       3.877   5.914  17.309  0.00  0.00    +0.000 A 
BRANCH  15  17
ATOM     17  C   UNL     1       5.603   4.651  16.028  0.00  0.00    +0.000 A 
ATOM     18  C   UNL     1       6.912   5.038  16.315  0.00  0.00    +0.000 A 
ATOM     19  C   UNL     1       7.593   5.001  15.083  0.00  0.00    +0.000 A 
ATOM     20  N   UNL     1       6.819   4.589  14.087  0.00  0.00    +0.000 NA
ATOM     21  N   UNL     1       5.626   4.340  14.678  0.00  0.00    +0.000 N 
ATOM     22  C   UNL     1       4.560   3.847  13.842  0.00  0.00    +0.000 C 
BRANCH  18  23
ATOM     23  C   UNL     1       7.462   5.416  17.642  0.00  0.00    +0.000 A 
ATOM     24  N   UNL     1       7.682   4.568  18.628  0.00  0.00    +0.000 NA
ATOM     25  N   UNL     1       8.206   5.260  19.694  0.00  0.00    +0.000 NA
ATOM     26  C   UNL     1       8.261   6.523  19.351  0.00  0.00    +0.000 A 
ATOM     27  N   UNL     1       7.788   6.673  18.083  0.00  0.00    +0.000 N 
ATOM     28  C   UNL     1       7.469   7.929  17.460  0.00  0.00    +0.000 C 
ENDBRANCH  18  23
ENDBRANCH  15  17
ENDBRANCH   8  11
BRANCH   5  29
ATOM     29  C   UNL     1       0.149   9.088  22.156  0.00  0.00    +0.000 C 
ATOM     30  F   UNL     1       1.139   8.548  22.922  0.00  0.00    +0.000 F 
ATOM     31  F   UNL     1      -0.451  10.023  22.944  0.00  0.00    +0.000 F 
ATOM     32  F   UNL     1      -0.766   8.095  21.984  0.00  0.00    +0.000 F 
ENDBRANCH   5  29
BRANCH   1  33
ATOM     33  C   UNL     1       0.758  13.093  19.052  0.00  0.00    +0.000 C 
BRANCH  33  37
ATOM     34  C   UNL     1       4.456  15.310  17.884  0.00  0.00    +0.000 C 
ATOM     35  C   UNL     1       3.191  15.956  18.442  0.00  0.00    +0.000 C 
ATOM     36  C   UNL     1       1.945  15.068  18.265  0.00  0.00    +0.000 C 
ATOM     37  N   UNL     1       1.946  13.938  19.218  0.00  0.00    +0.000 NA
ATOM     38  C   UNL     1       1.942  14.529  20.575  0.00  0.00    +0.000 C 
ATOM     39  C   UNL     1       3.160  15.441  20.825  0.00  0.00    +0.000 C 
ATOM     40  C   UNL     1       4.428  14.654  21.138  0.00  0.00    +0.000 C 
ATOM     41  O   UNL     1       3.365  16.415  19.791  0.00  0.00    +0.000 OA
ENDBRANCH  33  37
ENDBRANCH   1  33
TORSDOF 6
ENDMDL
MODEL 9
REMARK VINA RESULT:      -8.7      2.883      9.573
REMARK  Name = 
REMARK  10 active torsions:
REMARK  status: ('A' for Active; 'I' for Inactive)
REMARK    1  A    between atoms: C_1  and  C_2
REMARK    2  A    between atoms: N_4  and  C_5
REMARK    3  A    between atoms: C_5  and  C_6
REMARK    4  A    between atoms: C_10  and  C_11
REMARK    5  A    between atoms: N_17  and  C_18
REMARK    6  A    between atoms: C_22  and  C_23
REMARK    7  A    between atoms: C_24  and  C_25
REMARK    8  A    between atoms: N_29  and  C_30
REMARK    9  A    between atoms: N_33  and  C_34
REMARK   10  A    between atoms: C_39  and  C_40
REMARK                            x       y       z     vdW  Elec       q    Type
REMARK                         _______ _______ _______ _____ _____    ______ ____
ROOT
ATOM      1  C   UNL     1       0.126  11.630  19.336  0.00  0.00    +0.000 A 
ATOM      2  C   UNL     1       0.988  10.801  18.615  0.00  0.00    +0.000 A 
ATOM      3  C   UNL     1       1.345   9.597  19.183  0.00  0.00    +0.000 A 
ATOM      4  C   UNL     1       0.934   9.189  20.445  0.00  0.00    +0.000 A 
ATOM      5  C   UNL     1       0.145  10.029  21.226  0.00  0.00    +0.000 A 
ATOM      6  C   UNL     1      -0.275  11.248  20.640  0.00  0.00    +0.000 A 
ATOM      7  C   UNL     1       1.464   7.813  20.707  0.00  0.00    +0.000 C 
ATOM      8  N   UNL     1       2.233   7.511  19.505  0.00  0.00    +0.000 N 
ATOM      9  C   UNL     1       2.172   8.554  18.584  0.00  0.00    +0.000 C 
ATOM     10  O   UNL     1       2.657   8.689  17.476  0.00  0.00    +0.000 OA
ENDROOT
BRANCH   8  11
ATOM     11  C   UNL     1       2.951   6.302  19.334  0.00  0.00    +0.000 A 
ATOM     12  C   UNL     1       2.791   5.234  20.221  0.00  0.00    +0.000 A 
ATOM     13  C   UNL     1       3.496   4.046  20.050  0.00  0.00    +0.000 A 
ATOM     14  C   UNL     1       4.401   3.915  19.002  0.00  0.00    +0.000 A 
ATOM     15  C   UNL     1       4.576   4.949  18.078  0.00  0.00    +0.000 A 
ATOM     16  C   UNL     1       3.830   6.130  18.256  0.00  0.00    +0.000 A 
BRANCH  15  17
ATOM     17  C   UNL     1       5.478   4.825  16.917  0.00  0.00    +0.000 A 
ATOM     18  C   UNL     1       6.576   5.594  16.528  0.00  0.00    +0.000 A 
ATOM     19  C   UNL     1       6.903   5.153  15.232  0.00  0.00    +0.000 A 
ATOM     20  N   UNL     1       6.125   4.160  14.822  0.00  0.00    +0.000 NA
ATOM     21  N   UNL     1       5.291   3.941  15.866  0.00  0.00    +0.000 N 
ATOM     22  C   UNL     1       4.320   2.884  15.731  0.00  0.00    +0.000 C 
BRANCH  18  23
ATOM     23  C   UNL     1       7.245   6.659  17.319  0.00  0.00    +0.000 A 
ATOM     24  N   UNL     1       7.416   7.900  16.906  0.00  0.00    +0.000 NA
ATOM     25  N   UNL     1       8.055   8.608  17.896  0.00  0.00    +0.000 NA
ATOM     26  C   UNL     1       8.295   7.776  18.879  0.00  0.00    +0.000 A 
ATOM     27  N   UNL     1       7.824   6.540  18.556  0.00  0.00    +0.000 N 
ATOM     28  C   UNL     1       8.117   5.327  19.272  0.00  0.00    +0.000 C 
ENDBRANCH  18  23
ENDBRANCH  15  17
ENDBRANCH   8  11
BRANCH   5  29
ATOM     29  C   UNL     1      -0.248   9.686  22.639  0.00  0.00    +0.000 C 
ATOM     30  F   UNL     1       0.816   9.500  23.472  0.00  0.00    +0.000 F 
ATOM     31  F   UNL     1      -0.998  10.663  23.221  0.00  0.00    +0.000 F 
ATOM     32  F   UNL     1      -0.984   8.545  22.723  0.00  0.00    +0.000 F 
ENDBRANCH   5  29
BRANCH   1  33
ATOM     33  C   UNL     1      -0.376  12.898  18.676  0.00  0.00    +0.000 C 
BRANCH  33  37
ATOM     34  C   UNL     1       2.795  15.414  20.565  0.00  0.00    +0.000 C 
ATOM     35  C   UNL     1       2.386  15.482  19.096  0.00  0.00    +0.000 C 
ATOM     36  C   UNL     1       1.680  14.200  18.617  0.00  0.00    +0.000 C 
ATOM     37  N   UNL     1       0.298  14.118  19.133  0.00  0.00    +0.000 NA
ATOM     38  C   UNL     1      -0.420  15.301  18.609  0.00  0.00    +0.000 C 
ATOM     39  C   UNL     1       0.235  16.629  19.041  0.00  0.00    +0.000 C 
ATOM     40  C   UNL     1      -0.112  17.016  20.475  0.00  0.00    +0.000 C 
ATOM     41  O   UNL     1       1.648  16.675  18.792  0.00  0.00    +0.000 OA
ENDBRANCH  33  37
ENDBRANCH   1  33
TORSDOF 6
ENDMDL
