MODEL 1
REMARK VINA RESULT:      -8.5      0.000      0.000
REMARK  Name = 
REMARK  11 active torsions:
REMARK  status: ('A' for Active; 'I' for Inactive)
REMARK    1  A    between atoms: C_1  and  C_2
REMARK    2  A    between atoms: C_2  and  S_3
REMARK    3  A    between atoms: C_2  and  C_10
REMARK    4  A    between atoms: S_3  and  C_4
REMARK    5  A    between atoms: N_8  and  C_9
REMARK    6  A    between atoms: C_14  and  N_15
REMARK    7  A    between atoms: C_16  and  C_18
REMARK    8  A    between atoms: C_20  and  C_21
REMARK    9  A    between atoms: C_21  and  C_22
REMARK   10  A    between atoms: C_21  and  C_23
REMARK   11  A    between atoms: C_21  and  O_24
REMARK                            x       y       z     vdW  Elec       q    Type
REMARK                         _______ _______ _______ _____ _____    ______ ____
ROOT
ATOM      1  N   UNL     1       2.226   6.791  20.287  0.00  0.00    +0.000 N 
ATOM      2  C   UNL     1       1.886   7.984  19.671  0.00  0.00    +0.000 C 
ATOM      3  O   UNL     1       2.153   8.322  18.522  0.00  0.00    +0.000 OA
ATOM      4  H   UNL     1       1.812   6.642  21.203  0.00  0.00    +0.000 HD
ENDROOT
BRANCH   2   5
ATOM      5  C   UNL     1       1.073   8.914  20.517  0.00  0.00    +0.000 A 
ATOM      6  C   UNL     1       0.349   9.932  19.896  0.00  0.00    +0.000 A 
ATOM      7  C   UNL     1      -0.432  10.832  20.654  0.00  0.00    +0.000 A 
ATOM      8  C   UNL     1      -0.427  10.628  22.043  0.00  0.00    +0.000 A 
ATOM      9 CL   UNL     1      -1.283  11.603  23.177  0.00  0.00    +0.000 Cl
ATOM     10  C   UNL     1       0.330   9.575  22.576  0.00  0.00    +0.000 A 
ATOM     11  N   UNL     1       1.082   8.709  21.855  0.00  0.00    +0.000 NA
BRANCH   7  12
ATOM     12  C   UNL     1      -1.203  11.916  19.886  0.00  0.00    +0.000 C 
ATOM     13  C   UNL     1      -0.570  13.299  20.112  0.00  0.00    +0.000 C 
ATOM     14  C   UNL     1      -1.241  11.597  18.384  0.00  0.00    +0.000 C 
BRANCH  12  15
ATOM     15  O   UNL     1      -2.568  12.062  20.270  0.00  0.00    +0.000 OA
ATOM     16  H   UNL     1      -2.856  12.964  20.048  0.00  0.00    +0.000 HD
ENDBRANCH  12  15
ENDBRANCH   7  12
ENDBRANCH   2   5
BRANCH   1  21
ATOM     17  C   UNL     1       4.619   5.044  18.024  0.00  0.00    +0.000 A 
ATOM     18  C   UNL     1       4.572   3.748  18.562  0.00  0.00    +0.000 A 
ATOM     19  C   UNL     1       3.734   3.446  19.632  0.00  0.00    +0.000 A 
ATOM     20  C   UNL     1       2.944   4.439  20.205  0.00  0.00    +0.000 A 
ATOM     21  C   UNL     1       2.966   5.741  19.706  0.00  0.00    +0.000 A 
ATOM     22  C   UNL     1       3.771   6.024  18.593  0.00  0.00    +0.000 A 
BRANCH  17  24
ATOM     23  C   UNL     1       5.169   6.720  16.148  0.00  0.00    +0.000 C 
ATOM     24  C   UNL     1       5.570   5.432  16.885  0.00  0.00    +0.000 C 
BRANCH  24  25
ATOM     25  S   UNL     1       5.656   4.034  15.682  0.00  0.00    +0.000 S 
BRANCH  25  26
ATOM     26  C   UNL     1       6.755   4.623  14.492  0.00  0.00    +0.000 A 
ATOM     27  N   UNL     1       7.755   5.455  14.662  0.00  0.00    +0.000 NA
ATOM     28  N   UNL     1       8.303   5.706  13.420  0.00  0.00    +0.000 NA
ATOM     29  C   UNL     1       7.626   5.006  12.538  0.00  0.00    +0.000 A 
ATOM     30  N   UNL     1       6.662   4.284  13.173  0.00  0.00    +0.000 N 
ATOM     31  C   UNL     1       5.737   3.374  12.554  0.00  0.00    +0.000 C 
ENDBRANCH  25  26
ENDBRANCH  24  25
ENDBRANCH  17  24
ENDBRANCH   1  21
TORSDOF 7
ENDMDL
MODEL 2
REMARK VINA RESULT:      -8.4      4.564      9.334
REMARK  Name = 
REMARK  11 active torsions:
REMARK  status: ('A' for Active; 'I' for Inactive)
REMARK    1  A    between atoms: C_1  and  C_2
REMARK    2  A    between atoms: C_2  and  S_3
REMARK    3  A    between atoms: C_2  and  C_10
REMARK    4  A    between atoms: S_3  and  C_4
REMARK    5  A    between atoms: N_8  and  C_9
REMARK    6  A    between atoms: C_14  and  N_15
REMARK    7  A    between atoms: C_16  and  C_18
REMARK    8  A    between atoms: C_20  and  C_21
REMARK    9  A    between atoms: C_21  and  C_22
REMARK   10  A    between atoms: C_21  and  C_23
REMARK   11  A    between atoms: C_21  and  O_24
REMARK                            x       y       z     vdW  Elec       q    Type
REMARK                         _______ _______ _______ _____ _____    ______ ____
ROOT
ATOM      1  N   UNL     1       2.239   7.772  18.903  0.00  0.00    +0.000 N 
ATOM      2  C   UNL     1       2.460   6.456  19.269  0.00  0.00    +0.000 C 
ATOM      3  O   UNL     1       1.997   5.874  20.246  0.00  0.00    +0.000 OA
ATOM      4  H   UNL     1       2.611   8.039  17.996  0.00  0.00    +0.000 HD
ENDROOT
BRANCH   2   5
ATOM      5  C   UNL     1       3.329   5.683  18.327  0.00  0.00    +0.000 A 
ATOM      6  C   UNL     1       4.659   6.070  18.161  0.00  0.00    +0.000 A 
ATOM      7  C   UNL     1       5.515   5.370  17.283  0.00  0.00    +0.000 A 
ATOM      8  C   UNL     1       4.942   4.280  16.609  0.00  0.00    +0.000 A 
ATOM      9 CL   UNL     1       5.774   3.285  15.474  0.00  0.00    +0.000 Cl
ATOM     10  C   UNL     1       3.596   3.964  16.842  0.00  0.00    +0.000 A 
ATOM     11  N   UNL     1       2.769   4.632  17.682  0.00  0.00    +0.000 NA
BRANCH   7  12
ATOM     12  C   UNL     1       6.965   5.862  17.170  0.00  0.00    +0.000 C 
ATOM     13  C   UNL     1       7.078   7.332  17.607  0.00  0.00    +0.000 C 
ATOM     14  C   UNL     1       7.903   4.990  18.019  0.00  0.00    +0.000 C 
BRANCH  12  15
ATOM     15  O   UNL     1       7.509   5.820  15.853  0.00  0.00    +0.000 OA
ATOM     16  H   UNL     1       8.233   6.466  15.798  0.00  0.00    +0.000 HD
ENDBRANCH  12  15
ENDBRANCH   7  12
ENDBRANCH   2   5
BRANCH   1  21
ATOM     17  C   UNL     1       0.038  10.718  19.515  0.00  0.00    +0.000 A 
ATOM     18  C   UNL     1      -0.244  10.542  20.879  0.00  0.00    +0.000 A 
ATOM     19  C   UNL     1       0.315   9.487  21.596  0.00  0.00    +0.000 A 
ATOM     20  C   UNL     1       1.146   8.570  20.959  0.00  0.00    +0.000 A 
ATOM     21  C   UNL     1       1.446   8.705  19.604  0.00  0.00    +0.000 A 
ATOM     22  C   UNL     1       0.925   9.801  18.902  0.00  0.00    +0.000 A 
BRANCH  17  24
ATOM     23  C   UNL     1      -0.211  13.251  19.121  0.00  0.00    +0.000 C 
ATOM     24  C   UNL     1      -0.603  11.832  18.676  0.00  0.00    +0.000 C 
BRANCH  24  25
ATOM     25  S   UNL     1      -2.438  11.649  18.749  0.00  0.00    +0.000 S 
BRANCH  25  26
ATOM     26  C   UNL     1      -2.811  10.948  17.219  0.00  0.00    +0.000 A 
ATOM     27  N   UNL     1      -2.050  10.177  16.480  0.00  0.00    +0.000 NA
ATOM     28  N   UNL     1      -2.728   9.926  15.303  0.00  0.00    +0.000 NA
ATOM     29  C   UNL     1      -3.885  10.543  15.374  0.00  0.00    +0.000 A 
ATOM     30  N   UNL     1      -3.993  11.174  16.576  0.00  0.00    +0.000 N 
ATOM     31  C   UNL     1      -5.125  11.930  17.039  0.00  0.00    +0.000 C 
ENDBRANCH  25  26
ENDBRANCH  24  25
ENDBRANCH  17  24
ENDBRANCH   1  21
TORSDOF 7
ENDMDL
MODEL 3
REMARK VINA RESULT:      -8.4      1.879      2.474
REMARK  Name = 
REMARK  11 active torsions:
REMARK  status: ('A' for Active; 'I' for Inactive)
REMARK    1  A    between atoms: C_1  and  C_2
REMARK    2  A    between atoms: C_2  and  S_3
REMARK    3  A    between atoms: C_2  and  C_10
REMARK    4  A    between atoms: S_3  and  C_4
REMARK    5  A    between atoms: N_8  and  C_9
REMARK    6  A    between atoms: C_14  and  N_15
REMARK    7  A    between atoms: C_16  and  C_18
REMARK    8  A    between atoms: C_20  and  C_21
REMARK    9  A    between atoms: C_21  and  C_22
REMARK   10  A    between atoms: C_21  and  C_23
REMARK   11  A    between atoms: C_21  and  O_24
REMARK                            x       y       z     vdW  Elec       q    Type
REMARK                         _______ _______ _______ _____ _____    ______ ____
ROOT
ATOM      1  N   UNL     1       1.569   8.007  19.892  0.00  0.00    +0.000 N 
ATOM      2  C   UNL     1       1.277   8.802  20.987  0.00  0.00    +0.000 C 
ATOM      3  O   UNL     1       1.517   8.553  22.165  0.00  0.00    +0.000 OA
ATOM      4  H   UNL     1       1.404   8.436  18.987  0.00  0.00    +0.000 HD
ENDROOT
BRANCH   2   5
ATOM      5  C   UNL     1       0.640  10.115  20.652  0.00  0.00    +0.000 A 
ATOM      6  C   UNL     1      -0.243  10.182  19.574  0.00  0.00    +0.000 A 
ATOM      7  C   UNL     1      -0.868  11.398  19.222  0.00  0.00    +0.000 A 
ATOM      8  C   UNL     1      -0.545  12.506  20.022  0.00  0.00    +0.000 A 
ATOM      9 CL   UNL     1      -1.162  14.098  19.782  0.00  0.00    +0.000 Cl
ATOM     10  C   UNL     1       0.351  12.341  21.088  0.00  0.00    +0.000 A 
ATOM     11  N   UNL     1       0.955  11.177  21.429  0.00  0.00    +0.000 NA
BRANCH   7  12
ATOM     12  C   UNL     1      -1.830  11.377  18.026  0.00  0.00    +0.000 C 
ATOM     13  C   UNL     1      -1.749  10.032  17.284  0.00  0.00    +0.000 C 
ATOM     14  C   UNL     1      -3.274  11.635  18.484  0.00  0.00    +0.000 C 
BRANCH  12  15
ATOM     15  O   UNL     1      -1.572  12.368  17.034  0.00  0.00    +0.000 OA
ATOM     16  H   UNL     1      -1.614  13.244  17.455  0.00  0.00    +0.000 HD
ENDBRANCH  12  15
ENDBRANCH   7  12
ENDBRANCH   2   5
BRANCH   1  21
ATOM     17  C   UNL     1       4.115   5.346  19.315  0.00  0.00    +0.000 A 
ATOM     18  C   UNL     1       3.550   4.293  20.053  0.00  0.00    +0.000 A 
ATOM     19  C   UNL     1       2.327   4.447  20.700  0.00  0.00    +0.000 A 
ATOM     20  C   UNL     1       1.655   5.666  20.647  0.00  0.00    +0.000 A 
ATOM     21  C   UNL     1       2.186   6.739  19.931  0.00  0.00    +0.000 A 
ATOM     22  C   UNL     1       3.389   6.558  19.235  0.00  0.00    +0.000 A 
BRANCH  17  24
ATOM     23  C   UNL     1       6.674   5.390  19.599  0.00  0.00    +0.000 C 
ATOM     24  C   UNL     1       5.486   5.235  18.635  0.00  0.00    +0.000 C 
BRANCH  24  25
ATOM     25  S   UNL     1       5.597   6.514  17.309  0.00  0.00    +0.000 S 
BRANCH  25  26
ATOM     26  C   UNL     1       6.344   5.656  16.014  0.00  0.00    +0.000 A 
ATOM     27  N   UNL     1       7.493   5.914  15.436  0.00  0.00    +0.000 NA
ATOM     28  N   UNL     1       7.646   5.018  14.396  0.00  0.00    +0.000 NA
ATOM     29  C   UNL     1       6.589   4.238  14.386  0.00  0.00    +0.000 A 
ATOM     30  N   UNL     1       5.758   4.583  15.408  0.00  0.00    +0.000 N 
ATOM     31  C   UNL     1       4.516   3.943  15.745  0.00  0.00    +0.000 C 
ENDBRANCH  25  26
ENDBRANCH  24  25
ENDBRANCH  17  24
ENDBRANCH   1  21
TORSDOF 7
ENDMDL
MODEL 4
REMARK VINA RESULT:      -8.2      4.881     10.679
REMARK  Name = 
REMARK  11 active torsions:
REMARK  status: ('A' for Active; 'I' for Inactive)
REMARK    1  A    between atoms: C_1  and  C_2
REMARK    2  A    between atoms: C_2  and  S_3
REMARK    3  A    between atoms: C_2  and  C_10
REMARK    4  A    between atoms: S_3  and  C_4
REMARK    5  A    between atoms: N_8  and  C_9
REMARK    6  A    between atoms: C_14  and  N_15
REMARK    7  A    between atoms: C_16  and  C_18
REMARK    8  A    between atoms: C_20  and  C_21
REMARK    9  A    between atoms: C_21  and  C_22
REMARK   10  A    between atoms: C_21  and  C_23
REMARK   11  A    between atoms: C_21  and  O_24
REMARK                            x       y       z     vdW  Elec       q    Type
REMARK                         _______ _______ _______ _____ _____    ______ ____
ROOT
ATOM      1  N   UNL     1       0.748   9.260  19.109  0.00  0.00    +0.000 N 
ATOM      2  C   UNL     1       1.809   9.066  18.242  0.00  0.00    +0.000 C 
ATOM      3  O   UNL     1       2.188   9.827  17.357  0.00  0.00    +0.000 OA
ATOM      4  H   UNL     1       0.664   8.574  19.854  0.00  0.00    +0.000 HD
ENDROOT
BRANCH   2   5
ATOM      5  C   UNL     1       2.576   7.800  18.468  0.00  0.00    +0.000 A 
ATOM      6  C   UNL     1       3.527   7.409  17.525  0.00  0.00    +0.000 A 
ATOM      7  C   UNL     1       4.274   6.222  17.696  0.00  0.00    +0.000 A 
ATOM      8  C   UNL     1       3.998   5.488  18.861  0.00  0.00    +0.000 A 
ATOM      9 CL   UNL     1       4.762   4.002  19.283  0.00  0.00    +0.000 Cl
ATOM     10  C   UNL     1       3.026   5.963  19.753  0.00  0.00    +0.000 A 
ATOM     11  N   UNL     1       2.305   7.098  19.593  0.00  0.00    +0.000 NA
BRANCH   7  12
ATOM     12  C   UNL     1       5.304   5.874  16.613  0.00  0.00    +0.000 C 
ATOM     13  C   UNL     1       6.733   5.931  17.180  0.00  0.00    +0.000 C 
ATOM     14  C   UNL     1       5.029   4.481  16.027  0.00  0.00    +0.000 C 
BRANCH  12  15
ATOM     15  O   UNL     1       5.311   6.755  15.491  0.00  0.00    +0.000 OA
ATOM     16  H   UNL     1       4.536   7.339  15.554  0.00  0.00    +0.000 HD
ENDBRANCH  12  15
ENDBRANCH   7  12
ENDBRANCH   2   5
BRANCH   1  21
ATOM     17  C   UNL     1      -2.338  11.288  18.598  0.00  0.00    +0.000 A 
ATOM     18  C   UNL     1      -1.953  12.491  19.212  0.00  0.00    +0.000 A 
ATOM     19  C   UNL     1      -0.679  12.644  19.752  0.00  0.00    +0.000 A 
ATOM     20  C   UNL     1       0.229  11.588  19.716  0.00  0.00    +0.000 A 
ATOM     21  C   UNL     1      -0.117  10.374  19.123  0.00  0.00    +0.000 A 
ATOM     22  C   UNL     1      -1.381  10.247  18.530  0.00  0.00    +0.000 A 
BRANCH  17  24
ATOM     23  C   UNL     1      -3.843  11.170  16.512  0.00  0.00    +0.000 C 
ATOM     24  C   UNL     1      -3.750  11.059  18.042  0.00  0.00    +0.000 C 
BRANCH  24  25
ATOM     25  S   UNL     1      -4.898  12.279  18.819  0.00  0.00    +0.000 S 
BRANCH  25  26
ATOM     26  C   UNL     1      -6.097  11.270  19.536  0.00  0.00    +0.000 A 
ATOM     27  N   UNL     1      -6.557  10.126  19.089  0.00  0.00    +0.000 NA
ATOM     28  N   UNL     1      -7.565   9.720  19.942  0.00  0.00    +0.000 NA
ATOM     29  C   UNL     1      -7.673  10.626  20.887  0.00  0.00    +0.000 A 
ATOM     30  N   UNL     1      -6.746  11.604  20.688  0.00  0.00    +0.000 N 
ATOM     31  C   UNL     1      -6.531  12.752  21.527  0.00  0.00    +0.000 C 
ENDBRANCH  25  26
ENDBRANCH  24  25
ENDBRANCH  17  24
ENDBRANCH   1  21
TORSDOF 7
ENDMDL
MODEL 5
REMARK VINA RESULT:      -8.2      4.464      9.001
REMARK  Name = 
REMARK  11 active torsions:
REMARK  status: ('A' for Active; 'I' for Inactive)
REMARK    1  A    between atoms: C_1  and  C_2
REMARK    2  A    between atoms: C_2  and  S_3
REMARK    3  A    between atoms: C_2  and  C_10
REMARK    4  A    between atoms: S_3  and  C_4
REMARK    5  A    between atoms: N_8  and  C_9
REMARK    6  A    between atoms: C_14  and  N_15
REMARK    7  A    between atoms: C_16  and  C_18
REMARK    8  A    between atoms: C_20  and  C_21
REMARK    9  A    between atoms: C_21  and  C_22
REMARK   10  A    between atoms: C_21  and  C_23
REMARK   11  A    between atoms: C_21  and  O_24
REMARK                            x       y       z     vdW  Elec       q    Type
REMARK                         _______ _______ _______ _____ _____    ______ ____
ROOT
ATOM      1  N   UNL     1       1.249   7.878  21.243  0.00  0.00    +0.000 N 
ATOM      2  C   UNL     1       1.838   7.617  20.018  0.00  0.00    +0.000 C 
ATOM      3  O   UNL     1       1.917   8.381  19.060  0.00  0.00    +0.000 OA
ATOM      4  H   UNL     1       1.389   7.166  21.953  0.00  0.00    +0.000 HD
ENDROOT
BRANCH   2   5
ATOM      5  C   UNL     1       2.471   6.266  19.905  0.00  0.00    +0.000 A 
ATOM      6  C   UNL     1       3.521   6.085  19.005  0.00  0.00    +0.000 A 
ATOM      7  C   UNL     1       4.149   4.827  18.864  0.00  0.00    +0.000 A 
ATOM      8  C   UNL     1       3.651   3.800  19.682  0.00  0.00    +0.000 A 
ATOM      9 CL   UNL     1       4.237   2.179  19.680  0.00  0.00    +0.000 Cl
ATOM     10  C   UNL     1       2.594   4.078  20.560  0.00  0.00    +0.000 A 
ATOM     11  N   UNL     1       1.987   5.281  20.698  0.00  0.00    +0.000 NA
BRANCH   7  12
ATOM     12  C   UNL     1       5.302   4.723  17.856  0.00  0.00    +0.000 C 
ATOM     13  C   UNL     1       4.871   3.920  16.616  0.00  0.00    +0.000 C 
ATOM     14  C   UNL     1       5.784   6.118  17.434  0.00  0.00    +0.000 C 
BRANCH  12  15
ATOM     15  O   UNL     1       6.465   4.059  18.346  0.00  0.00    +0.000 OA
ATOM     16  H   UNL     1       6.593   4.309  19.277  0.00  0.00    +0.000 HD
ENDBRANCH  12  15
ENDBRANCH   7  12
ENDBRANCH   2   5
BRANCH   1  21
ATOM     17  C   UNL     1      -0.043  11.367  20.995  0.00  0.00    +0.000 A 
ATOM     18  C   UNL     1      -0.751  11.459  22.204  0.00  0.00    +0.000 A 
ATOM     19  C   UNL     1      -0.770  10.398  23.106  0.00  0.00    +0.000 A 
ATOM     20  C   UNL     1      -0.105   9.212  22.807  0.00  0.00    +0.000 A 
ATOM     21  C   UNL     1       0.604   9.077  21.614  0.00  0.00    +0.000 A 
ATOM     22  C   UNL     1       0.666  10.169  20.736  0.00  0.00    +0.000 A 
BRANCH  17  24
ATOM     23  C   UNL     1      -1.183  12.383  18.922  0.00  0.00    +0.000 C 
ATOM     24  C   UNL     1      -0.044  12.490  19.949  0.00  0.00    +0.000 C 
BRANCH  24  25
ATOM     25  S   UNL     1       1.580  12.486  19.072  0.00  0.00    +0.000 S 
BRANCH  25  26
ATOM     26  C   UNL     1       2.583  13.412  20.123  0.00  0.00    +0.000 A 
ATOM     27  N   UNL     1       2.592  13.409  21.435  0.00  0.00    +0.000 NA
ATOM     28  N   UNL     1       3.497  14.368  21.847  0.00  0.00    +0.000 NA
ATOM     29  C   UNL     1       4.017  14.911  20.770  0.00  0.00    +0.000 A 
ATOM     30  N   UNL     1       3.493  14.318  19.662  0.00  0.00    +0.000 N 
ATOM     31  C   UNL     1       3.834  14.617  18.298  0.00  0.00    +0.000 C 
ENDBRANCH  25  26
ENDBRANCH  24  25
ENDBRANCH  17  24
ENDBRANCH   1  21
TORSDOF 7
ENDMDL
MODEL 6
REMARK VINA RESULT:      -8.2      1.993      2.903
REMARK  Name = 
REMARK  11 active torsions:
REMARK  status: ('A' for Active; 'I' for Inactive)
REMARK    1  A    between atoms: C_1  and  C_2
REMARK    2  A    between atoms: C_2  and  S_3
REMARK    3  A    between atoms: C_2  and  C_10
REMARK    4  A    between atoms: S_3  and  C_4
REMARK    5  A    between atoms: N_8  and  C_9
REMARK    6  A    between atoms: C_14  and  N_15
REMARK    7  A    between atoms: C_16  and  C_18
REMARK    8  A    between atoms: C_20  and  C_21
REMARK    9  A    between atoms: C_21  and  C_22
REMARK   10  A    between atoms: C_21  and  C_23
REMARK   11  A    between atoms: C_21  and  O_24
REMARK                            x       y       z     vdW  Elec       q    Type
REMARK                         _______ _______ _______ _____ _____    ______ ____
ROOT
ATOM      1  N   UNL     1       2.023   6.375  19.269  0.00  0.00    +0.000 N 
ATOM      2  C   UNL     1       2.091   7.713  18.918  0.00  0.00    +0.000 C 
ATOM      3  O   UNL     1       2.629   8.188  17.922  0.00  0.00    +0.000 OA
ATOM      4  H   UNL     1       1.431   6.165  20.067  0.00  0.00    +0.000 HD
ENDROOT
BRANCH   2   5
ATOM      5  C   UNL     1       1.385   8.641  19.857  0.00  0.00    +0.000 A 
ATOM      6  C   UNL     1       0.829   9.817  19.353  0.00  0.00    +0.000 A 
ATOM      7  C   UNL     1       0.153  10.722  20.201  0.00  0.00    +0.000 A 
ATOM      8  C   UNL     1       0.082  10.355  21.555  0.00  0.00    +0.000 A 
ATOM      9 CL   UNL     1      -0.670  11.300  22.785  0.00  0.00    +0.000 Cl
ATOM     10  C   UNL     1       0.669   9.151  21.968  0.00  0.00    +0.000 A 
ATOM     11  N   UNL     1       1.319   8.279  21.160  0.00  0.00    +0.000 NA
BRANCH   7  12
ATOM     12  C   UNL     1      -0.434  11.986  19.559  0.00  0.00    +0.000 C 
ATOM     13  C   UNL     1      -1.962  12.028  19.735  0.00  0.00    +0.000 C 
ATOM     14  C   UNL     1       0.196  13.249  20.166  0.00  0.00    +0.000 C 
BRANCH  12  15
ATOM     15  O   UNL     1      -0.216  12.099  18.155  0.00  0.00    +0.000 OA
ATOM     16  H   UNL     1       0.126  11.250  17.827  0.00  0.00    +0.000 HD
ENDBRANCH  12  15
ENDBRANCH   7  12
ENDBRANCH   2   5
BRANCH   1  21
ATOM     17  C   UNL     1       4.270   4.539  16.928  0.00  0.00    +0.000 A 
ATOM     18  C   UNL     1       3.849   3.219  17.160  0.00  0.00    +0.000 A 
ATOM     19  C   UNL     1       2.812   2.943  18.047  0.00  0.00    +0.000 A 
ATOM     20  C   UNL     1       2.192   3.977  18.743  0.00  0.00    +0.000 A 
ATOM     21  C   UNL     1       2.585   5.301  18.548  0.00  0.00    +0.000 A 
ATOM     22  C   UNL     1       3.591   5.577  17.611  0.00  0.00    +0.000 A 
BRANCH  17  24
ATOM     23  C   UNL     1       5.477   4.059  14.705  0.00  0.00    +0.000 C 
ATOM     24  C   UNL     1       5.446   4.881  16.004  0.00  0.00    +0.000 C 
BRANCH  24  25
ATOM     25  S   UNL     1       7.023   4.628  16.930  0.00  0.00    +0.000 S 
BRANCH  25  26
ATOM     26  C   UNL     1       7.447   6.230  17.404  0.00  0.00    +0.000 A 
ATOM     27  N   UNL     1       7.420   7.319  16.673  0.00  0.00    +0.000 NA
ATOM     28  N   UNL     1       7.923   8.350  17.443  0.00  0.00    +0.000 NA
ATOM     29  C   UNL     1       8.225   7.854  18.620  0.00  0.00    +0.000 A 
ATOM     30  N   UNL     1       7.912   6.529  18.651  0.00  0.00    +0.000 N 
ATOM     31  C   UNL     1       8.069   5.646  19.775  0.00  0.00    +0.000 C 
ENDBRANCH  25  26
ENDBRANCH  24  25
ENDBRANCH  17  24
ENDBRANCH   1  21
TORSDOF 7
ENDMDL
MODEL 7
REMARK VINA RESULT:      -8.1      4.593      9.578
REMARK  Name = 
REMARK  11 active torsions:
REMARK  status: ('A' for Active; 'I' for Inactive)
REMARK    1  A    between atoms: C_1  and  C_2
REMARK    2  A    between atoms: C_2  and  S_3
REMARK    3  A    between atoms: C_2  and  C_10
REMARK    4  A    between atoms: S_3  and  C_4
REMARK    5  A    between atoms: N_8  and  C_9
REMARK    6  A    between atoms: C_14  and  N_15
REMARK    7  A    between atoms: C_16  and  C_18
REMARK    8  A    between atoms: C_20  and  C_21
REMARK    9  A    between atoms: C_21  and  C_22
REMARK   10  A    between atoms: C_21  and  C_23
REMARK   11  A    between atoms: C_21  and  O_24
REMARK                            x       y       z     vdW  Elec       q    Type
REMARK                         _______ _______ _______ _____ _____    ______ ____
ROOT
ATOM      1  N   UNL     1       1.462   8.751  20.057  0.00  0.00    +0.000 N 
ATOM      2  C   UNL     1       1.635   7.409  20.347  0.00  0.00    +0.000 C 
ATOM      3  O   UNL     1       1.111   6.777  21.260  0.00  0.00    +0.000 OA
ATOM      4  H   UNL     1       1.884   9.066  19.189  0.00  0.00    +0.000 HD
ENDROOT
BRANCH   2   5
ATOM      5  C   UNL     1       2.531   6.676  19.398  0.00  0.00    +0.000 A 
ATOM      6  C   UNL     1       2.807   5.329  19.633  0.00  0.00    +0.000 A 
ATOM      7  C   UNL     1       3.647   4.598  18.765  0.00  0.00    +0.000 A 
ATOM      8  C   UNL     1       4.167   5.310  17.672  0.00  0.00    +0.000 A 
ATOM      9 CL   UNL     1       5.227   4.645  16.487  0.00  0.00    +0.000 Cl
ATOM     10  C   UNL     1       3.830   6.662  17.515  0.00  0.00    +0.000 A 
ATOM     11  N   UNL     1       3.027   7.369  18.346  0.00  0.00    +0.000 NA
BRANCH   7  12
ATOM     12  C   UNL     1       3.889   3.118  19.096  0.00  0.00    +0.000 C 
ATOM     13  C   UNL     1       3.202   2.737  20.419  0.00  0.00    +0.000 C 
ATOM     14  C   UNL     1       3.379   2.216  17.963  0.00  0.00    +0.000 C 
BRANCH  12  15
ATOM     15  O   UNL     1       5.258   2.761  19.269  0.00  0.00    +0.000 OA
ATOM     16  H   UNL     1       5.498   2.902  20.200  0.00  0.00    +0.000 HD
ENDBRANCH  12  15
ENDBRANCH   7  12
ENDBRANCH   2   5
BRANCH   1  21
ATOM     17  C   UNL     1      -0.811  11.629  20.730  0.00  0.00    +0.000 A 
ATOM     18  C   UNL     1      -1.061  11.437  22.099  0.00  0.00    +0.000 A 
ATOM     19  C   UNL     1      -0.457  10.395  22.798  0.00  0.00    +0.000 A 
ATOM     20  C   UNL     1       0.388   9.506  22.139  0.00  0.00    +0.000 A 
ATOM     21  C   UNL     1       0.656   9.657  20.779  0.00  0.00    +0.000 A 
ATOM     22  C   UNL     1       0.090  10.741  20.094  0.00  0.00    +0.000 A 
BRANCH  17  24
ATOM     23  C   UNL     1      -1.457  14.116  20.571  0.00  0.00    +0.000 C 
ATOM     24  C   UNL     1      -1.500  12.728  19.911  0.00  0.00    +0.000 C 
BRANCH  24  25
ATOM     25  S   UNL     1      -3.255  12.238  19.618  0.00  0.00    +0.000 S 
BRANCH  25  26
ATOM     26  C   UNL     1      -3.214  11.617  18.011  0.00  0.00    +0.000 A 
ATOM     27  N   UNL     1      -2.162  11.412  17.255  0.00  0.00    +0.000 NA
ATOM     28  N   UNL     1      -2.613  10.987  16.020  0.00  0.00    +0.000 NA
ATOM     29  C   UNL     1      -3.924  10.936  16.074  0.00  0.00    +0.000 A 
ATOM     30  N   UNL     1      -4.344  11.294  17.319  0.00  0.00    +0.000 N 
ATOM     31  C   UNL     1      -5.707  11.332  17.776  0.00  0.00    +0.000 C 
ENDBRANCH  25  26
ENDBRANCH  24  25
ENDBRANCH  17  24
ENDBRANCH   1  21
TORSDOF 7
ENDMDL
MODEL 8
REMARK VINA RESULT:      -8.1      4.751     10.254
REMARK  Name = 
REMARK  11 active torsions:
REMARK  status: ('A' for Active; 'I' for Inactive)
REMARK    1  A    between atoms: C_1  and  C_2
REMARK    2  A    between atoms: C_2  and  S_3
REMARK    3  A    between atoms: C_2  and  C_10
REMARK    4  A    between atoms: S_3  and  C_4
REMARK    5  A    between atoms: N_8  and  C_9
REMARK    6  A    between atoms: C_14  and  N_15
REMARK    7  A    between atoms: C_16  and  C_18
REMARK    8  A    between atoms: C_20  and  C_21
REMARK    9  A    between atoms: C_21  and  C_22
REMARK   10  A    between atoms: C_21  and  C_23
REMARK   11  A    between atoms: C_21  and  O_24
REMARK                            x       y       z     vdW  Elec       q    Type
REMARK                         _______ _______ _______ _____ _____    ______ ____
ROOT
ATOM      1  N   UNL     1       1.673   8.571  18.913  0.00  0.00    +0.000 N 
ATOM      2  C   UNL     1       1.806   7.847  20.085  0.00  0.00    +0.000 C 
ATOM      3  O   UNL     1       1.488   8.207  21.215  0.00  0.00    +0.000 OA
ATOM      4  H   UNL     1       1.879   8.059  18.060  0.00  0.00    +0.000 HD
ENDROOT
BRANCH   2   5
ATOM      5  C   UNL     1       2.363   6.469  19.908  0.00  0.00    +0.000 A 
ATOM      6  C   UNL     1       3.417   6.276  19.013  0.00  0.00    +0.000 A 
ATOM      7  C   UNL     1       3.974   4.994  18.814  0.00  0.00    +0.000 A 
ATOM      8  C   UNL     1       3.405   3.955  19.568  0.00  0.00    +0.000 A 
ATOM      9 CL   UNL     1       3.897   2.305  19.486  0.00  0.00    +0.000 Cl
ATOM     10  C   UNL     1       2.350   4.246  20.445  0.00  0.00    +0.000 A 
ATOM     11  N   UNL     1       1.810   5.473  20.639  0.00  0.00    +0.000 NA
BRANCH   7  12
ATOM     12  C   UNL     1       5.135   4.877  17.817  0.00  0.00    +0.000 C 
ATOM     13  C   UNL     1       4.696   4.115  16.555  0.00  0.00    +0.000 C 
ATOM     14  C   UNL     1       5.665   6.266  17.432  0.00  0.00    +0.000 C 
BRANCH  12  15
ATOM     15  O   UNL     1       6.272   4.168  18.305  0.00  0.00    +0.000 OA
ATOM     16  H   UNL     1       6.297   4.256  19.273  0.00  0.00    +0.000 HD
ENDBRANCH  12  15
ENDBRANCH   7  12
ENDBRANCH   2   5
BRANCH   1  21
ATOM     17  C   UNL     1      -0.788  11.371  18.986  0.00  0.00    +0.000 A 
ATOM     18  C   UNL     1       0.062  12.459  18.727  0.00  0.00    +0.000 A 
ATOM     19  C   UNL     1       1.421  12.267  18.493  0.00  0.00    +0.000 A 
ATOM     20  C   UNL     1       1.966  10.986  18.541  0.00  0.00    +0.000 A 
ATOM     21  C   UNL     1       1.158   9.880  18.802  0.00  0.00    +0.000 A 
ATOM     22  C   UNL     1      -0.219  10.075  18.981  0.00  0.00    +0.000 A 
BRANCH  17  24
ATOM     23  C   UNL     1      -3.192  11.476  18.071  0.00  0.00    +0.000 C 
ATOM     24  C   UNL     1      -2.278  11.545  19.306  0.00  0.00    +0.000 C 
BRANCH  24  25
ATOM     25  S   UNL     1      -2.517  13.164  20.160  0.00  0.00    +0.000 S 
BRANCH  25  26
ATOM     26  C   UNL     1      -3.200  12.699  21.672  0.00  0.00    +0.000 A 
ATOM     27  N   UNL     1      -4.469  12.655  22.002  0.00  0.00    +0.000 NA
ATOM     28  N   UNL     1      -4.540  12.308  23.337  0.00  0.00    +0.000 NA
ATOM     29  C   UNL     1      -3.311  12.141  23.770  0.00  0.00    +0.000 A 
ATOM     30  N   UNL     1      -2.436  12.346  22.746  0.00  0.00    +0.000 N 
ATOM     31  C   UNL     1      -1.005  12.226  22.817  0.00  0.00    +0.000 C 
ENDBRANCH  25  26
ENDBRANCH  24  25
ENDBRANCH  17  24
ENDBRANCH   1  21
TORSDOF 7
ENDMDL
MODEL 9
REMARK VINA RESULT:      -8.1      4.395      9.368
REMARK  Name = 
REMARK  11 active torsions:
REMARK  status: ('A' for Active; 'I' for Inactive)
REMARK    1  A    between atoms: C_1  and  C_2
REMARK    2  A    between atoms: C_2  and  S_3
REMARK    3  A    between atoms: C_2  and  C_10
REMARK    4  A    between atoms: S_3  and  C_4
REMARK    5  A    between atoms: N_8  and  C_9
REMARK    6  A    between atoms: C_14  and  N_15
REMARK    7  A    between atoms: C_16  and  C_18
REMARK    8  A    between atoms: C_20  and  C_21
REMARK    9  A    between atoms: C_21  and  C_22
REMARK   10  A    between atoms: C_21  and  C_23
REMARK   11  A    between atoms: C_21  and  O_24
REMARK                            x       y       z     vdW  Elec       q    Type
REMARK                         _______ _______ _______ _____ _____    ______ ____
ROOT
ATOM      1  N   UNL     1       1.286   8.337  20.374  0.00  0.00    +0.000 N 
ATOM      2  C   UNL     1       1.826   8.463  19.106  0.00  0.00    +0.000 C 
ATOM      3  O   UNL     1       1.787   9.454  18.382  0.00  0.00    +0.000 OA
ATOM      4  H   UNL     1       1.525   7.481  20.865  0.00  0.00    +0.000 HD
ENDROOT
BRANCH   2   5
ATOM      5  C   UNL     1       2.563   7.255  18.619  0.00  0.00    +0.000 A 
ATOM      6  C   UNL     1       2.213   6.001  19.121  0.00  0.00    +0.000 A 
ATOM      7  C   UNL     1       2.881   4.834  18.690  0.00  0.00    +0.000 A 
ATOM      8  C   UNL     1       3.896   5.026  17.739  0.00  0.00    +0.000 A 
ATOM      9 CL   UNL     1       4.864   3.763  17.076  0.00  0.00    +0.000 Cl
ATOM     10  C   UNL     1       4.176   6.324  17.290  0.00  0.00    +0.000 A 
ATOM     11  N   UNL     1       3.540   7.448  17.701  0.00  0.00    +0.000 NA
BRANCH   7  12
ATOM     12  C   UNL     1       2.423   3.497  19.289  0.00  0.00    +0.000 C 
ATOM     13  C   UNL     1       1.374   3.724  20.392  0.00  0.00    +0.000 C 
ATOM     14  C   UNL     1       1.845   2.581  18.199  0.00  0.00    +0.000 C 
BRANCH  12  15
ATOM     15  O   UNL     1       3.457   2.734  19.907  0.00  0.00    +0.000 OA
ATOM     16  H   UNL     1       3.247   1.790  19.803  0.00  0.00    +0.000 HD
ENDBRANCH  12  15
ENDBRANCH   7  12
ENDBRANCH   2   5
BRANCH   1  21
ATOM     17  C   UNL     1      -0.665  11.457  20.974  0.00  0.00    +0.000 A 
ATOM     18  C   UNL     1      -0.983  11.297  22.332  0.00  0.00    +0.000 A 
ATOM     19  C   UNL     1      -0.528  10.194  23.050  0.00  0.00    +0.000 A 
ATOM     20  C   UNL     1       0.233   9.213  22.419  0.00  0.00    +0.000 A 
ATOM     21  C   UNL     1       0.564   9.330  21.069  0.00  0.00    +0.000 A 
ATOM     22  C   UNL     1       0.150  10.471  20.368  0.00  0.00    +0.000 A 
BRANCH  17  24
ATOM     23  C   UNL     1      -0.959  14.007  20.769  0.00  0.00    +0.000 C 
ATOM     24  C   UNL     1      -1.195  12.627  20.134  0.00  0.00    +0.000 C 
BRANCH  24  25
ATOM     25  S   UNL     1      -3.002  12.381  19.847  0.00  0.00    +0.000 S 
BRANCH  25  26
ATOM     26  C   UNL     1      -3.047  11.713  18.258  0.00  0.00    +0.000 A 
ATOM     27  N   UNL     1      -2.039  11.280  17.539  0.00  0.00    +0.000 NA
ATOM     28  N   UNL     1      -2.537  10.913  16.304  0.00  0.00    +0.000 NA
ATOM     29  C   UNL     1      -3.833  11.124  16.320  0.00  0.00    +0.000 A 
ATOM     30  N   UNL     1      -4.202  11.597  17.542  0.00  0.00    +0.000 N 
ATOM     31  C   UNL     1      -5.540  11.919  17.959  0.00  0.00    +0.000 C 
ENDBRANCH  25  26
ENDBRANCH  24  25
ENDBRANCH  17  24
ENDBRANCH   1  21
TORSDOF 7
ENDMDL
