MODEL 1
REMARK VINA RESULT:      -9.2      0.000      0.000
REMARK  Name = 
REMARK  8 active torsions:
REMARK  status: ('A' for Active; 'I' for Inactive)
REMARK    1  A    between atoms: C_1  and  N_2
REMARK    2  A    between atoms: C_6  and  C_7
REMARK    3  A    between atoms: C_7  and  C_8
REMARK    4  A    between atoms: C_8  and  C_9
REMARK    5  A    between atoms: C_8  and  C_10
REMARK    6  A    between atoms: C_8  and  C_11
REMARK    7  A    between atoms: C_15  and  N_16
REMARK    8  A    between atoms: C_23  and  C_24
REMARK                            x       y       z     vdW  Elec       q    Type
REMARK                         _______ _______ _______ _____ _____    ______ ____
ROOT
ATOM      1  C   UNL     1       5.358   5.452  18.873  0.00  0.00    +0.000 A 
ATOM      2  C   UNL     1       4.883   4.190  19.267  0.00  0.00    +0.000 A 
ATOM      3  C   UNL     1       3.566   4.012  19.713  0.00  0.00    +0.000 A 
ATOM      4  C   UNL     1       2.679   5.090  19.766  0.00  0.00    +0.000 A 
ATOM      5  C   UNL     1       3.115   6.358  19.398  0.00  0.00    +0.000 A 
ATOM      6  C   UNL     1       4.460   6.513  18.985  0.00  0.00    +0.000 A 
ENDROOT
BRANCH   5   7
ATOM      7  N   UNL     1       2.276   7.501  19.385  0.00  0.00    +0.000 N 
ATOM      8  C   UNL     1       1.547   7.844  20.584  0.00  0.00    +0.000 C 
ATOM      9  C   UNL     1       0.885   9.126  20.258  0.00  0.00    +0.000 A 
ATOM     10  C   UNL     1       1.180   9.481  18.947  0.00  0.00    +0.000 A 
ATOM     11  C   UNL     1       0.677  10.646  18.411  0.00  0.00    +0.000 A 
ATOM     12  C   UNL     1      -0.123  11.452  19.226  0.00  0.00    +0.000 A 
ATOM     13  C   UNL     1      -0.409  11.088  20.559  0.00  0.00    +0.000 A 
ATOM     14  C   UNL     1       0.102   9.904  21.103  0.00  0.00    +0.000 A 
ATOM     15  C   UNL     1       2.072   8.444  18.371  0.00  0.00    +0.000 C 
ATOM     16  O   UNL     1       2.516   8.506  17.242  0.00  0.00    +0.000 OA
BRANCH  14  17
ATOM     17  C   UNL     1      -0.169   9.508  22.534  0.00  0.00    +0.000 C 
ATOM     18  F   UNL     1      -0.874   8.344  22.661  0.00  0.00    +0.000 F 
ATOM     19  F   UNL     1       0.972   9.310  23.249  0.00  0.00    +0.000 F 
ATOM     20  F   UNL     1      -0.891  10.439  23.213  0.00  0.00    +0.000 F 
ENDBRANCH  14  17
ENDBRANCH   5   7
BRANCH   1  21
ATOM     21  C   UNL     1       6.805   5.662  18.341  0.00  0.00    +0.000 C 
ATOM     22  C   UNL     1       7.711   5.737  19.592  0.00  0.00    +0.000 C 
ATOM     23  C   UNL     1       6.754   6.998  17.564  0.00  0.00    +0.000 C 
BRANCH  21  24
ATOM     24  C   UNL     1       7.362   4.507  17.408  0.00  0.00    +0.000 C 
BRANCH  24  30
ATOM     25  C   UNL     1       4.649   3.543  15.966  0.00  0.00    +0.000 C 
ATOM     26  N   UNL     1       5.803   4.155  15.371  0.00  0.00    +0.000 N 
ATOM     27  C   UNL     1       5.908   4.439  14.040  0.00  0.00    +0.000 A 
ATOM     28  N   UNL     1       7.039   5.056  13.808  0.00  0.00    +0.000 NA
ATOM     29  N   UNL     1       7.683   5.188  15.008  0.00  0.00    +0.000 NA
ATOM     30  C   UNL     1       6.967   4.604  15.952  0.00  0.00    +0.000 A 
ENDBRANCH  24  30
ENDBRANCH  21  24
ENDBRANCH   1  21
TORSDOF 5
ENDMDL
MODEL 2
REMARK VINA RESULT:      -9.1      1.100      1.380
REMARK  Name = 
REMARK  8 active torsions:
REMARK  status: ('A' for Active; 'I' for Inactive)
REMARK    1  A    between atoms: C_1  and  N_2
REMARK    2  A    between atoms: C_6  and  C_7
REMARK    3  A    between atoms: C_7  and  C_8
REMARK    4  A    between atoms: C_8  and  C_9
REMARK    5  A    between atoms: C_8  and  C_10
REMARK    6  A    between atoms: C_8  and  C_11
REMARK    7  A    between atoms: C_15  and  N_16
REMARK    8  A    between atoms: C_23  and  C_24
REMARK                            x       y       z     vdW  Elec       q    Type
REMARK                         _______ _______ _______ _____ _____    ______ ____
ROOT
ATOM      1  C   UNL     1       4.465   5.851  17.688  0.00  0.00    +0.000 A 
ATOM      2  C   UNL     1       4.129   4.627  18.291  0.00  0.00    +0.000 A 
ATOM      3  C   UNL     1       3.061   4.528  19.193  0.00  0.00    +0.000 A 
ATOM      4  C   UNL     1       2.287   5.648  19.510  0.00  0.00    +0.000 A 
ATOM      5  C   UNL     1       2.598   6.880  18.945  0.00  0.00    +0.000 A 
ATOM      6  C   UNL     1       3.703   6.956  18.064  0.00  0.00    +0.000 A 
ENDROOT
BRANCH   5   7
ATOM      7  N   UNL     1       1.848   8.059  19.180  0.00  0.00    +0.000 N 
ATOM      8  C   UNL     1       1.192   8.227  20.456  0.00  0.00    +0.000 C 
ATOM      9  C   UNL     1       0.617   9.589  20.399  0.00  0.00    +0.000 A 
ATOM     10  C   UNL     1       0.889  10.156  19.160  0.00  0.00    +0.000 A 
ATOM     11  C   UNL     1       0.455  11.430  18.868  0.00  0.00    +0.000 A 
ATOM     12  C   UNL     1      -0.251  12.126  19.854  0.00  0.00    +0.000 A 
ATOM     13  C   UNL     1      -0.513  11.545  21.112  0.00  0.00    +0.000 A 
ATOM     14  C   UNL     1      -0.072  10.249  21.409  0.00  0.00    +0.000 A 
ATOM     15  C   UNL     1       1.678   9.184  18.363  0.00  0.00    +0.000 C 
ATOM     16  O   UNL     1       2.082   9.420  17.242  0.00  0.00    +0.000 OA
BRANCH  14  17
ATOM     17  C   UNL     1      -0.319   9.618  22.758  0.00  0.00    +0.000 C 
ATOM     18  F   UNL     1      -0.922   8.393  22.692  0.00  0.00    +0.000 F 
ATOM     19  F   UNL     1       0.829   9.410  23.457  0.00  0.00    +0.000 F 
ATOM     20  F   UNL     1      -1.123  10.371  23.555  0.00  0.00    +0.000 F 
ENDBRANCH  14  17
ENDBRANCH   5   7
BRANCH   1  21
ATOM     21  C   UNL     1       5.624   5.972  16.656  0.00  0.00    +0.000 C 
ATOM     22  C   UNL     1       6.848   6.484  17.450  0.00  0.00    +0.000 C 
ATOM     23  C   UNL     1       5.122   6.998  15.614  0.00  0.00    +0.000 C 
BRANCH  21  24
ATOM     24  C   UNL     1       6.041   4.622  15.937  0.00  0.00    +0.000 C 
BRANCH  24  30
ATOM     25  C   UNL     1       5.355   3.427  13.028  0.00  0.00    +0.000 C 
ATOM     26  N   UNL     1       6.477   4.234  13.415  0.00  0.00    +0.000 N 
ATOM     27  C   UNL     1       7.453   4.638  12.552  0.00  0.00    +0.000 A 
ATOM     28  N   UNL     1       8.299   5.418  13.176  0.00  0.00    +0.000 NA
ATOM     29  N   UNL     1       7.866   5.535  14.468  0.00  0.00    +0.000 NA
ATOM     30  C   UNL     1       6.792   4.785  14.637  0.00  0.00    +0.000 A 
ENDBRANCH  24  30
ENDBRANCH  21  24
ENDBRANCH   1  21
TORSDOF 5
ENDMDL
MODEL 3
REMARK VINA RESULT:      -9.0      1.473      2.575
REMARK  Name = 
REMARK  8 active torsions:
REMARK  status: ('A' for Active; 'I' for Inactive)
REMARK    1  A    between atoms: C_1  and  N_2
REMARK    2  A    between atoms: C_6  and  C_7
REMARK    3  A    between atoms: C_7  and  C_8
REMARK    4  A    between atoms: C_8  and  C_9
REMARK    5  A    between atoms: C_8  and  C_10
REMARK    6  A    between atoms: C_8  and  C_11
REMARK    7  A    between atoms: C_15  and  N_16
REMARK    8  A    between atoms: C_23  and  C_24
REMARK                            x       y       z     vdW  Elec       q    Type
REMARK                         _______ _______ _______ _____ _____    ______ ____
ROOT
ATOM      1  C   UNL     1       4.415   5.255  17.801  0.00  0.00    +0.000 A 
ATOM      2  C   UNL     1       4.289   4.208  18.730  0.00  0.00    +0.000 A 
ATOM      3  C   UNL     1       3.452   4.323  19.849  0.00  0.00    +0.000 A 
ATOM      4  C   UNL     1       2.705   5.483  20.066  0.00  0.00    +0.000 A 
ATOM      5  C   UNL     1       2.814   6.547  19.177  0.00  0.00    +0.000 A 
ATOM      6  C   UNL     1       3.693   6.415  18.076  0.00  0.00    +0.000 A 
ENDROOT
BRANCH   5   7
ATOM      7  N   UNL     1       2.068   7.747  19.297  0.00  0.00    +0.000 N 
ATOM      8  C   UNL     1       1.389   8.024  20.542  0.00  0.00    +0.000 C 
ATOM      9  C   UNL     1       0.826   9.380  20.360  0.00  0.00    +0.000 A 
ATOM     10  C   UNL     1       1.125   9.840  19.083  0.00  0.00    +0.000 A 
ATOM     11  C   UNL     1       0.707  11.087  18.676  0.00  0.00    +0.000 A 
ATOM     12  C   UNL     1      -0.013  11.868  19.586  0.00  0.00    +0.000 A 
ATOM     13  C   UNL     1      -0.303  11.395  20.884  0.00  0.00    +0.000 A 
ATOM     14  C   UNL     1       0.122  10.127  21.297  0.00  0.00    +0.000 A 
ATOM     15  C   UNL     1       1.922   8.800  18.386  0.00  0.00    +0.000 C 
ATOM     16  O   UNL     1       2.349   8.939  17.257  0.00  0.00    +0.000 OA
BRANCH  14  17
ATOM     17  C   UNL     1      -0.155   9.612  22.689  0.00  0.00    +0.000 C 
ATOM     18  F   UNL     1      -0.846  10.491  23.474  0.00  0.00    +0.000 F 
ATOM     19  F   UNL     1      -0.902   8.475  22.688  0.00  0.00    +0.000 F 
ATOM     20  F   UNL     1       0.979   9.325  23.382  0.00  0.00    +0.000 F 
ENDBRANCH  14  17
ENDBRANCH   5   7
BRANCH   1  21
ATOM     21  C   UNL     1       5.311   5.132  16.535  0.00  0.00    +0.000 C 
ATOM     22  C   UNL     1       5.019   6.390  15.684  0.00  0.00    +0.000 C 
ATOM     23  C   UNL     1       4.847   3.828  15.845  0.00  0.00    +0.000 C 
BRANCH  21  24
ATOM     24  C   UNL     1       6.872   5.081  16.806  0.00  0.00    +0.000 C 
BRANCH  24  30
ATOM     25  C   UNL     1       7.957   5.524  19.804  0.00  0.00    +0.000 C 
ATOM     26  N   UNL     1       7.892   6.477  18.733  0.00  0.00    +0.000 N 
ATOM     27  C   UNL     1       8.317   7.769  18.841  0.00  0.00    +0.000 A 
ATOM     28  N   UNL     1       8.199   8.371  17.686  0.00  0.00    +0.000 NA
ATOM     29  N   UNL     1       7.697   7.457  16.801  0.00  0.00    +0.000 NA
ATOM     30  C   UNL     1       7.462   6.322  17.435  0.00  0.00    +0.000 A 
ENDBRANCH  24  30
ENDBRANCH  21  24
ENDBRANCH   1  21
TORSDOF 5
ENDMDL
MODEL 4
REMARK VINA RESULT:      -8.9      2.577      3.766
REMARK  Name = 
REMARK  8 active torsions:
REMARK  status: ('A' for Active; 'I' for Inactive)
REMARK    1  A    between atoms: C_1  and  N_2
REMARK    2  A    between atoms: C_6  and  C_7
REMARK    3  A    between atoms: C_7  and  C_8
REMARK    4  A    between atoms: C_8  and  C_9
REMARK    5  A    between atoms: C_8  and  C_10
REMARK    6  A    between atoms: C_8  and  C_11
REMARK    7  A    between atoms: C_15  and  N_16
REMARK    8  A    between atoms: C_23  and  C_24
REMARK                            x       y       z     vdW  Elec       q    Type
REMARK                         _______ _______ _______ _____ _____    ______ ____
ROOT
ATOM      1  C   UNL     1       4.671   4.696  16.590  0.00  0.00    +0.000 A 
ATOM      2  C   UNL     1       4.358   3.337  16.761  0.00  0.00    +0.000 A 
ATOM      3  C   UNL     1       3.456   2.916  17.747  0.00  0.00    +0.000 A 
ATOM      4  C   UNL     1       2.829   3.841  18.585  0.00  0.00    +0.000 A 
ATOM      5  C   UNL     1       3.124   5.194  18.457  0.00  0.00    +0.000 A 
ATOM      6  C   UNL     1       4.065   5.586  17.475  0.00  0.00    +0.000 A 
ENDROOT
BRANCH   5   7
ATOM      7  N   UNL     1       2.511   6.206  19.237  0.00  0.00    +0.000 N 
ATOM      8  C   UNL     1       2.304   7.510  18.651  0.00  0.00    +0.000 C 
ATOM      9  C   UNL     1       1.551   8.261  19.680  0.00  0.00    +0.000 A 
ATOM     10  C   UNL     1       1.369   7.459  20.800  0.00  0.00    +0.000 A 
ATOM     11  C   UNL     1       0.689   7.940  21.897  0.00  0.00    +0.000 A 
ATOM     12  C   UNL     1       0.187   9.243  21.839  0.00  0.00    +0.000 A 
ATOM     13  C   UNL     1       0.368  10.046  20.693  0.00  0.00    +0.000 A 
ATOM     14  C   UNL     1       1.060   9.557  19.578  0.00  0.00    +0.000 A 
ATOM     15  C   UNL     1       1.983   6.135  20.532  0.00  0.00    +0.000 C 
ATOM     16  O   UNL     1       1.954   5.219  21.329  0.00  0.00    +0.000 OA
BRANCH  14  17
ATOM     17  C   UNL     1       1.243  10.389  18.332  0.00  0.00    +0.000 C 
ATOM     18  F   UNL     1       0.781   9.789  17.195  0.00  0.00    +0.000 F 
ATOM     19  F   UNL     1       0.587  11.579  18.395  0.00  0.00    +0.000 F 
ATOM     20  F   UNL     1       2.546  10.683  18.079  0.00  0.00    +0.000 F 
ENDBRANCH  14  17
ENDBRANCH   5   7
BRANCH   1  21
ATOM     21  C   UNL     1       5.642   5.187  15.477  0.00  0.00    +0.000 C 
ATOM     22  C   UNL     1       5.248   6.654  15.185  0.00  0.00    +0.000 C 
ATOM     23  C   UNL     1       5.374   4.251  14.275  0.00  0.00    +0.000 C 
BRANCH  21  24
ATOM     24  C   UNL     1       7.181   5.163  15.856  0.00  0.00    +0.000 C 
BRANCH  24  30
ATOM     25  C   UNL     1       7.569   7.967  17.388  0.00  0.00    +0.000 C 
ATOM     26  N   UNL     1       7.677   6.640  17.923  0.00  0.00    +0.000 N 
ATOM     27  C   UNL     1       7.963   6.371  19.230  0.00  0.00    +0.000 A 
ATOM     28  N   UNL     1       7.924   5.079  19.434  0.00  0.00    +0.000 NA
ATOM     29  N   UNL     1       7.598   4.490  18.243  0.00  0.00    +0.000 NA
ATOM     30  C   UNL     1       7.495   5.421  17.311  0.00  0.00    +0.000 A 
ENDBRANCH  24  30
ENDBRANCH  21  24
ENDBRANCH   1  21
TORSDOF 5
ENDMDL
MODEL 5
REMARK VINA RESULT:      -8.8      1.587      2.709
REMARK  Name = 
REMARK  8 active torsions:
REMARK  status: ('A' for Active; 'I' for Inactive)
REMARK    1  A    between atoms: C_1  and  N_2
REMARK    2  A    between atoms: C_6  and  C_7
REMARK    3  A    between atoms: C_7  and  C_8
REMARK    4  A    between atoms: C_8  and  C_9
REMARK    5  A    between atoms: C_8  and  C_10
REMARK    6  A    between atoms: C_8  and  C_11
REMARK    7  A    between atoms: C_15  and  N_16
REMARK    8  A    between atoms: C_23  and  C_24
REMARK                            x       y       z     vdW  Elec       q    Type
REMARK                         _______ _______ _______ _____ _____    ______ ____
ROOT
ATOM      1  C   UNL     1       4.388   5.315  17.462  0.00  0.00    +0.000 A 
ATOM      2  C   UNL     1       4.242   4.220  18.331  0.00  0.00    +0.000 A 
ATOM      3  C   UNL     1       3.415   4.291  19.460  0.00  0.00    +0.000 A 
ATOM      4  C   UNL     1       2.698   5.456  19.748  0.00  0.00    +0.000 A 
ATOM      5  C   UNL     1       2.828   6.565  18.921  0.00  0.00    +0.000 A 
ATOM      6  C   UNL     1       3.697   6.475  17.807  0.00  0.00    +0.000 A 
ENDROOT
BRANCH   5   7
ATOM      7  N   UNL     1       2.113   7.774  19.115  0.00  0.00    +0.000 N 
ATOM      8  C   UNL     1       1.450   7.997  20.379  0.00  0.00    +0.000 C 
ATOM      9  C   UNL     1       0.919   9.374  20.278  0.00  0.00    +0.000 A 
ATOM     10  C   UNL     1       1.220   9.898  19.026  0.00  0.00    +0.000 A 
ATOM     11  C   UNL     1       0.830  11.176  18.694  0.00  0.00    +0.000 A 
ATOM     12  C   UNL     1       0.137  11.921  19.652  0.00  0.00    +0.000 A 
ATOM     13  C   UNL     1      -0.156  11.384  20.924  0.00  0.00    +0.000 A 
ATOM     14  C   UNL     1       0.241  10.084  21.261  0.00  0.00    +0.000 A 
ATOM     15  C   UNL     1       1.986   8.879  18.265  0.00  0.00    +0.000 C 
ATOM     16  O   UNL     1       2.408   9.071  17.142  0.00  0.00    +0.000 OA
BRANCH  14  17
ATOM     17  C   UNL     1      -0.038   9.499  22.625  0.00  0.00    +0.000 C 
ATOM     18  F   UNL     1      -0.719  10.342  23.457  0.00  0.00    +0.000 F 
ATOM     19  F   UNL     1      -0.796   8.371  22.565  0.00  0.00    +0.000 F 
ATOM     20  F   UNL     1       1.094   9.166  23.299  0.00  0.00    +0.000 F 
ENDBRANCH  14  17
ENDBRANCH   5   7
BRANCH   1  21
ATOM     21  C   UNL     1       5.273   5.242  16.183  0.00  0.00    +0.000 C 
ATOM     22  C   UNL     1       5.108   6.606  15.474  0.00  0.00    +0.000 C 
ATOM     23  C   UNL     1       4.687   4.071  15.361  0.00  0.00    +0.000 C 
BRANCH  21  24
ATOM     24  C   UNL     1       6.821   5.011  16.438  0.00  0.00    +0.000 C 
BRANCH  24  30
ATOM     25  C   UNL     1       7.700   7.921  17.498  0.00  0.00    +0.000 C 
ATOM     26  N   UNL     1       7.711   6.675  18.211  0.00  0.00    +0.000 N 
ATOM     27  C   UNL     1       8.106   6.549  19.510  0.00  0.00    +0.000 A 
ATOM     28  N   UNL     1       7.939   5.312  19.905  0.00  0.00    +0.000 NA
ATOM     29  N   UNL     1       7.417   4.616  18.849  0.00  0.00    +0.000 NA
ATOM     30  C   UNL     1       7.321   5.419  17.804  0.00  0.00    +0.000 A 
ENDBRANCH  24  30
ENDBRANCH  21  24
ENDBRANCH   1  21
TORSDOF 5
ENDMDL
MODEL 6
REMARK VINA RESULT:      -8.4      3.706      8.189
REMARK  Name = 
REMARK  8 active torsions:
REMARK  status: ('A' for Active; 'I' for Inactive)
REMARK    1  A    between atoms: C_1  and  N_2
REMARK    2  A    between atoms: C_6  and  C_7
REMARK    3  A    between atoms: C_7  and  C_8
REMARK    4  A    between atoms: C_8  and  C_9
REMARK    5  A    between atoms: C_8  and  C_10
REMARK    6  A    between atoms: C_8  and  C_11
REMARK    7  A    between atoms: C_15  and  N_16
REMARK    8  A    between atoms: C_23  and  C_24
REMARK                            x       y       z     vdW  Elec       q    Type
REMARK                         _______ _______ _______ _____ _____    ______ ____
ROOT
ATOM      1  C   UNL     1      -0.703  10.785  19.941  0.00  0.00    +0.000 A 
ATOM      2  C   UNL     1      -0.589  11.158  21.291  0.00  0.00    +0.000 A 
ATOM      3  C   UNL     1       0.253  10.463  22.170  0.00  0.00    +0.000 A 
ATOM      4  C   UNL     1       1.017   9.382  21.724  0.00  0.00    +0.000 A 
ATOM      5  C   UNL     1       0.921   8.974  20.398  0.00  0.00    +0.000 A 
ATOM      6  C   UNL     1       0.037   9.673  19.542  0.00  0.00    +0.000 A 
ENDROOT
BRANCH   5   7
ATOM      7  N   UNL     1       1.684   7.913  19.849  0.00  0.00    +0.000 N 
ATOM      8  C   UNL     1       1.635   6.616  20.484  0.00  0.00    +0.000 C 
ATOM      9  C   UNL     1       2.435   5.742  19.599  0.00  0.00    +0.000 A 
ATOM     10  C   UNL     1       2.944   6.490  18.544  0.00  0.00    +0.000 A 
ATOM     11  C   UNL     1       3.724   5.891  17.579  0.00  0.00    +0.000 A 
ATOM     12  C   UNL     1       3.973   4.521  17.693  0.00  0.00    +0.000 A 
ATOM     13  C   UNL     1       3.444   3.768  18.763  0.00  0.00    +0.000 A 
ATOM     14  C   UNL     1       2.651   4.377  19.744  0.00  0.00    +0.000 A 
ATOM     15  C   UNL     1       2.473   7.889  18.692  0.00  0.00    +0.000 C 
ATOM     16  O   UNL     1       2.741   8.766  17.895  0.00  0.00    +0.000 OA
BRANCH  14  17
ATOM     17  C   UNL     1       2.053   3.586  20.882  0.00  0.00    +0.000 C 
ATOM     18  F   UNL     1       0.688   3.614  20.916  0.00  0.00    +0.000 F 
ATOM     19  F   UNL     1       2.379   2.266  20.831  0.00  0.00    +0.000 F 
ATOM     20  F   UNL     1       2.452   4.032  22.103  0.00  0.00    +0.000 F 
ENDBRANCH  14  17
ENDBRANCH   5   7
BRANCH   1  21
ATOM     21  C   UNL     1      -1.604  11.567  18.941  0.00  0.00    +0.000 C 
ATOM     22  C   UNL     1      -2.659  12.298  19.803  0.00  0.00    +0.000 C 
ATOM     23  C   UNL     1      -2.227  10.481  18.034  0.00  0.00    +0.000 C 
BRANCH  21  24
ATOM     24  C   UNL     1      -0.859  12.654  18.060  0.00  0.00    +0.000 C 
BRANCH  24  30
ATOM     25  C   UNL     1       2.341  12.368  18.255  0.00  0.00    +0.000 C 
ATOM     26  N   UNL     1       1.497  13.347  18.878  0.00  0.00    +0.000 N 
ATOM     27  C   UNL     1       1.963  14.354  19.672  0.00  0.00    +0.000 A 
ATOM     28  N   UNL     1       0.971  15.126  20.035  0.00  0.00    +0.000 NA
ATOM     29  N   UNL     1      -0.165  14.623  19.462  0.00  0.00    +0.000 NA
ATOM     30  C   UNL     1       0.134  13.520  18.800  0.00  0.00    +0.000 A 
ENDBRANCH  24  30
ENDBRANCH  21  24
ENDBRANCH   1  21
TORSDOF 5
ENDMDL
MODEL 7
REMARK VINA RESULT:      -8.4      1.006      1.481
REMARK  Name = 
REMARK  8 active torsions:
REMARK  status: ('A' for Active; 'I' for Inactive)
REMARK    1  A    between atoms: C_1  and  N_2
REMARK    2  A    between atoms: C_6  and  C_7
REMARK    3  A    between atoms: C_7  and  C_8
REMARK    4  A    between atoms: C_8  and  C_9
REMARK    5  A    between atoms: C_8  and  C_10
REMARK    6  A    between atoms: C_8  and  C_11
REMARK    7  A    between atoms: C_15  and  N_16
REMARK    8  A    between atoms: C_23  and  C_24
REMARK                            x       y       z     vdW  Elec       q    Type
REMARK                         _______ _______ _______ _____ _____    ______ ____
ROOT
ATOM      1  C   UNL     1       4.134   4.772  18.523  0.00  0.00    +0.000 A 
ATOM      2  C   UNL     1       3.742   3.768  19.426  0.00  0.00    +0.000 A 
ATOM      3  C   UNL     1       2.766   4.007  20.402  0.00  0.00    +0.000 A 
ATOM      4  C   UNL     1       2.141   5.253  20.498  0.00  0.00    +0.000 A 
ATOM      5  C   UNL     1       2.512   6.276  19.632  0.00  0.00    +0.000 A 
ATOM      6  C   UNL     1       3.525   6.016  18.679  0.00  0.00    +0.000 A 
ENDROOT
BRANCH   5   7
ATOM      7  N   UNL     1       1.908   7.559  19.632  0.00  0.00    +0.000 N 
ATOM      8  C   UNL     1       1.219   8.005  20.821  0.00  0.00    +0.000 C 
ATOM      9  C   UNL     1       0.826   9.399  20.517  0.00  0.00    +0.000 A 
ATOM     10  C   UNL     1       1.225   9.723  19.226  0.00  0.00    +0.000 A 
ATOM     11  C   UNL     1       0.971  10.976  18.713  0.00  0.00    +0.000 A 
ATOM     12  C   UNL     1       0.315  11.900  19.531  0.00  0.00    +0.000 A 
ATOM     13  C   UNL     1      -0.079  11.564  20.844  0.00  0.00    +0.000 A 
ATOM     14  C   UNL     1       0.179  10.290  21.365  0.00  0.00    +0.000 A 
ATOM     15  C   UNL     1       1.921   8.549  18.643  0.00  0.00    +0.000 C 
ATOM     16  O   UNL     1       2.404   8.553  17.528  0.00  0.00    +0.000 OA
BRANCH  14  17
ATOM     17  C   UNL     1      -0.209   9.918  22.776  0.00  0.00    +0.000 C 
ATOM     18  F   UNL     1      -1.051   8.844  22.851  0.00  0.00    +0.000 F 
ATOM     19  F   UNL     1       0.863   9.581  23.543  0.00  0.00    +0.000 F 
ATOM     20  F   UNL     1      -0.849  10.923  23.431  0.00  0.00    +0.000 F 
ENDBRANCH  14  17
ENDBRANCH   5   7
BRANCH   1  21
ATOM     21  C   UNL     1       5.190   4.514  17.409  0.00  0.00    +0.000 C 
ATOM     22  C   UNL     1       4.987   3.048  16.961  0.00  0.00    +0.000 C 
ATOM     23  C   UNL     1       6.557   4.741  18.096  0.00  0.00    +0.000 C 
BRANCH  21  24
ATOM     24  C   UNL     1       5.064   5.436  16.125  0.00  0.00    +0.000 C 
BRANCH  24  30
ATOM     25  C   UNL     1       5.077   3.770  13.370  0.00  0.00    +0.000 C 
ATOM     26  N   UNL     1       6.143   4.538  13.949  0.00  0.00    +0.000 N 
ATOM     27  C   UNL     1       7.370   4.686  13.372  0.00  0.00    +0.000 A 
ATOM     28  N   UNL     1       8.103   5.495  14.094  0.00  0.00    +0.000 NA
ATOM     29  N   UNL     1       7.340   5.893  15.158  0.00  0.00    +0.000 NA
ATOM     30  C   UNL     1       6.170   5.283  15.107  0.00  0.00    +0.000 A 
ENDBRANCH  24  30
ENDBRANCH  21  24
ENDBRANCH   1  21
TORSDOF 5
ENDMDL
MODEL 8
REMARK VINA RESULT:      -8.2      2.388      3.079
REMARK  Name = 
REMARK  8 active torsions:
REMARK  status: ('A' for Active; 'I' for Inactive)
REMARK    1  A    between atoms: C_1  and  N_2
REMARK    2  A    between atoms: C_6  and  C_7
REMARK    3  A    between atoms: C_7  and  C_8
REMARK    4  A    between atoms: C_8  and  C_9
REMARK    5  A    between atoms: C_8  and  C_10
REMARK    6  A    between atoms: C_8  and  C_11
REMARK    7  A    between atoms: C_15  and  N_16
REMARK    8  A    between atoms: C_23  and  C_24
REMARK                            x       y       z     vdW  Elec       q    Type
REMARK                         _______ _______ _______ _____ _____    ______ ____
ROOT
ATOM      1  C   UNL     1       4.466   4.907  17.032  0.00  0.00    +0.000 A 
ATOM      2  C   UNL     1       3.787   3.685  16.886  0.00  0.00    +0.000 A 
ATOM      3  C   UNL     1       2.590   3.430  17.569  0.00  0.00    +0.000 A 
ATOM      4  C   UNL     1       2.027   4.394  18.408  0.00  0.00    +0.000 A 
ATOM      5  C   UNL     1       2.675   5.611  18.590  0.00  0.00    +0.000 A 
ATOM      6  C   UNL     1       3.900   5.827  17.914  0.00  0.00    +0.000 A 
ENDROOT
BRANCH   5   7
ATOM      7  N   UNL     1       2.161   6.660  19.392  0.00  0.00    +0.000 N 
ATOM      8  C   UNL     1       2.008   7.973  18.809  0.00  0.00    +0.000 C 
ATOM      9  C   UNL     1       1.349   8.771  19.867  0.00  0.00    +0.000 A 
ATOM     10  C   UNL     1       1.168   7.983  20.998  0.00  0.00    +0.000 A 
ATOM     11  C   UNL     1       0.568   8.507  22.122  0.00  0.00    +0.000 A 
ATOM     12  C   UNL     1       0.145   9.839  22.080  0.00  0.00    +0.000 A 
ATOM     13  C   UNL     1       0.324  10.627  20.924  0.00  0.00    +0.000 A 
ATOM     14  C   UNL     1       0.935  10.094  19.782  0.00  0.00    +0.000 A 
ATOM     15  C   UNL     1       1.687   6.624  20.709  0.00  0.00    +0.000 C 
ATOM     16  O   UNL     1       1.637   5.712  21.511  0.00  0.00    +0.000 OA
BRANCH  14  17
ATOM     17  C   UNL     1       1.113  10.912  18.525  0.00  0.00    +0.000 C 
ATOM     18  F   UNL     1       2.418  11.181  18.223  0.00  0.00    +0.000 F 
ATOM     19  F   UNL     1       0.615  10.291  17.421  0.00  0.00    +0.000 F 
ATOM     20  F   UNL     1       0.503  12.125  18.592  0.00  0.00    +0.000 F 
ENDBRANCH  14  17
ENDBRANCH   5   7
BRANCH   1  21
ATOM     21  C   UNL     1       5.776   5.223  16.254  0.00  0.00    +0.000 C 
ATOM     22  C   UNL     1       6.866   5.443  17.329  0.00  0.00    +0.000 C 
ATOM     23  C   UNL     1       5.464   6.508  15.454  0.00  0.00    +0.000 C 
BRANCH  21  24
ATOM     24  C   UNL     1       6.281   4.080  15.278  0.00  0.00    +0.000 C 
BRANCH  24  30
ATOM     25  C   UNL     1       5.652   3.199  12.246  0.00  0.00    +0.000 C 
ATOM     26  N   UNL     1       6.633   4.136  12.714  0.00  0.00    +0.000 N 
ATOM     27  C   UNL     1       7.471   4.829  11.890  0.00  0.00    +0.000 A 
ATOM     28  N   UNL     1       8.201   5.655  12.596  0.00  0.00    +0.000 NA
ATOM     29  N   UNL     1       7.829   5.509  13.904  0.00  0.00    +0.000 NA
ATOM     30  C   UNL     1       6.916   4.559  13.993  0.00  0.00    +0.000 A 
ENDBRANCH  24  30
ENDBRANCH  21  24
ENDBRANCH   1  21
TORSDOF 5
ENDMDL
MODEL 9
REMARK VINA RESULT:      -8.1      3.709      8.503
REMARK  Name = 
REMARK  8 active torsions:
REMARK  status: ('A' for Active; 'I' for Inactive)
REMARK    1  A    between atoms: C_1  and  N_2
REMARK    2  A    between atoms: C_6  and  C_7
REMARK    3  A    between atoms: C_7  and  C_8
REMARK    4  A    between atoms: C_8  and  C_9
REMARK    5  A    between atoms: C_8  and  C_10
REMARK    6  A    between atoms: C_8  and  C_11
REMARK    7  A    between atoms: C_15  and  N_16
REMARK    8  A    between atoms: C_23  and  C_24
REMARK                            x       y       z     vdW  Elec       q    Type
REMARK                         _______ _______ _______ _____ _____    ______ ____
ROOT
ATOM      1  C   UNL     1       0.299  11.328  20.173  0.00  0.00    +0.000 A 
ATOM      2  C   UNL     1      -0.276  11.239  21.453  0.00  0.00    +0.000 A 
ATOM      3  C   UNL     1      -0.207  10.057  22.202  0.00  0.00    +0.000 A 
ATOM      4  C   UNL     1       0.450   8.930  21.701  0.00  0.00    +0.000 A 
ATOM      5  C   UNL     1       1.019   8.974  20.433  0.00  0.00    +0.000 A 
ATOM      6  C   UNL     1       0.903  10.170  19.686  0.00  0.00    +0.000 A 
ENDROOT
BRANCH   5   7
ATOM      7  N   UNL     1       1.735   7.894  19.859  0.00  0.00    +0.000 N 
ATOM      8  C   UNL     1       1.668   6.597  20.493  0.00  0.00    +0.000 C 
ATOM      9  C   UNL     1       2.416   5.703  19.582  0.00  0.00    +0.000 A 
ATOM     10  C   UNL     1       2.914   6.439  18.514  0.00  0.00    +0.000 A 
ATOM     11  C   UNL     1       3.648   5.822  17.525  0.00  0.00    +0.000 A 
ATOM     12  C   UNL     1       3.862   4.444  17.629  0.00  0.00    +0.000 A 
ATOM     13  C   UNL     1       3.343   3.704  18.712  0.00  0.00    +0.000 A 
ATOM     14  C   UNL     1       2.598   4.332  19.718  0.00  0.00    +0.000 A 
ATOM     15  C   UNL     1       2.487   7.851  18.678  0.00  0.00    +0.000 C 
ATOM     16  O   UNL     1       2.756   8.722  17.876  0.00  0.00    +0.000 OA
BRANCH  14  17
ATOM     17  C   UNL     1       2.013   3.555  20.872  0.00  0.00    +0.000 C 
ATOM     18  F   UNL     1       2.367   4.040  22.100  0.00  0.00    +0.000 F 
ATOM     19  F   UNL     1       0.652   3.559  20.870  0.00  0.00    +0.000 F 
ATOM     20  F   UNL     1       2.392   2.250  20.878  0.00  0.00    +0.000 F 
ENDBRANCH  14  17
ENDBRANCH   5   7
BRANCH   1  21
ATOM     21  C   UNL     1       0.265  12.643  19.342  0.00  0.00    +0.000 C 
ATOM     22  C   UNL     1      -0.921  12.495  18.360  0.00  0.00    +0.000 C 
ATOM     23  C   UNL     1       1.631  12.692  18.619  0.00  0.00    +0.000 C 
BRANCH  21  24
ATOM     24  C   UNL     1       0.040  13.972  20.178  0.00  0.00    +0.000 C 
BRANCH  24  30
ATOM     25  C   UNL     1       1.918  16.428  19.281  0.00  0.00    +0.000 C 
ATOM     26  N   UNL     1       2.063  15.569  20.421  0.00  0.00    +0.000 N 
ATOM     27  C   UNL     1       3.066  15.691  21.339  0.00  0.00    +0.000 A 
ATOM     28  N   UNL     1       2.895  14.817  22.298  0.00  0.00    +0.000 NA
ATOM     29  N   UNL     1       1.757  14.116  22.010  0.00  0.00    +0.000 NA
ATOM     30  C   UNL     1       1.272  14.529  20.853  0.00  0.00    +0.000 A 
ENDBRANCH  24  30
ENDBRANCH  21  24
ENDBRANCH   1  21
TORSDOF 5
ENDMDL
