MODEL 1
REMARK VINA RESULT:      -8.9      0.000      0.000
REMARK  Name = 
REMARK  8 active torsions:
REMARK  status: ('A' for Active; 'I' for Inactive)
REMARK    1  A    between atoms: C_1  and  C_2
REMARK    2  A    between atoms: C_2  and  S_3
REMARK    3  A    between atoms: C_2  and  C_10
REMARK    4  A    between atoms: S_3  and  C_4
REMARK    5  A    between atoms: N_8  and  C_9
REMARK    6  A    between atoms: C_14  and  C_15
REMARK    7  A    between atoms: C_17  and  C_18
REMARK    8  A    between atoms: C_22  and  C_23
REMARK                            x       y       z     vdW  Elec       q    Type
REMARK                         _______ _______ _______ _____ _____    ______ ____
ROOT
ATOM      1  C   UNL     1      -0.777  10.935  21.467  0.00  0.00    +0.000 A 
ATOM      2  C   UNL     1      -0.579  10.569  22.809  0.00  0.00    +0.000 A 
ATOM      3  C   UNL     1       0.254   9.505  23.152  0.00  0.00    +0.000 A 
ATOM      4  C   UNL     1       0.908   8.786  22.157  0.00  0.00    +0.000 A 
ATOM      5  C   UNL     1       0.729   9.117  20.808  0.00  0.00    +0.000 A 
ATOM      6  C   UNL     1      -0.123  10.179  20.474  0.00  0.00    +0.000 A 
ENDROOT
BRANCH   5   7
ATOM      7  C   UNL     1       1.492   8.422  19.790  0.00  0.00    +0.000 A 
ATOM      8  C   UNL     1       2.045   7.170  19.720  0.00  0.00    +0.000 A 
ATOM      9  C   UNL     1       2.715   7.133  18.473  0.00  0.00    +0.000 A 
ATOM     10  N   UNL     1       2.532   8.285  17.810  0.00  0.00    +0.000 NA
ATOM     11  O   UNL     1       1.779   9.096  18.645  0.00  0.00    +0.000 OA
BRANCH   9  12
ATOM     12  C   UNL     1       3.493   6.025  17.928  0.00  0.00    +0.000 A 
ATOM     13  C   UNL     1       2.895   4.778  17.705  0.00  0.00    +0.000 A 
ATOM     14  C   UNL     1       3.619   3.729  17.140  0.00  0.00    +0.000 A 
ATOM     15  C   UNL     1       4.954   3.921  16.786  0.00  0.00    +0.000 A 
ATOM     16  C   UNL     1       5.579   5.157  17.008  0.00  0.00    +0.000 A 
ATOM     17  C   UNL     1       4.839   6.203  17.587  0.00  0.00    +0.000 A 
BRANCH  16  18
ATOM     18  C   UNL     1       7.019   5.391  16.626  0.00  0.00    +0.000 C 
ATOM     19  F   UNL     1       7.510   6.586  17.061  0.00  0.00    +0.000 F 
ATOM     20  F   UNL     1       7.851   4.441  17.138  0.00  0.00    +0.000 F 
ATOM     21  F   UNL     1       7.214   5.375  15.279  0.00  0.00    +0.000 F 
ENDBRANCH  16  18
ENDBRANCH   9  12
ENDBRANCH   5   7
BRANCH   1  23
ATOM     22  C   UNL     1      -1.151  12.809  19.769  0.00  0.00    +0.000 C 
ATOM     23  C   UNL     1      -1.647  12.127  21.049  0.00  0.00    +0.000 C 
BRANCH  23  24
ATOM     24  S   UNL     1      -1.747  13.311  22.452  0.00  0.00    +0.000 S 
BRANCH  24  25
ATOM     25  C   UNL     1      -3.311  13.018  23.122  0.00  0.00    +0.000 A 
ATOM     26  N   UNL     1      -3.661  12.081  23.970  0.00  0.00    +0.000 NA
ATOM     27  N   UNL     1      -5.031  12.124  24.107  0.00  0.00    +0.000 NA
ATOM     28  C   UNL     1      -5.470  13.114  23.365  0.00  0.00    +0.000 A 
ATOM     29  N   UNL     1      -4.416  13.735  22.766  0.00  0.00    +0.000 N 
ATOM     30  C   UNL     1      -4.487  14.923  21.956  0.00  0.00    +0.000 C 
ENDBRANCH  24  25
ENDBRANCH  23  24
ENDBRANCH   1  23
TORSDOF 6
ENDMDL
MODEL 2
REMARK VINA RESULT:      -8.7      2.864      3.344
REMARK  Name = 
REMARK  8 active torsions:
REMARK  status: ('A' for Active; 'I' for Inactive)
REMARK    1  A    between atoms: C_1  and  C_2
REMARK    2  A    between atoms: C_2  and  S_3
REMARK    3  A    between atoms: C_2  and  C_10
REMARK    4  A    between atoms: S_3  and  C_4
REMARK    5  A    between atoms: N_8  and  C_9
REMARK    6  A    between atoms: C_14  and  C_15
REMARK    7  A    between atoms: C_17  and  C_18
REMARK    8  A    between atoms: C_22  and  C_23
REMARK                            x       y       z     vdW  Elec       q    Type
REMARK                         _______ _______ _______ _____ _____    ______ ____
ROOT
ATOM      1  C   UNL     1      -0.314  10.944  20.719  0.00  0.00    +0.000 A 
ATOM      2  C   UNL     1      -0.628  10.991  22.088  0.00  0.00    +0.000 A 
ATOM      3  C   UNL     1      -0.294   9.940  22.941  0.00  0.00    +0.000 A 
ATOM      4  C   UNL     1       0.364   8.821  22.442  0.00  0.00    +0.000 A 
ATOM      5  C   UNL     1       0.687   8.737  21.082  0.00  0.00    +0.000 A 
ATOM      6  C   UNL     1       0.332   9.792  20.230  0.00  0.00    +0.000 A 
ENDROOT
BRANCH   5   7
ATOM      7  C   UNL     1       1.459   7.610  20.595  0.00  0.00    +0.000 A 
ATOM      8  C   UNL     1       2.374   7.461  19.586  0.00  0.00    +0.000 A 
ATOM      9  C   UNL     1       2.712   6.087  19.595  0.00  0.00    +0.000 A 
ATOM     10  N   UNL     1       2.069   5.454  20.589  0.00  0.00    +0.000 NA
ATOM     11  O   UNL     1       1.274   6.408  21.203  0.00  0.00    +0.000 OA
BRANCH   9  12
ATOM     12  C   UNL     1       3.631   5.403  18.690  0.00  0.00    +0.000 A 
ATOM     13  C   UNL     1       3.142   4.557  17.686  0.00  0.00    +0.000 A 
ATOM     14  C   UNL     1       4.010   3.938  16.788  0.00  0.00    +0.000 A 
ATOM     15  C   UNL     1       5.382   4.164  16.884  0.00  0.00    +0.000 A 
ATOM     16  C   UNL     1       5.898   4.998  17.887  0.00  0.00    +0.000 A 
ATOM     17  C   UNL     1       5.012   5.609  18.791  0.00  0.00    +0.000 A 
BRANCH  16  18
ATOM     18  C   UNL     1       7.377   5.263  18.005  0.00  0.00    +0.000 C 
ATOM     19  F   UNL     1       7.791   6.360  17.309  0.00  0.00    +0.000 F 
ATOM     20  F   UNL     1       7.764   5.477  19.294  0.00  0.00    +0.000 F 
ATOM     21  F   UNL     1       8.134   4.226  17.553  0.00  0.00    +0.000 F 
ENDBRANCH  16  18
ENDBRANCH   9  12
ENDBRANCH   5   7
BRANCH   1  23
ATOM     22  C   UNL     1       0.036  13.417  20.174  0.00  0.00    +0.000 C 
ATOM     23  C   UNL     1      -0.621  12.097  19.755  0.00  0.00    +0.000 C 
BRANCH  23  24
ATOM     24  S   UNL     1      -2.444  12.269  19.596  0.00  0.00    +0.000 S 
BRANCH  24  25
ATOM     25  C   UNL     1      -2.788  11.559  18.060  0.00  0.00    +0.000 A 
ATOM     26  N   UNL     1      -1.944  11.015  17.216  0.00  0.00    +0.000 NA
ATOM     27  N   UNL     1      -2.631  10.724  16.058  0.00  0.00    +0.000 NA
ATOM     28  C   UNL     1      -3.884  11.065  16.248  0.00  0.00    +0.000 A 
ATOM     29  N   UNL     1      -4.038  11.550  17.511  0.00  0.00    +0.000 N 
ATOM     30  C   UNL     1      -5.284  11.933  18.121  0.00  0.00    +0.000 C 
ENDBRANCH  24  25
ENDBRANCH  23  24
ENDBRANCH   1  23
TORSDOF 6
ENDMDL
MODEL 3
REMARK VINA RESULT:      -8.7      1.610      2.271
REMARK  Name = 
REMARK  8 active torsions:
REMARK  status: ('A' for Active; 'I' for Inactive)
REMARK    1  A    between atoms: C_1  and  C_2
REMARK    2  A    between atoms: C_2  and  S_3
REMARK    3  A    between atoms: C_2  and  C_10
REMARK    4  A    between atoms: S_3  and  C_4
REMARK    5  A    between atoms: N_8  and  C_9
REMARK    6  A    between atoms: C_14  and  C_15
REMARK    7  A    between atoms: C_17  and  C_18
REMARK    8  A    between atoms: C_22  and  C_23
REMARK                            x       y       z     vdW  Elec       q    Type
REMARK                         _______ _______ _______ _____ _____    ______ ____
ROOT
ATOM      1  C   UNL     1      -0.956  11.636  19.113  0.00  0.00    +0.000 A 
ATOM      2  C   UNL     1      -0.198  12.760  18.740  0.00  0.00    +0.000 A 
ATOM      3  C   UNL     1       1.163  12.652  18.458  0.00  0.00    +0.000 A 
ATOM      4  C   UNL     1       1.794  11.416  18.540  0.00  0.00    +0.000 A 
ATOM      5  C   UNL     1       1.073  10.275  18.915  0.00  0.00    +0.000 A 
ATOM      6  C   UNL     1      -0.291  10.398  19.213  0.00  0.00    +0.000 A 
ENDROOT
BRANCH   5   7
ATOM      7  C   UNL     1       1.722   8.979  18.902  0.00  0.00    +0.000 A 
ATOM      8  C   UNL     1       2.415   8.283  17.945  0.00  0.00    +0.000 A 
ATOM      9  C   UNL     1       2.737   7.045  18.552  0.00  0.00    +0.000 A 
ATOM     10  N   UNL     1       2.302   7.019  19.821  0.00  0.00    +0.000 NA
ATOM     11  O   UNL     1       1.653   8.226  20.031  0.00  0.00    +0.000 OA
BRANCH   9  12
ATOM     12  C   UNL     1       3.450   5.928  17.941  0.00  0.00    +0.000 A 
ATOM     13  C   UNL     1       2.795   4.713  17.700  0.00  0.00    +0.000 A 
ATOM     14  C   UNL     1       3.456   3.657  17.073  0.00  0.00    +0.000 A 
ATOM     15  C   UNL     1       4.784   3.809  16.677  0.00  0.00    +0.000 A 
ATOM     16  C   UNL     1       5.465   5.012  16.915  0.00  0.00    +0.000 A 
ATOM     17  C   UNL     1       4.789   6.065  17.556  0.00  0.00    +0.000 A 
BRANCH  16  18
ATOM     18  C   UNL     1       6.898   5.202  16.488  0.00  0.00    +0.000 C 
ATOM     19  F   UNL     1       7.369   6.462  16.709  0.00  0.00    +0.000 F 
ATOM     20  F   UNL     1       7.751   4.369  17.148  0.00  0.00    +0.000 F 
ATOM     21  F   UNL     1       7.087   4.961  15.162  0.00  0.00    +0.000 F 
ENDBRANCH  16  18
ENDBRANCH   9  12
ENDBRANCH   5   7
BRANCH   1  23
ATOM     22  C   UNL     1      -3.308  11.546  18.117  0.00  0.00    +0.000 C 
ATOM     23  C   UNL     1      -2.463  11.702  19.387  0.00  0.00    +0.000 C 
BRANCH  23  24
ATOM     24  S   UNL     1      -2.840  13.273  20.263  0.00  0.00    +0.000 S 
BRANCH  24  25
ATOM     25  C   UNL     1      -3.454  12.752  21.790  0.00  0.00    +0.000 A 
ATOM     26  N   UNL     1      -4.704  12.539  22.126  0.00  0.00    +0.000 NA
ATOM     27  N   UNL     1      -4.741  12.289  23.480  0.00  0.00    +0.000 NA
ATOM     28  C   UNL     1      -3.506  12.320  23.920  0.00  0.00    +0.000 A 
ATOM     29  N   UNL     1      -2.658  12.559  22.881  0.00  0.00    +0.000 N 
ATOM     30  C   UNL     1      -1.220  12.567  22.951  0.00  0.00    +0.000 C 
ENDBRANCH  24  25
ENDBRANCH  23  24
ENDBRANCH   1  23
TORSDOF 6
ENDMDL
MODEL 4
REMARK VINA RESULT:      -8.4      2.598      3.513
REMARK  Name = 
REMARK  8 active torsions:
REMARK  status: ('A' for Active; 'I' for Inactive)
REMARK    1  A    between atoms: C_1  and  C_2
REMARK    2  A    between atoms: C_2  and  S_3
REMARK    3  A    between atoms: C_2  and  C_10
REMARK    4  A    between atoms: S_3  and  C_4
REMARK    5  A    between atoms: N_8  and  C_9
REMARK    6  A    between atoms: C_14  and  C_15
REMARK    7  A    between atoms: C_17  and  C_18
REMARK    8  A    between atoms: C_22  and  C_23
REMARK                            x       y       z     vdW  Elec       q    Type
REMARK                         _______ _______ _______ _____ _____    ______ ____
ROOT
ATOM      1  C   UNL     1      -0.337  11.327  21.354  0.00  0.00    +0.000 A 
ATOM      2  C   UNL     1      -0.457  10.780  22.643  0.00  0.00    +0.000 A 
ATOM      3  C   UNL     1       0.046   9.514  22.940  0.00  0.00    +0.000 A 
ATOM      4  C   UNL     1       0.683   8.770  21.953  0.00  0.00    +0.000 A 
ATOM      5  C   UNL     1       0.815   9.280  20.655  0.00  0.00    +0.000 A 
ATOM      6  C   UNL     1       0.291  10.547  20.363  0.00  0.00    +0.000 A 
ENDROOT
BRANCH   5   7
ATOM      7  C   UNL     1       1.566   8.535  19.664  0.00  0.00    +0.000 A 
ATOM      8  C   UNL     1       2.094   7.270  19.638  0.00  0.00    +0.000 A 
ATOM      9  C   UNL     1       2.765   7.177  18.395  0.00  0.00    +0.000 A 
ATOM     10  N   UNL     1       2.607   8.309  17.692  0.00  0.00    +0.000 NA
ATOM     11  O   UNL     1       1.869   9.163  18.497  0.00  0.00    +0.000 OA
BRANCH   9  12
ATOM     12  C   UNL     1       3.522   6.036  17.890  0.00  0.00    +0.000 A 
ATOM     13  C   UNL     1       2.898   4.795  17.703  0.00  0.00    +0.000 A 
ATOM     14  C   UNL     1       3.603   3.714  17.176  0.00  0.00    +0.000 A 
ATOM     15  C   UNL     1       4.944   3.865  16.826  0.00  0.00    +0.000 A 
ATOM     16  C   UNL     1       5.594   5.094  17.012  0.00  0.00    +0.000 A 
ATOM     17  C   UNL     1       4.874   6.173  17.553  0.00  0.00    +0.000 A 
BRANCH  16  18
ATOM     18  C   UNL     1       7.041   5.283  16.633  0.00  0.00    +0.000 C 
ATOM     19  F   UNL     1       7.864   4.317  17.130  0.00  0.00    +0.000 F 
ATOM     20  F   UNL     1       7.230   5.271  15.284  0.00  0.00    +0.000 F 
ATOM     21  F   UNL     1       7.548   6.467  17.074  0.00  0.00    +0.000 F 
ENDBRANCH  16  18
ENDBRANCH   9  12
ENDBRANCH   5   7
BRANCH   1  23
ATOM     22  C   UNL     1      -2.181  13.072  21.649  0.00  0.00    +0.000 C 
ATOM     23  C   UNL     1      -0.835  12.732  20.997  0.00  0.00    +0.000 C 
BRANCH  23  24
ATOM     24  S   UNL     1      -0.909  12.891  19.167  0.00  0.00    +0.000 S 
BRANCH  24  25
ATOM     25  C   UNL     1       0.486  13.830  18.782  0.00  0.00    +0.000 A 
ATOM     26  N   UNL     1       1.657  13.404  18.372  0.00  0.00    +0.000 NA
ATOM     27  N   UNL     1       2.513  14.482  18.340  0.00  0.00    +0.000 NA
ATOM     28  C   UNL     1       1.826  15.542  18.697  0.00  0.00    +0.000 A 
ATOM     29  N   UNL     1       0.533  15.186  18.936  0.00  0.00    +0.000 N 
ATOM     30  C   UNL     1      -0.545  16.086  19.252  0.00  0.00    +0.000 C 
ENDBRANCH  24  25
ENDBRANCH  23  24
ENDBRANCH   1  23
TORSDOF 6
ENDMDL
MODEL 5
REMARK VINA RESULT:      -8.4      2.954      3.458
REMARK  Name = 
REMARK  8 active torsions:
REMARK  status: ('A' for Active; 'I' for Inactive)
REMARK    1  A    between atoms: C_1  and  C_2
REMARK    2  A    between atoms: C_2  and  S_3
REMARK    3  A    between atoms: C_2  and  C_10
REMARK    4  A    between atoms: S_3  and  C_4
REMARK    5  A    between atoms: N_8  and  C_9
REMARK    6  A    between atoms: C_14  and  C_15
REMARK    7  A    between atoms: C_17  and  C_18
REMARK    8  A    between atoms: C_22  and  C_23
REMARK                            x       y       z     vdW  Elec       q    Type
REMARK                         _______ _______ _______ _____ _____    ______ ____
ROOT
ATOM      1  C   UNL     1      -2.236  10.827  17.551  0.00  0.00    +0.000 A 
ATOM      2  C   UNL     1      -1.932  12.134  17.968  0.00  0.00    +0.000 A 
ATOM      3  C   UNL     1      -0.725  12.428  18.601  0.00  0.00    +0.000 A 
ATOM      4  C   UNL     1       0.205  11.419  18.828  0.00  0.00    +0.000 A 
ATOM      5  C   UNL     1      -0.067  10.103  18.433  0.00  0.00    +0.000 A 
ATOM      6  C   UNL     1      -1.290   9.816  17.812  0.00  0.00    +0.000 A 
ENDROOT
BRANCH   5   7
ATOM      7  C   UNL     1       0.951   9.082  18.588  0.00  0.00    +0.000 A 
ATOM      8  C   UNL     1       1.669   8.326  17.698  0.00  0.00    +0.000 A 
ATOM      9  C   UNL     1       2.460   7.468  18.499  0.00  0.00    +0.000 A 
ATOM     10  N   UNL     1       2.263   7.729  19.801  0.00  0.00    +0.000 NA
ATOM     11  O   UNL     1       1.305   8.729  19.852  0.00  0.00    +0.000 OA
BRANCH   9  12
ATOM     12  C   UNL     1       3.386   6.440  18.034  0.00  0.00    +0.000 A 
ATOM     13  C   UNL     1       2.932   5.142  17.767  0.00  0.00    +0.000 A 
ATOM     14  C   UNL     1       3.801   4.168  17.277  0.00  0.00    +0.000 A 
ATOM     15  C   UNL     1       5.138   4.486  17.045  0.00  0.00    +0.000 A 
ATOM     16  C   UNL     1       5.620   5.776  17.314  0.00  0.00    +0.000 A 
ATOM     17  C   UNL     1       4.736   6.746  17.816  0.00  0.00    +0.000 A 
BRANCH  16  18
ATOM     18  C   UNL     1       7.061   6.145  17.064  0.00  0.00    +0.000 C 
ATOM     19  F   UNL     1       7.284   7.489  17.059  0.00  0.00    +0.000 F 
ATOM     20  F   UNL     1       7.898   5.635  18.010  0.00  0.00    +0.000 F 
ATOM     21  F   UNL     1       7.520   5.685  15.868  0.00  0.00    +0.000 F 
ENDBRANCH  16  18
ENDBRANCH   9  12
ENDBRANCH   5   7
BRANCH   1  23
ATOM     22  C   UNL     1      -3.308  10.193  15.319  0.00  0.00    +0.000 C 
ATOM     23  C   UNL     1      -3.530  10.470  16.811  0.00  0.00    +0.000 C 
BRANCH  23  24
ATOM     24  S   UNL     1      -4.757  11.813  17.075  0.00  0.00    +0.000 S 
BRANCH  24  25
ATOM     25  C   UNL     1      -5.660  11.276  18.446  0.00  0.00    +0.000 A 
ATOM     26  N   UNL     1      -6.428  10.217  18.540  0.00  0.00    +0.000 NA
ATOM     27  N   UNL     1      -7.070  10.268  19.758  0.00  0.00    +0.000 NA
ATOM     28  C   UNL     1      -6.643  11.339  20.384  0.00  0.00    +0.000 A 
ATOM     29  N   UNL     1      -5.717  11.977  19.616  0.00  0.00    +0.000 N 
ATOM     30  C   UNL     1      -4.951  13.132  20.003  0.00  0.00    +0.000 C 
ENDBRANCH  24  25
ENDBRANCH  23  24
ENDBRANCH   1  23
TORSDOF 6
ENDMDL
MODEL 6
REMARK VINA RESULT:      -8.4      5.937     11.271
REMARK  Name = 
REMARK  8 active torsions:
REMARK  status: ('A' for Active; 'I' for Inactive)
REMARK    1  A    between atoms: C_1  and  C_2
REMARK    2  A    between atoms: C_2  and  S_3
REMARK    3  A    between atoms: C_2  and  C_10
REMARK    4  A    between atoms: S_3  and  C_4
REMARK    5  A    between atoms: N_8  and  C_9
REMARK    6  A    between atoms: C_14  and  C_15
REMARK    7  A    between atoms: C_17  and  C_18
REMARK    8  A    between atoms: C_22  and  C_23
REMARK                            x       y       z     vdW  Elec       q    Type
REMARK                         _______ _______ _______ _____ _____    ______ ____
ROOT
ATOM      1  C   UNL     1       2.310   6.879  19.206  0.00  0.00    +0.000 A 
ATOM      2  C   UNL     1       2.615   7.529  17.998  0.00  0.00    +0.000 A 
ATOM      3  C   UNL     1       2.220   8.847  17.768  0.00  0.00    +0.000 A 
ATOM      4  C   UNL     1       1.514   9.541  18.744  0.00  0.00    +0.000 A 
ATOM      5  C   UNL     1       1.187   8.923  19.957  0.00  0.00    +0.000 A 
ATOM      6  C   UNL     1       1.574   7.593  20.171  0.00  0.00    +0.000 A 
ENDROOT
BRANCH   5   7
ATOM      7  C   UNL     1       0.536   9.690  21.002  0.00  0.00    +0.000 A 
ATOM      8  C   UNL     1      -0.275  10.795  20.992  0.00  0.00    +0.000 A 
ATOM      9  C   UNL     1      -0.522  11.082  22.355  0.00  0.00    +0.000 A 
ATOM     10  N   UNL     1       0.071  10.170  23.141  0.00  0.00    +0.000 NA
ATOM     11  O   UNL     1       0.746   9.309  22.290  0.00  0.00    +0.000 OA
BRANCH   9  12
ATOM     12  C   UNL     1      -1.311  12.187  22.890  0.00  0.00    +0.000 A 
ATOM     13  C   UNL     1      -0.734  13.451  23.072  0.00  0.00    +0.000 A 
ATOM     14  C   UNL     1      -1.494  14.524  23.537  0.00  0.00    +0.000 A 
ATOM     15  C   UNL     1      -2.846  14.342  23.823  0.00  0.00    +0.000 A 
ATOM     16  C   UNL     1      -3.445  13.084  23.659  0.00  0.00    +0.000 A 
ATOM     17  C   UNL     1      -2.666  12.009  23.198  0.00  0.00    +0.000 A 
BRANCH  16  18
ATOM     18  C   UNL     1      -4.908  12.866  23.954  0.00  0.00    +0.000 C 
ATOM     19  F   UNL     1      -5.600  12.334  22.908  0.00  0.00    +0.000 F 
ATOM     20  F   UNL     1      -5.104  12.013  24.999  0.00  0.00    +0.000 F 
ATOM     21  F   UNL     1      -5.554  14.018  24.282  0.00  0.00    +0.000 F 
ENDBRANCH  16  18
ENDBRANCH   9  12
ENDBRANCH   5   7
BRANCH   1  23
ATOM     22  C   UNL     1       2.198   4.916  20.839  0.00  0.00    +0.000 C 
ATOM     23  C   UNL     1       2.765   5.448  19.517  0.00  0.00    +0.000 C 
BRANCH  23  24
ATOM     24  S   UNL     1       4.602   5.389  19.496  0.00  0.00    +0.000 S 
BRANCH  24  25
ATOM     25  C   UNL     1       4.974   4.866  17.893  0.00  0.00    +0.000 A 
ATOM     26  N   UNL     1       4.161   4.344  17.006  0.00  0.00    +0.000 NA
ATOM     27  N   UNL     1       4.915   3.933  15.930  0.00  0.00    +0.000 NA
ATOM     28  C   UNL     1       6.163   4.254  16.178  0.00  0.00    +0.000 A 
ATOM     29  N   UNL     1       6.239   4.888  17.382  0.00  0.00    +0.000 N 
ATOM     30  C   UNL     1       7.422   5.477  17.951  0.00  0.00    +0.000 C 
ENDBRANCH  24  25
ENDBRANCH  23  24
ENDBRANCH   1  23
TORSDOF 6
ENDMDL
MODEL 7
REMARK VINA RESULT:      -8.4      2.535      3.714
REMARK  Name = 
REMARK  8 active torsions:
REMARK  status: ('A' for Active; 'I' for Inactive)
REMARK    1  A    between atoms: C_1  and  C_2
REMARK    2  A    between atoms: C_2  and  S_3
REMARK    3  A    between atoms: C_2  and  C_10
REMARK    4  A    between atoms: S_3  and  C_4
REMARK    5  A    between atoms: N_8  and  C_9
REMARK    6  A    between atoms: C_14  and  C_15
REMARK    7  A    between atoms: C_17  and  C_18
REMARK    8  A    between atoms: C_22  and  C_23
REMARK                            x       y       z     vdW  Elec       q    Type
REMARK                         _______ _______ _______ _____ _____    ______ ____
ROOT
ATOM      1  C   UNL     1      -0.530  11.391  21.311  0.00  0.00    +0.000 A 
ATOM      2  C   UNL     1      -0.593  10.919  22.633  0.00  0.00    +0.000 A 
ATOM      3  C   UNL     1      -0.021   9.699  22.992  0.00  0.00    +0.000 A 
ATOM      4  C   UNL     1       0.628   8.927  22.035  0.00  0.00    +0.000 A 
ATOM      5  C   UNL     1       0.705   9.363  20.706  0.00  0.00    +0.000 A 
ATOM      6  C   UNL     1       0.112  10.582  20.353  0.00  0.00    +0.000 A 
ENDROOT
BRANCH   5   7
ATOM      7  C   UNL     1       1.468   8.595  19.742  0.00  0.00    +0.000 A 
ATOM      8  C   UNL     1       2.097   7.378  19.793  0.00  0.00    +0.000 A 
ATOM      9  C   UNL     1       2.715   7.229  18.529  0.00  0.00    +0.000 A 
ATOM     10  N   UNL     1       2.432   8.280  17.743  0.00  0.00    +0.000 NA
ATOM     11  O   UNL     1       1.665   9.140  18.512  0.00  0.00    +0.000 OA
BRANCH   9  12
ATOM     12  C   UNL     1       3.539   6.111  18.081  0.00  0.00    +0.000 A 
ATOM     13  C   UNL     1       2.947   4.903  17.688  0.00  0.00    +0.000 A 
ATOM     14  C   UNL     1       3.724   3.847  17.214  0.00  0.00    +0.000 A 
ATOM     15  C   UNL     1       5.108   3.991  17.125  0.00  0.00    +0.000 A 
ATOM     16  C   UNL     1       5.726   5.186  17.521  0.00  0.00    +0.000 A 
ATOM     17  C   UNL     1       4.932   6.240  18.006  0.00  0.00    +0.000 A 
BRANCH  16  18
ATOM     18  C   UNL     1       7.220   5.367  17.426  0.00  0.00    +0.000 C 
ATOM     19  F   UNL     1       7.875   4.257  16.983  0.00  0.00    +0.000 F 
ATOM     20  F   UNL     1       7.568   6.368  16.569  0.00  0.00    +0.000 F 
ATOM     21  F   UNL     1       7.787   5.683  18.623  0.00  0.00    +0.000 F 
ENDBRANCH  16  18
ENDBRANCH   9  12
ENDBRANCH   5   7
BRANCH   1  23
ATOM     22  C   UNL     1      -2.606  12.876  21.169  0.00  0.00    +0.000 C 
ATOM     23  C   UNL     1      -1.105  12.747  20.883  0.00  0.00    +0.000 C 
BRANCH  23  24
ATOM     24  S   UNL     1      -0.728  13.019  19.105  0.00  0.00    +0.000 S 
BRANCH  24  25
ATOM     25  C   UNL     1       0.519  14.212  19.130  0.00  0.00    +0.000 A 
ATOM     26  N   UNL     1       0.429  15.463  19.514  0.00  0.00    +0.000 NA
ATOM     27  N   UNL     1       1.622  16.084  19.216  0.00  0.00    +0.000 NA
ATOM     28  C   UNL     1       2.416  15.180  18.693  0.00  0.00    +0.000 A 
ATOM     29  N   UNL     1       1.780  13.976  18.666  0.00  0.00    +0.000 N 
ATOM     30  C   UNL     1       2.361  12.725  18.256  0.00  0.00    +0.000 C 
ENDBRANCH  24  25
ENDBRANCH  23  24
ENDBRANCH   1  23
TORSDOF 6
ENDMDL
MODEL 8
REMARK VINA RESULT:      -8.3      7.364      9.907
REMARK  Name = 
REMARK  8 active torsions:
REMARK  status: ('A' for Active; 'I' for Inactive)
REMARK    1  A    between atoms: C_1  and  C_2
REMARK    2  A    between atoms: C_2  and  S_3
REMARK    3  A    between atoms: C_2  and  C_10
REMARK    4  A    between atoms: S_3  and  C_4
REMARK    5  A    between atoms: N_8  and  C_9
REMARK    6  A    between atoms: C_14  and  C_15
REMARK    7  A    between atoms: C_17  and  C_18
REMARK    8  A    between atoms: C_22  and  C_23
REMARK                            x       y       z     vdW  Elec       q    Type
REMARK                         _______ _______ _______ _____ _____    ______ ____
ROOT
ATOM      1  C   UNL     1       4.375   5.464  17.159  0.00  0.00    +0.000 A 
ATOM      2  C   UNL     1       4.948   4.501  16.310  0.00  0.00    +0.000 A 
ATOM      3  C   UNL     1       6.273   4.606  15.890  0.00  0.00    +0.000 A 
ATOM      4  C   UNL     1       7.054   5.676  16.313  0.00  0.00    +0.000 A 
ATOM      5  C   UNL     1       6.516   6.658  17.154  0.00  0.00    +0.000 A 
ATOM      6  C   UNL     1       5.177   6.552  17.557  0.00  0.00    +0.000 A 
ENDROOT
BRANCH   5   7
ATOM      7  C   UNL     1       7.369   7.713  17.664  0.00  0.00    +0.000 A 
ATOM      8  C   UNL     1       7.515   9.039  17.351  0.00  0.00    +0.000 A 
ATOM      9  C   UNL     1       8.566   9.499  18.180  0.00  0.00    +0.000 A 
ATOM     10  N   UNL     1       8.995   8.513  18.983  0.00  0.00    +0.000 NA
ATOM     11  O   UNL     1       8.254   7.392  18.645  0.00  0.00    +0.000 OA
BRANCH   9  12
ATOM     12  C   UNL     1       9.133  10.844  18.214  0.00  0.00    +0.000 A 
ATOM     13  C   UNL     1      10.520  11.029  18.284  0.00  0.00    +0.000 A 
ATOM     14  C   UNL     1      11.071  12.310  18.268  0.00  0.00    +0.000 A 
ATOM     15  C   UNL     1      10.236  13.422  18.179  0.00  0.00    +0.000 A 
ATOM     16  C   UNL     1       8.844  13.264  18.118  0.00  0.00    +0.000 A 
ATOM     17  C   UNL     1       8.300  11.968  18.143  0.00  0.00    +0.000 A 
BRANCH  16  18
ATOM     18  C   UNL     1       7.921  14.452  18.012  0.00  0.00    +0.000 C 
ATOM     19  F   UNL     1       8.526  15.568  17.515  0.00  0.00    +0.000 F 
ATOM     20  F   UNL     1       6.858  14.213  17.194  0.00  0.00    +0.000 F 
ATOM     21  F   UNL     1       7.396  14.817  19.214  0.00  0.00    +0.000 F 
ENDBRANCH  16  18
ENDBRANCH   9  12
ENDBRANCH   5   7
BRANCH   1  23
ATOM     22  C   UNL     1       2.743   6.061  19.033  0.00  0.00    +0.000 C 
ATOM     23  C   UNL     1       2.937   5.363  17.681  0.00  0.00    +0.000 C 
BRANCH  23  24
ATOM     24  S   UNL     1       2.455   3.591  17.758  0.00  0.00    +0.000 S 
BRANCH  24  25
ATOM     25  C   UNL     1       3.214   3.023  19.201  0.00  0.00    +0.000 A 
ATOM     26  N   UNL     1       4.475   2.706  19.376  0.00  0.00    +0.000 NA
ATOM     27  N   UNL     1       4.602   2.156  20.633  0.00  0.00    +0.000 NA
ATOM     28  C   UNL     1       3.418   2.191  21.199  0.00  0.00    +0.000 A 
ATOM     29  N   UNL     1       2.525   2.775  20.352  0.00  0.00    +0.000 N 
ATOM     30  C   UNL     1       1.152   3.080  20.654  0.00  0.00    +0.000 C 
ENDBRANCH  24  25
ENDBRANCH  23  24
ENDBRANCH   1  23
TORSDOF 6
ENDMDL
MODEL 9
REMARK VINA RESULT:      -8.3      1.824      2.757
REMARK  Name = 
REMARK  8 active torsions:
REMARK  status: ('A' for Active; 'I' for Inactive)
REMARK    1  A    between atoms: C_1  and  C_2
REMARK    2  A    between atoms: C_2  and  S_3
REMARK    3  A    between atoms: C_2  and  C_10
REMARK    4  A    between atoms: S_3  and  C_4
REMARK    5  A    between atoms: N_8  and  C_9
REMARK    6  A    between atoms: C_14  and  C_15
REMARK    7  A    between atoms: C_17  and  C_18
REMARK    8  A    between atoms: C_22  and  C_23
REMARK                            x       y       z     vdW  Elec       q    Type
REMARK                         _______ _______ _______ _____ _____    ______ ____
ROOT
ATOM      1  C   UNL     1       0.191  12.612  19.026  0.00  0.00    +0.000 A 
ATOM      2  C   UNL     1      -1.108  12.479  18.507  0.00  0.00    +0.000 A 
ATOM      3  C   UNL     1      -1.571  11.257  18.020  0.00  0.00    +0.000 A 
ATOM      4  C   UNL     1      -0.742  10.141  18.046  0.00  0.00    +0.000 A 
ATOM      5  C   UNL     1       0.561  10.236  18.549  0.00  0.00    +0.000 A 
ATOM      6  C   UNL     1       1.021  11.474  19.021  0.00  0.00    +0.000 A 
ENDROOT
BRANCH   5   7
ATOM      7  C   UNL     1       1.378   9.044  18.659  0.00  0.00    +0.000 A 
ATOM      8  C   UNL     1       2.059   8.282  17.745  0.00  0.00    +0.000 A 
ATOM      9  C   UNL     1       2.608   7.214  18.492  0.00  0.00    +0.000 A 
ATOM     10  N   UNL     1       2.313   7.353  19.794  0.00  0.00    +0.000 NA
ATOM     11  O   UNL     1       1.529   8.492  19.892  0.00  0.00    +0.000 OA
BRANCH   9  12
ATOM     12  C   UNL     1       3.403   6.101  17.980  0.00  0.00    +0.000 A 
ATOM     13  C   UNL     1       2.819   4.844  17.779  0.00  0.00    +0.000 A 
ATOM     14  C   UNL     1       3.558   3.790  17.245  0.00  0.00    +0.000 A 
ATOM     15  C   UNL     1       4.896   3.986  16.902  0.00  0.00    +0.000 A 
ATOM     16  C   UNL     1       5.507   5.232  17.103  0.00  0.00    +0.000 A 
ATOM     17  C   UNL     1       4.752   6.284  17.651  0.00  0.00    +0.000 A 
BRANCH  16  18
ATOM     18  C   UNL     1       6.949   5.469  16.733  0.00  0.00    +0.000 C 
ATOM     19  F   UNL     1       7.187   5.386  15.394  0.00  0.00    +0.000 F 
ATOM     20  F   UNL     1       7.384   6.705  17.109  0.00  0.00    +0.000 F 
ATOM     21  F   UNL     1       7.794   4.578  17.319  0.00  0.00    +0.000 F 
ENDBRANCH  16  18
ENDBRANCH   9  12
ENDBRANCH   5   7
BRANCH   1  23
ATOM     22  C   UNL     1       2.121  13.781  20.225  0.00  0.00    +0.000 C 
ATOM     23  C   UNL     1       0.723  13.924  19.613  0.00  0.00    +0.000 C 
BRANCH  23  24
ATOM     24  S   UNL     1      -0.490  14.563  20.838  0.00  0.00    +0.000 S 
BRANCH  24  25
ATOM     25  C   UNL     1      -0.788  13.208  21.864  0.00  0.00    +0.000 A 
ATOM     26  N   UNL     1       0.092  12.466  22.494  0.00  0.00    +0.000 NA
ATOM     27  N   UNL     1      -0.579  11.406  23.064  0.00  0.00    +0.000 NA
ATOM     28  C   UNL     1      -1.854  11.557  22.796  0.00  0.00    +0.000 A 
ATOM     29  N   UNL     1      -2.037  12.705  22.084  0.00  0.00    +0.000 N 
ATOM     30  C   UNL     1      -3.305  13.260  21.691  0.00  0.00    +0.000 C 
ENDBRANCH  24  25
ENDBRANCH  23  24
ENDBRANCH   1  23
TORSDOF 6
ENDMDL
