MODEL 1
REMARK VINA RESULT:      -9.0      0.000      0.000
REMARK  Name = 
REMARK  9 active torsions:
REMARK  status: ('A' for Active; 'I' for Inactive)
REMARK    1  A    between atoms: C_1  and  C_2
REMARK    2  A    between atoms: C_2  and  S_3
REMARK    3  A    between atoms: C_2  and  C_10
REMARK    4  A    between atoms: S_3  and  C_4
REMARK    5  A    between atoms: N_8  and  C_9
REMARK    6  A    between atoms: C_16  and  C_18
REMARK    7  A    between atoms: C_20  and  N_21
REMARK    8  A    between atoms: C_24  and  O_25
REMARK    9  A    between atoms: C_28  and  C_29
REMARK                            x       y       z     vdW  Elec       q    Type
REMARK                         _______ _______ _______ _____ _____    ______ ____
ROOT
ATOM      1  C   UNL     1      -0.054  11.854  21.097  0.00  0.00    +0.000 A 
ATOM      2  C   UNL     1       0.123  12.756  20.045  0.00  0.00    +0.000 A 
ATOM      3  C   UNL     1       0.733  12.320  18.886  0.00  0.00    +0.000 A 
ATOM      4  N   UNL     1       1.183  11.065  18.704  0.00  0.00    +0.000 NA
ATOM      5  C   UNL     1       1.026  10.177  19.696  0.00  0.00    +0.000 A 
ATOM      6  N   UNL     1       1.509   8.869  19.524  0.00  0.00    +0.000 N 
ATOM      7  C   UNL     1       2.095   8.396  18.356  0.00  0.00    +0.000 C 
ATOM      8  O   UNL     1       2.228   8.994  17.292  0.00  0.00    +0.000 OA
ATOM      9  C   UNL     1       0.410  10.531  20.900  0.00  0.00    +0.000 A 
ATOM     10  H   UNL     1       1.448   8.214  20.292  0.00  0.00    +0.000 HD
ENDROOT
BRANCH   7  11
ATOM     11  C   UNL     1       2.619   6.993  18.446  0.00  0.00    +0.000 A 
ATOM     12  C   UNL     1       3.633   6.582  17.578  0.00  0.00    +0.000 A 
ATOM     13  C   UNL     1       4.193   5.309  17.699  0.00  0.00    +0.000 A 
ATOM     14  C   UNL     1       3.630   4.487  18.681  0.00  0.00    +0.000 A 
ATOM     15  C   UNL     1       2.613   4.951  19.527  0.00  0.00    +0.000 A 
ATOM     16  N   UNL     1       2.094   6.208  19.421  0.00  0.00    +0.000 NA
BRANCH  13  17
ATOM     17  N   UNL     1       5.234   4.870  16.898  0.00  0.00    +0.000 N 
ATOM     18  C   UNL     1       5.131   3.675  16.048  0.00  0.00    +0.000 C 
ATOM     19  C   UNL     1       6.324   3.761  15.099  0.00  0.00    +0.000 C 
ATOM     20  C   UNL     1       6.552   5.256  14.953  0.00  0.00    +0.000 C 
ATOM     21  C   UNL     1       6.238   5.797  16.354  0.00  0.00    +0.000 C 
BRANCH  20  22
ATOM     22  O   UNL     1       7.875   5.543  14.525  0.00  0.00    +0.000 OA
ATOM     23  H   UNL     1       8.484   4.944  14.991  0.00  0.00    +0.000 HD
ENDBRANCH  20  22
ENDBRANCH  13  17
BRANCH  15  24
ATOM     24  C   UNL     1       2.096   4.036  20.631  0.00  0.00    +0.000 C 
ATOM     25  F   UNL     1       0.767   3.748  20.525  0.00  0.00    +0.000 F 
ATOM     26  F   UNL     1       2.730   2.829  20.645  0.00  0.00    +0.000 F 
ATOM     27  F   UNL     1       2.261   4.563  21.877  0.00  0.00    +0.000 F 
ENDBRANCH  15  24
ENDBRANCH   7  11
BRANCH   1  29
ATOM     28  C   UNL     1      -1.530  11.165  23.131  0.00  0.00    +0.000 C 
ATOM     29  C   UNL     1      -0.753  12.268  22.391  0.00  0.00    +0.000 C 
BRANCH  29  30
ATOM     30  S   UNL     1      -1.820  13.747  22.177  0.00  0.00    +0.000 S 
BRANCH  30  31
ATOM     31  C   UNL     1      -1.627  14.532  23.700  0.00  0.00    +0.000 A 
ATOM     32  N   UNL     1      -0.504  14.928  24.246  0.00  0.00    +0.000 NA
ATOM     33  N   UNL     1      -0.803  15.467  25.478  0.00  0.00    +0.000 NA
ATOM     34  C   UNL     1      -2.104  15.394  25.634  0.00  0.00    +0.000 A 
ATOM     35  N   UNL     1      -2.669  14.836  24.528  0.00  0.00    +0.000 N 
ATOM     36  C   UNL     1      -4.070  14.616  24.303  0.00  0.00    +0.000 C 
ENDBRANCH  30  31
ENDBRANCH  29  30
ENDBRANCH   1  29
TORSDOF 7
ENDMDL
MODEL 2
REMARK VINA RESULT:      -8.9      1.555      1.988
REMARK  Name = 
REMARK  9 active torsions:
REMARK  status: ('A' for Active; 'I' for Inactive)
REMARK    1  A    between atoms: C_1  and  C_2
REMARK    2  A    between atoms: C_2  and  S_3
REMARK    3  A    between atoms: C_2  and  C_10
REMARK    4  A    between atoms: S_3  and  C_4
REMARK    5  A    between atoms: N_8  and  C_9
REMARK    6  A    between atoms: C_16  and  C_18
REMARK    7  A    between atoms: C_20  and  N_21
REMARK    8  A    between atoms: C_24  and  O_25
REMARK    9  A    between atoms: C_28  and  C_29
REMARK                            x       y       z     vdW  Elec       q    Type
REMARK                         _______ _______ _______ _____ _____    ______ ____
ROOT
ATOM      1  C   UNL     1      -0.082  11.892  21.182  0.00  0.00    +0.000 A 
ATOM      2  C   UNL     1       0.102  12.798  20.134  0.00  0.00    +0.000 A 
ATOM      3  C   UNL     1       0.714  12.364  18.975  0.00  0.00    +0.000 A 
ATOM      4  N   UNL     1       1.160  11.109  18.790  0.00  0.00    +0.000 NA
ATOM      5  C   UNL     1       0.996  10.217  19.778  0.00  0.00    +0.000 A 
ATOM      6  N   UNL     1       1.476   8.908  19.602  0.00  0.00    +0.000 N 
ATOM      7  C   UNL     1       2.062   8.437  18.434  0.00  0.00    +0.000 C 
ATOM      8  O   UNL     1       2.201   9.039  17.373  0.00  0.00    +0.000 OA
ATOM      9  C   UNL     1       0.378  10.569  20.982  0.00  0.00    +0.000 A 
ATOM     10  H   UNL     1       1.410   8.250  20.367  0.00  0.00    +0.000 HD
ENDROOT
BRANCH   7  11
ATOM     11  C   UNL     1       2.581   7.032  18.521  0.00  0.00    +0.000 A 
ATOM     12  C   UNL     1       3.596   6.621  17.653  0.00  0.00    +0.000 A 
ATOM     13  C   UNL     1       4.151   5.345  17.772  0.00  0.00    +0.000 A 
ATOM     14  C   UNL     1       3.583   4.521  18.749  0.00  0.00    +0.000 A 
ATOM     15  C   UNL     1       2.566   4.987  19.595  0.00  0.00    +0.000 A 
ATOM     16  N   UNL     1       2.052   6.246  19.492  0.00  0.00    +0.000 NA
BRANCH  13  17
ATOM     17  N   UNL     1       5.192   4.905  16.971  0.00  0.00    +0.000 N 
ATOM     18  C   UNL     1       5.107   3.681  16.160  0.00  0.00    +0.000 C 
ATOM     19  C   UNL     1       6.285   3.765  15.194  0.00  0.00    +0.000 C 
ATOM     20  C   UNL     1       6.477   5.259  14.998  0.00  0.00    +0.000 C 
ATOM     21  C   UNL     1       6.168   5.837  16.386  0.00  0.00    +0.000 C 
BRANCH  20  22
ATOM     22  O   UNL     1       7.787   5.564  14.545  0.00  0.00    +0.000 OA
ATOM     23  H   UNL     1       8.394   4.880  14.880  0.00  0.00    +0.000 HD
ENDBRANCH  20  22
ENDBRANCH  13  17
BRANCH  15  24
ATOM     24  C   UNL     1       2.043   4.070  20.694  0.00  0.00    +0.000 C 
ATOM     25  F   UNL     1       0.681   3.996  20.744  0.00  0.00    +0.000 F 
ATOM     26  F   UNL     1       2.472   2.784  20.547  0.00  0.00    +0.000 F 
ATOM     27  F   UNL     1       2.437   4.458  21.940  0.00  0.00    +0.000 F 
ENDBRANCH  15  24
ENDBRANCH   7  11
BRANCH   1  29
ATOM     28  C   UNL     1      -1.638  11.225  23.163  0.00  0.00    +0.000 C 
ATOM     29  C   UNL     1      -0.783  12.304  22.476  0.00  0.00    +0.000 C 
BRANCH  29  30
ATOM     30  S   UNL     1      -1.759  13.849  22.290  0.00  0.00    +0.000 S 
BRANCH  30  31
ATOM     31  C   UNL     1      -3.249  13.240  21.670  0.00  0.00    +0.000 A 
ATOM     32  N   UNL     1      -3.478  12.804  20.457  0.00  0.00    +0.000 NA
ATOM     33  N   UNL     1      -4.807  12.452  20.380  0.00  0.00    +0.000 NA
ATOM     34  C   UNL     1      -5.341  12.674  21.559  0.00  0.00    +0.000 A 
ATOM     35  N   UNL     1      -4.392  13.146  22.412  0.00  0.00    +0.000 N 
ATOM     36  C   UNL     1      -4.575  13.477  23.797  0.00  0.00    +0.000 C 
ENDBRANCH  30  31
ENDBRANCH  29  30
ENDBRANCH   1  29
TORSDOF 7
ENDMDL
MODEL 3
REMARK VINA RESULT:      -8.7      1.547      1.905
REMARK  Name = 
REMARK  9 active torsions:
REMARK  status: ('A' for Active; 'I' for Inactive)
REMARK    1  A    between atoms: C_1  and  C_2
REMARK    2  A    between atoms: C_2  and  S_3
REMARK    3  A    between atoms: C_2  and  C_10
REMARK    4  A    between atoms: S_3  and  C_4
REMARK    5  A    between atoms: N_8  and  C_9
REMARK    6  A    between atoms: C_16  and  C_18
REMARK    7  A    between atoms: C_20  and  N_21
REMARK    8  A    between atoms: C_24  and  O_25
REMARK    9  A    between atoms: C_28  and  C_29
REMARK                            x       y       z     vdW  Elec       q    Type
REMARK                         _______ _______ _______ _____ _____    ______ ____
ROOT
ATOM      1  C   UNL     1      -1.038  11.897  20.114  0.00  0.00    +0.000 A 
ATOM      2  C   UNL     1      -0.377  12.929  19.442  0.00  0.00    +0.000 A 
ATOM      3  C   UNL     1       0.733  12.626  18.679  0.00  0.00    +0.000 A 
ATOM      4  N   UNL     1       1.233  11.385  18.545  0.00  0.00    +0.000 NA
ATOM      5  C   UNL     1       0.619  10.374  19.177  0.00  0.00    +0.000 A 
ATOM      6  N   UNL     1       1.144   9.076  19.060  0.00  0.00    +0.000 N 
ATOM      7  C   UNL     1       2.238   8.740  18.271  0.00  0.00    +0.000 C 
ATOM      8  O   UNL     1       2.871   9.477  17.519  0.00  0.00    +0.000 OA
ATOM      9  C   UNL     1      -0.517  10.589  19.963  0.00  0.00    +0.000 A 
ATOM     10  H   UNL     1       0.721   8.322  19.584  0.00  0.00    +0.000 HD
ENDROOT
BRANCH   7  11
ATOM     11  C   UNL     1       2.669   7.308  18.383  0.00  0.00    +0.000 A 
ATOM     12  C   UNL     1       3.681   6.829  17.548  0.00  0.00    +0.000 A 
ATOM     13  C   UNL     1       4.157   5.524  17.692  0.00  0.00    +0.000 A 
ATOM     14  C   UNL     1       3.513   4.744  18.659  0.00  0.00    +0.000 A 
ATOM     15  C   UNL     1       2.502   5.277  19.471  0.00  0.00    +0.000 A 
ATOM     16  N   UNL     1       2.067   6.563  19.345  0.00  0.00    +0.000 NA
BRANCH  13  17
ATOM     17  N   UNL     1       5.192   5.016  16.924  0.00  0.00    +0.000 N 
ATOM     18  C   UNL     1       5.073   3.765  16.161  0.00  0.00    +0.000 C 
ATOM     19  C   UNL     1       6.267   3.768  15.209  0.00  0.00    +0.000 C 
ATOM     20  C   UNL     1       6.516   5.246  14.959  0.00  0.00    +0.000 C 
ATOM     21  C   UNL     1       6.209   5.889  16.318  0.00  0.00    +0.000 C 
BRANCH  20  22
ATOM     22  O   UNL     1       7.842   5.485  14.514  0.00  0.00    +0.000 OA
ATOM     23  H   UNL     1       8.455   5.230  15.225  0.00  0.00    +0.000 HD
ENDBRANCH  20  22
ENDBRANCH  13  17
BRANCH  15  24
ATOM     24  C   UNL     1       1.896   4.403  20.562  0.00  0.00    +0.000 C 
ATOM     25  F   UNL     1       2.337   4.708  21.817  0.00  0.00    +0.000 F 
ATOM     26  F   UNL     1       0.538   4.508  20.619  0.00  0.00    +0.000 F 
ATOM     27  F   UNL     1       2.164   3.077  20.391  0.00  0.00    +0.000 F 
ENDBRANCH  15  24
ENDBRANCH   7  11
BRANCH   1  29
ATOM     28  C   UNL     1      -3.501  12.741  20.192  0.00  0.00    +0.000 C 
ATOM     29  C   UNL     1      -2.291  12.164  20.946  0.00  0.00    +0.000 C 
BRANCH  29  30
ATOM     30  S   UNL     1      -1.946  13.176  22.439  0.00  0.00    +0.000 S 
BRANCH  30  31
ATOM     31  C   UNL     1      -3.385  12.931  23.358  0.00  0.00    +0.000 A 
ATOM     32  N   UNL     1      -3.710  11.863  24.044  0.00  0.00    +0.000 NA
ATOM     33  N   UNL     1      -4.957  12.076  24.588  0.00  0.00    +0.000 NA
ATOM     34  C   UNL     1      -5.344  13.278  24.226  0.00  0.00    +0.000 A 
ATOM     35  N   UNL     1      -4.375  13.864  23.472  0.00  0.00    +0.000 N 
ATOM     36  C   UNL     1      -4.408  15.188  22.916  0.00  0.00    +0.000 C 
ENDBRANCH  30  31
ENDBRANCH  29  30
ENDBRANCH   1  29
TORSDOF 7
ENDMDL
MODEL 4
REMARK VINA RESULT:      -8.7      6.770      8.270
REMARK  Name = 
REMARK  9 active torsions:
REMARK  status: ('A' for Active; 'I' for Inactive)
REMARK    1  A    between atoms: C_1  and  C_2
REMARK    2  A    between atoms: C_2  and  S_3
REMARK    3  A    between atoms: C_2  and  C_10
REMARK    4  A    between atoms: S_3  and  C_4
REMARK    5  A    between atoms: N_8  and  C_9
REMARK    6  A    between atoms: C_16  and  C_18
REMARK    7  A    between atoms: C_20  and  N_21
REMARK    8  A    between atoms: C_24  and  O_25
REMARK    9  A    between atoms: C_28  and  C_29
REMARK                            x       y       z     vdW  Elec       q    Type
REMARK                         _______ _______ _______ _____ _____    ______ ____
ROOT
ATOM      1  C   UNL     1       8.967  11.924  18.081  0.00  0.00    +0.000 A 
ATOM      2  C   UNL     1       9.748  11.644  19.205  0.00  0.00    +0.000 A 
ATOM      3  C   UNL     1       9.775  10.354  19.697  0.00  0.00    +0.000 A 
ATOM      4  N   UNL     1       9.080   9.335  19.162  0.00  0.00    +0.000 NA
ATOM      5  C   UNL     1       8.321   9.573  18.082  0.00  0.00    +0.000 A 
ATOM      6  N   UNL     1       7.576   8.520  17.526  0.00  0.00    +0.000 N 
ATOM      7  C   UNL     1       7.613   7.207  17.980  0.00  0.00    +0.000 C 
ATOM      8  O   UNL     1       8.323   6.744  18.868  0.00  0.00    +0.000 OA
ATOM      9  C   UNL     1       8.243  10.848  17.512  0.00  0.00    +0.000 A 
ATOM     10  H   UNL     1       6.955   8.708  16.750  0.00  0.00    +0.000 HD
ENDROOT
BRANCH   7  11
ATOM     11  C   UNL     1       6.656   6.282  17.287  0.00  0.00    +0.000 A 
ATOM     12  C   UNL     1       5.438   5.972  17.897  0.00  0.00    +0.000 A 
ATOM     13  C   UNL     1       4.498   5.181  17.233  0.00  0.00    +0.000 A 
ATOM     14  C   UNL     1       4.890   4.688  15.984  0.00  0.00    +0.000 A 
ATOM     15  C   UNL     1       6.126   5.032  15.418  0.00  0.00    +0.000 A 
ATOM     16  N   UNL     1       7.024   5.832  16.060  0.00  0.00    +0.000 NA
BRANCH  13  17
ATOM     17  N   UNL     1       3.256   4.886  17.770  0.00  0.00    +0.000 N 
ATOM     18  C   UNL     1       2.487   3.694  17.383  0.00  0.00    +0.000 C 
ATOM     19  C   UNL     1       1.393   3.569  18.440  0.00  0.00    +0.000 C 
ATOM     20  C   UNL     1       2.030   4.169  19.681  0.00  0.00    +0.000 C 
ATOM     21  C   UNL     1       2.872   5.324  19.121  0.00  0.00    +0.000 C 
BRANCH  20  22
ATOM     22  O   UNL     1       1.052   4.594  20.618  0.00  0.00    +0.000 OA
ATOM     23  H   UNL     1       1.508   4.904  21.419  0.00  0.00    +0.000 HD
ENDBRANCH  20  22
ENDBRANCH  13  17
BRANCH  15  24
ATOM     24  C   UNL     1       6.462   4.530  14.019  0.00  0.00    +0.000 C 
ATOM     25  F   UNL     1       7.520   5.172  13.446  0.00  0.00    +0.000 F 
ATOM     26  F   UNL     1       6.790   3.206  14.006  0.00  0.00    +0.000 F 
ATOM     27  F   UNL     1       5.427   4.670  13.142  0.00  0.00    +0.000 F 
ENDBRANCH  15  24
ENDBRANCH   7  11
BRANCH   1  29
ATOM     28  C   UNL     1      10.128  14.234  17.763  0.00  0.00    +0.000 C 
ATOM     29  C   UNL     1       8.923  13.323  17.471  0.00  0.00    +0.000 C 
BRANCH  29  30
ATOM     30  S   UNL     1       7.362  14.214  17.854  0.00  0.00    +0.000 S 
BRANCH  30  31
ATOM     31  C   UNL     1       7.748  14.946  19.367  0.00  0.00    +0.000 A 
ATOM     32  N   UNL     1       7.856  14.348  20.528  0.00  0.00    +0.000 NA
ATOM     33  N   UNL     1       8.136  15.310  21.472  0.00  0.00    +0.000 NA
ATOM     34  C   UNL     1       8.204  16.464  20.849  0.00  0.00    +0.000 A 
ATOM     35  N   UNL     1       7.992  16.281  19.518  0.00  0.00    +0.000 N 
ATOM     36  C   UNL     1       8.018  17.294  18.500  0.00  0.00    +0.000 C 
ENDBRANCH  30  31
ENDBRANCH  29  30
ENDBRANCH   1  29
TORSDOF 7
ENDMDL
MODEL 5
REMARK VINA RESULT:      -8.7      6.318      8.245
REMARK  Name = 
REMARK  9 active torsions:
REMARK  status: ('A' for Active; 'I' for Inactive)
REMARK    1  A    between atoms: C_1  and  C_2
REMARK    2  A    between atoms: C_2  and  S_3
REMARK    3  A    between atoms: C_2  and  C_10
REMARK    4  A    between atoms: S_3  and  C_4
REMARK    5  A    between atoms: N_8  and  C_9
REMARK    6  A    between atoms: C_16  and  C_18
REMARK    7  A    between atoms: C_20  and  N_21
REMARK    8  A    between atoms: C_24  and  O_25
REMARK    9  A    between atoms: C_28  and  C_29
REMARK                            x       y       z     vdW  Elec       q    Type
REMARK                         _______ _______ _______ _____ _____    ______ ____
ROOT
ATOM      1  C   UNL     1       9.298  11.877  18.177  0.00  0.00    +0.000 A 
ATOM      2  C   UNL     1       9.954  11.599  19.379  0.00  0.00    +0.000 A 
ATOM      3  C   UNL     1       9.855  10.332  19.918  0.00  0.00    +0.000 A 
ATOM      4  N   UNL     1       9.148   9.334  19.358  0.00  0.00    +0.000 NA
ATOM      5  C   UNL     1       8.508   9.571  18.204  0.00  0.00    +0.000 A 
ATOM      6  N   UNL     1       7.751   8.541  17.620  0.00  0.00    +0.000 N 
ATOM      7  C   UNL     1       7.664   7.249  18.123  0.00  0.00    +0.000 C 
ATOM      8  O   UNL     1       8.259   6.782  19.091  0.00  0.00    +0.000 OA
ATOM      9  C   UNL     1       8.563  10.822  17.583  0.00  0.00    +0.000 A 
ATOM     10  H   UNL     1       7.217   8.733  16.782  0.00  0.00    +0.000 HD
ENDROOT
BRANCH   7  11
ATOM     11  C   UNL     1       6.718   6.353  17.378  0.00  0.00    +0.000 A 
ATOM     12  C   UNL     1       5.482   6.037  17.946  0.00  0.00    +0.000 A 
ATOM     13  C   UNL     1       4.553   5.274  17.235  0.00  0.00    +0.000 A 
ATOM     14  C   UNL     1       4.973   4.815  15.982  0.00  0.00    +0.000 A 
ATOM     15  C   UNL     1       6.226   5.164  15.460  0.00  0.00    +0.000 A 
ATOM     16  N   UNL     1       7.114   5.937  16.149  0.00  0.00    +0.000 NA
BRANCH  13  17
ATOM     17  N   UNL     1       3.295   4.975  17.731  0.00  0.00    +0.000 N 
ATOM     18  C   UNL     1       2.553   3.768  17.336  0.00  0.00    +0.000 C 
ATOM     19  C   UNL     1       1.422   3.649  18.353  0.00  0.00    +0.000 C 
ATOM     20  C   UNL     1       2.005   4.278  19.607  0.00  0.00    +0.000 C 
ATOM     21  C   UNL     1       2.855   5.432  19.058  0.00  0.00    +0.000 C 
BRANCH  20  22
ATOM     22  O   UNL     1       0.988   4.708  20.499  0.00  0.00    +0.000 OA
ATOM     23  H   UNL     1       0.898   4.044  21.204  0.00  0.00    +0.000 HD
ENDBRANCH  20  22
ENDBRANCH  13  17
BRANCH  15  24
ATOM     24  C   UNL     1       6.595   4.700  14.055  0.00  0.00    +0.000 C 
ATOM     25  F   UNL     1       7.689   5.332  13.539  0.00  0.00    +0.000 F 
ATOM     26  F   UNL     1       6.887   3.370  14.006  0.00  0.00    +0.000 F 
ATOM     27  F   UNL     1       5.594   4.900  13.151  0.00  0.00    +0.000 F 
ENDBRANCH  15  24
ENDBRANCH   7  11
BRANCH   1  29
ATOM     28  C   UNL     1      10.702  13.547  16.754  0.00  0.00    +0.000 C 
ATOM     29  C   UNL     1       9.398  13.249  17.514  0.00  0.00    +0.000 C 
BRANCH  29  30
ATOM     30  S   UNL     1       9.025  14.624  18.673  0.00  0.00    +0.000 S 
BRANCH  30  31
ATOM     31  C   UNL     1       7.315  14.763  18.501  0.00  0.00    +0.000 A 
ATOM     32  N   UNL     1       6.570  14.223  17.568  0.00  0.00    +0.000 NA
ATOM     33  N   UNL     1       5.270  14.623  17.784  0.00  0.00    +0.000 NA
ATOM     34  C   UNL     1       5.265  15.384  18.853  0.00  0.00    +0.000 A 
ATOM     35  N   UNL     1       6.527  15.480  19.355  0.00  0.00    +0.000 N 
ATOM     36  C   UNL     1       6.926  16.196  20.534  0.00  0.00    +0.000 C 
ENDBRANCH  30  31
ENDBRANCH  29  30
ENDBRANCH   1  29
TORSDOF 7
ENDMDL
MODEL 6
REMARK VINA RESULT:      -8.6      3.157      4.522
REMARK  Name = 
REMARK  9 active torsions:
REMARK  status: ('A' for Active; 'I' for Inactive)
REMARK    1  A    between atoms: C_1  and  C_2
REMARK    2  A    between atoms: C_2  and  S_3
REMARK    3  A    between atoms: C_2  and  C_10
REMARK    4  A    between atoms: S_3  and  C_4
REMARK    5  A    between atoms: N_8  and  C_9
REMARK    6  A    between atoms: C_16  and  C_18
REMARK    7  A    between atoms: C_20  and  N_21
REMARK    8  A    between atoms: C_24  and  O_25
REMARK    9  A    between atoms: C_28  and  C_29
REMARK                            x       y       z     vdW  Elec       q    Type
REMARK                         _______ _______ _______ _____ _____    ______ ____
ROOT
ATOM      1  C   UNL     1      -1.920  12.047  19.326  0.00  0.00    +0.000 A 
ATOM      2  C   UNL     1      -1.219  13.227  19.060  0.00  0.00    +0.000 A 
ATOM      3  C   UNL     1       0.088  13.144  18.625  0.00  0.00    +0.000 A 
ATOM      4  N   UNL     1       0.744  11.984  18.445  0.00  0.00    +0.000 NA
ATOM      5  C   UNL     1       0.097  10.835  18.691  0.00  0.00    +0.000 A 
ATOM      6  N   UNL     1       0.779   9.618  18.525  0.00  0.00    +0.000 N 
ATOM      7  C   UNL     1       2.082   9.506  18.055  0.00  0.00    +0.000 C 
ATOM      8  O   UNL     1       2.813  10.410  17.657  0.00  0.00    +0.000 OA
ATOM      9  C   UNL     1      -1.232  10.827  19.126  0.00  0.00    +0.000 A 
ATOM     10  H   UNL     1       0.315   8.753  18.769  0.00  0.00    +0.000 HD
ENDROOT
BRANCH   7  11
ATOM     11  C   UNL     1       2.626   8.108  18.056  0.00  0.00    +0.000 A 
ATOM     12  C   UNL     1       1.983   7.122  18.808  0.00  0.00    +0.000 A 
ATOM     13  C   UNL     1       2.422   5.798  18.757  0.00  0.00    +0.000 A 
ATOM     14  C   UNL     1       3.556   5.561  17.974  0.00  0.00    +0.000 A 
ATOM     15  C   UNL     1       4.162   6.589  17.237  0.00  0.00    +0.000 A 
ATOM     16  N   UNL     1       3.706   7.874  17.268  0.00  0.00    +0.000 NA
BRANCH  13  17
ATOM     17  N   UNL     1       1.790   4.774  19.443  0.00  0.00    +0.000 N 
ATOM     18  C   UNL     1       1.352   3.532  18.789  0.00  0.00    +0.000 C 
ATOM     19  C   UNL     1       1.048   2.569  19.933  0.00  0.00    +0.000 C 
ATOM     20  C   UNL     1       1.998   3.012  21.032  0.00  0.00    +0.000 C 
ATOM     21  C   UNL     1       2.027   4.539  20.876  0.00  0.00    +0.000 C 
BRANCH  20  22
ATOM     22  O   UNL     1       1.554   2.588  22.311  0.00  0.00    +0.000 OA
ATOM     23  H   UNL     1       1.037   1.771  22.201  0.00  0.00    +0.000 HD
ENDBRANCH  20  22
ENDBRANCH  13  17
BRANCH  15  24
ATOM     24  C   UNL     1       5.346   6.253  16.338  0.00  0.00    +0.000 C 
ATOM     25  F   UNL     1       5.776   4.964  16.458  0.00  0.00    +0.000 F 
ATOM     26  F   UNL     1       5.058   6.419  15.016  0.00  0.00    +0.000 F 
ATOM     27  F   UNL     1       6.438   7.031  16.586  0.00  0.00    +0.000 F 
ENDBRANCH  15  24
ENDBRANCH   7  11
BRANCH   1  29
ATOM     28  C   UNL     1      -4.435  11.799  18.693  0.00  0.00    +0.000 C 
ATOM     29  C   UNL     1      -3.379  12.073  19.778  0.00  0.00    +0.000 C 
BRANCH  29  30
ATOM     30  S   UNL     1      -3.809  13.607  20.693  0.00  0.00    +0.000 S 
BRANCH  30  31
ATOM     31  C   UNL     1      -4.195  12.979  22.252  0.00  0.00    +0.000 A 
ATOM     32  N   UNL     1      -5.381  12.650  22.698  0.00  0.00    +0.000 NA
ATOM     33  N   UNL     1      -5.239  12.233  24.003  0.00  0.00    +0.000 NA
ATOM     34  C   UNL     1      -3.964  12.310  24.304  0.00  0.00    +0.000 A 
ATOM     35  N   UNL     1      -3.263  12.750  23.224  0.00  0.00    +0.000 N 
ATOM     36  C   UNL     1      -1.841  12.934  23.145  0.00  0.00    +0.000 C 
ENDBRANCH  30  31
ENDBRANCH  29  30
ENDBRANCH   1  29
TORSDOF 7
ENDMDL
MODEL 7
REMARK VINA RESULT:      -8.6      6.964      8.347
REMARK  Name = 
REMARK  9 active torsions:
REMARK  status: ('A' for Active; 'I' for Inactive)
REMARK    1  A    between atoms: C_1  and  C_2
REMARK    2  A    between atoms: C_2  and  S_3
REMARK    3  A    between atoms: C_2  and  C_10
REMARK    4  A    between atoms: S_3  and  C_4
REMARK    5  A    between atoms: N_8  and  C_9
REMARK    6  A    between atoms: C_16  and  C_18
REMARK    7  A    between atoms: C_20  and  N_21
REMARK    8  A    between atoms: C_24  and  O_25
REMARK    9  A    between atoms: C_28  and  C_29
REMARK                            x       y       z     vdW  Elec       q    Type
REMARK                         _______ _______ _______ _____ _____    ______ ____
ROOT
ATOM      1  C   UNL     1       8.921  11.902  18.050  0.00  0.00    +0.000 A 
ATOM      2  C   UNL     1       9.667  11.699  19.214  0.00  0.00    +0.000 A 
ATOM      3  C   UNL     1       9.723  10.432  19.760  0.00  0.00    +0.000 A 
ATOM      4  N   UNL     1       9.089   9.365  19.241  0.00  0.00    +0.000 NA
ATOM      5  C   UNL     1       8.366   9.529  18.123  0.00  0.00    +0.000 A 
ATOM      6  N   UNL     1       7.684   8.426  17.584  0.00  0.00    +0.000 N 
ATOM      7  C   UNL     1       7.752   7.135  18.093  0.00  0.00    +0.000 C 
ATOM      8  O   UNL     1       8.443   6.736  19.027  0.00  0.00    +0.000 OA
ATOM      9  C   UNL     1       8.263  10.776  17.499  0.00  0.00    +0.000 A 
ATOM     10  H   UNL     1       7.089   8.558  16.777  0.00  0.00    +0.000 HD
ENDROOT
BRANCH   7  11
ATOM     11  C   UNL     1       6.860   6.145  17.403  0.00  0.00    +0.000 A 
ATOM     12  C   UNL     1       5.753   5.630  18.081  0.00  0.00    +0.000 A 
ATOM     13  C   UNL     1       4.863   4.773  17.430  0.00  0.00    +0.000 A 
ATOM     14  C   UNL     1       5.197   4.433  16.115  0.00  0.00    +0.000 A 
ATOM     15  C   UNL     1       6.321   4.981  15.482  0.00  0.00    +0.000 A 
ATOM     16  N   UNL     1       7.167   5.843  16.116  0.00  0.00    +0.000 NA
BRANCH  13  17
ATOM     17  N   UNL     1       3.724   4.275  18.040  0.00  0.00    +0.000 N 
ATOM     18  C   UNL     1       2.427   4.966  17.985  0.00  0.00    +0.000 C 
ATOM     19  C   UNL     1       1.408   3.932  18.456  0.00  0.00    +0.000 C 
ATOM     20  C   UNL     1       2.022   2.610  18.029  0.00  0.00    +0.000 C 
ATOM     21  C   UNL     1       3.525   2.833  18.250  0.00  0.00    +0.000 C 
BRANCH  20  22
ATOM     22  O   UNL     1       1.501   1.524  18.780  0.00  0.00    +0.000 OA
ATOM     23  H   UNL     1       1.153   1.872  19.620  0.00  0.00    +0.000 HD
ENDBRANCH  20  22
ENDBRANCH  13  17
BRANCH  15  24
ATOM     24  C   UNL     1       6.587   4.636  14.022  0.00  0.00    +0.000 C 
ATOM     25  F   UNL     1       5.545   4.929  13.191  0.00  0.00    +0.000 F 
ATOM     26  F   UNL     1       7.658   5.309  13.514  0.00  0.00    +0.000 F 
ATOM     27  F   UNL     1       6.849   3.312  13.829  0.00  0.00    +0.000 F 
ENDBRANCH  15  24
ENDBRANCH   7  11
BRANCH   1  29
ATOM     28  C   UNL     1      10.046  14.211  17.614  0.00  0.00    +0.000 C 
ATOM     29  C   UNL     1       8.849  13.273  17.380  0.00  0.00    +0.000 C 
BRANCH  29  30
ATOM     30  S   UNL     1       7.282  14.158  17.747  0.00  0.00    +0.000 S 
BRANCH  30  31
ATOM     31  C   UNL     1       7.853  15.494  18.676  0.00  0.00    +0.000 A 
ATOM     32  N   UNL     1       8.166  16.686  18.233  0.00  0.00    +0.000 NA
ATOM     33  N   UNL     1       8.613  17.428  19.303  0.00  0.00    +0.000 NA
ATOM     34  C   UNL     1       8.543  16.665  20.369  0.00  0.00    +0.000 A 
ATOM     35  N   UNL     1       8.045  15.445  20.027  0.00  0.00    +0.000 N 
ATOM     36  C   UNL     1       7.790  14.347  20.917  0.00  0.00    +0.000 C 
ENDBRANCH  30  31
ENDBRANCH  29  30
ENDBRANCH   1  29
TORSDOF 7
ENDMDL
MODEL 8
REMARK VINA RESULT:      -8.6      1.476      1.556
REMARK  Name = 
REMARK  9 active torsions:
REMARK  status: ('A' for Active; 'I' for Inactive)
REMARK    1  A    between atoms: C_1  and  C_2
REMARK    2  A    between atoms: C_2  and  S_3
REMARK    3  A    between atoms: C_2  and  C_10
REMARK    4  A    between atoms: S_3  and  C_4
REMARK    5  A    between atoms: N_8  and  C_9
REMARK    6  A    between atoms: C_16  and  C_18
REMARK    7  A    between atoms: C_20  and  N_21
REMARK    8  A    between atoms: C_24  and  O_25
REMARK    9  A    between atoms: C_28  and  C_29
REMARK                            x       y       z     vdW  Elec       q    Type
REMARK                         _______ _______ _______ _____ _____    ______ ____
ROOT
ATOM      1  C   UNL     1      -0.921  12.094  20.764  0.00  0.00    +0.000 A 
ATOM      2  C   UNL     1      -0.704  13.011  19.732  0.00  0.00    +0.000 A 
ATOM      3  C   UNL     1       0.088  12.640  18.664  0.00  0.00    +0.000 A 
ATOM      4  N   UNL     1       0.682  11.439  18.555  0.00  0.00    +0.000 NA
ATOM      5  C   UNL     1       0.491  10.538  19.529  0.00  0.00    +0.000 A 
ATOM      6  N   UNL     1       1.122   9.286  19.435  0.00  0.00    +0.000 N 
ATOM      7  C   UNL     1       1.895   8.876  18.355  0.00  0.00    +0.000 C 
ATOM      8  O   UNL     1       2.101   9.487  17.309  0.00  0.00    +0.000 OA
ATOM      9  C   UNL     1      -0.305  10.825  20.643  0.00  0.00    +0.000 A 
ATOM     10  H   UNL     1       1.031   8.627  20.196  0.00  0.00    +0.000 HD
ENDROOT
BRANCH   7  11
ATOM     11  C   UNL     1       2.543   7.534  18.527  0.00  0.00    +0.000 A 
ATOM     12  C   UNL     1       3.745   7.263  17.869  0.00  0.00    +0.000 A 
ATOM     13  C   UNL     1       4.408   6.052  18.081  0.00  0.00    +0.000 A 
ATOM     14  C   UNL     1       3.759   5.141  18.920  0.00  0.00    +0.000 A 
ATOM     15  C   UNL     1       2.552   5.466  19.556  0.00  0.00    +0.000 A 
ATOM     16  N   UNL     1       1.929   6.664  19.369  0.00  0.00    +0.000 NA
BRANCH  13  17
ATOM     17  N   UNL     1       5.626   5.754  17.494  0.00  0.00    +0.000 N 
ATOM     18  C   UNL     1       6.470   4.636  17.940  0.00  0.00    +0.000 C 
ATOM     19  C   UNL     1       7.502   4.451  16.831  0.00  0.00    +0.000 C 
ATOM     20  C   UNL     1       6.764   4.905  15.582  0.00  0.00    +0.000 C 
ATOM     21  C   UNL     1       5.908   6.075  16.086  0.00  0.00    +0.000 C 
BRANCH  20  22
ATOM     22  O   UNL     1       7.663   5.274  14.549  0.00  0.00    +0.000 OA
ATOM     23  H   UNL     1       8.487   4.767  14.662  0.00  0.00    +0.000 HD
ENDBRANCH  20  22
ENDBRANCH  13  17
BRANCH  15  24
ATOM     24  C   UNL     1       1.935   4.463  20.523  0.00  0.00    +0.000 C 
ATOM     25  F   UNL     1       0.580   4.580  20.644  0.00  0.00    +0.000 F 
ATOM     26  F   UNL     1       2.156   3.172  20.146  0.00  0.00    +0.000 F 
ATOM     27  F   UNL     1       2.428   4.574  21.789  0.00  0.00    +0.000 F 
ENDBRANCH  15  24
ENDBRANCH   7  11
BRANCH   1  29
ATOM     28  C   UNL     1      -1.813  11.428  23.120  0.00  0.00    +0.000 C 
ATOM     29  C   UNL     1      -1.816  12.433  21.955  0.00  0.00    +0.000 C 
BRANCH  29  30
ATOM     30  S   UNL     1      -3.545  12.806  21.458  0.00  0.00    +0.000 S 
BRANCH  30  31
ATOM     31  C   UNL     1      -3.906  14.160  22.463  0.00  0.00    +0.000 A 
ATOM     32  N   UNL     1      -3.647  15.419  22.212  0.00  0.00    +0.000 NA
ATOM     33  N   UNL     1      -4.066  16.158  23.296  0.00  0.00    +0.000 NA
ATOM     34  C   UNL     1      -4.580  15.322  24.168  0.00  0.00    +0.000 A 
ATOM     35  N   UNL     1      -4.525  14.054  23.675  0.00  0.00    +0.000 N 
ATOM     36  C   UNL     1      -5.015  12.866  24.316  0.00  0.00    +0.000 C 
ENDBRANCH  30  31
ENDBRANCH  29  30
ENDBRANCH   1  29
TORSDOF 7
ENDMDL
MODEL 9
REMARK VINA RESULT:      -8.5      3.076      4.377
REMARK  Name = 
REMARK  9 active torsions:
REMARK  status: ('A' for Active; 'I' for Inactive)
REMARK    1  A    between atoms: C_1  and  C_2
REMARK    2  A    between atoms: C_2  and  S_3
REMARK    3  A    between atoms: C_2  and  C_10
REMARK    4  A    between atoms: S_3  and  C_4
REMARK    5  A    between atoms: N_8  and  C_9
REMARK    6  A    between atoms: C_16  and  C_18
REMARK    7  A    between atoms: C_20  and  N_21
REMARK    8  A    between atoms: C_24  and  O_25
REMARK    9  A    between atoms: C_28  and  C_29
REMARK                            x       y       z     vdW  Elec       q    Type
REMARK                         _______ _______ _______ _____ _____    ______ ____
ROOT
ATOM      1  C   UNL     1      -1.344  12.211  20.199  0.00  0.00    +0.000 A 
ATOM      2  C   UNL     1      -0.722  13.350  19.681  0.00  0.00    +0.000 A 
ATOM      3  C   UNL     1       0.423  13.201  18.925  0.00  0.00    +0.000 A 
ATOM      4  N   UNL     1       0.994  12.012  18.658  0.00  0.00    +0.000 NA
ATOM      5  C   UNL     1       0.419  10.902  19.142  0.00  0.00    +0.000 A 
ATOM      6  N   UNL     1       1.017   9.657  18.885  0.00  0.00    +0.000 N 
ATOM      7  C   UNL     1       2.149   9.476  18.099  0.00  0.00    +0.000 C 
ATOM      8  O   UNL     1       2.761  10.331  17.464  0.00  0.00    +0.000 OA
ATOM      9  C   UNL     1      -0.748  10.960  19.909  0.00  0.00    +0.000 A 
ATOM     10  H   UNL     1       0.622   8.823  19.299  0.00  0.00    +0.000 HD
ENDROOT
BRANCH   7  11
ATOM     11  C   UNL     1       2.655   8.065  18.051  0.00  0.00    +0.000 A 
ATOM     12  C   UNL     1       2.047   7.091  18.846  0.00  0.00    +0.000 A 
ATOM     13  C   UNL     1       2.446   5.756  18.755  0.00  0.00    +0.000 A 
ATOM     14  C   UNL     1       3.511   5.496  17.886  0.00  0.00    +0.000 A 
ATOM     15  C   UNL     1       4.084   6.513  17.109  0.00  0.00    +0.000 A 
ATOM     16  N   UNL     1       3.665   7.809  17.181  0.00  0.00    +0.000 NA
BRANCH  13  17
ATOM     17  N   UNL     1       1.844   4.744  19.483  0.00  0.00    +0.000 N 
ATOM     18  C   UNL     1       1.370   3.496  18.866  0.00  0.00    +0.000 C 
ATOM     19  C   UNL     1       1.116   2.548  20.035  0.00  0.00    +0.000 C 
ATOM     20  C   UNL     1       2.119   3.001  21.083  0.00  0.00    +0.000 C 
ATOM     21  C   UNL     1       2.146   4.526  20.906  0.00  0.00    +0.000 C 
BRANCH  20  22
ATOM     22  O   UNL     1       1.733   2.596  22.386  0.00  0.00    +0.000 OA
ATOM     23  H   UNL     1       2.319   1.872  22.669  0.00  0.00    +0.000 HD
ENDBRANCH  20  22
ENDBRANCH  13  17
BRANCH  15  24
ATOM     24  C   UNL     1       5.186   6.154  16.120  0.00  0.00    +0.000 C 
ATOM     25  F   UNL     1       5.017   6.711  14.885  0.00  0.00    +0.000 F 
ATOM     26  F   UNL     1       6.416   6.565  16.539  0.00  0.00    +0.000 F 
ATOM     27  F   UNL     1       5.290   4.812  15.906  0.00  0.00    +0.000 F 
ENDBRANCH  15  24
ENDBRANCH   7  11
BRANCH   1  29
ATOM     28  C   UNL     1      -3.900  12.714  20.243  0.00  0.00    +0.000 C 
ATOM     29  C   UNL     1      -2.632  12.309  21.015  0.00  0.00    +0.000 C 
BRANCH  29  30
ATOM     30  S   UNL     1      -2.447  13.365  22.506  0.00  0.00    +0.000 S 
BRANCH  30  31
ATOM     31  C   UNL     1      -3.913  13.027  23.349  0.00  0.00    +0.000 A 
ATOM     32  N   UNL     1      -4.181  11.968  24.071  0.00  0.00    +0.000 NA
ATOM     33  N   UNL     1      -5.475  12.087  24.527  0.00  0.00    +0.000 NA
ATOM     34  C   UNL     1      -5.948  13.225  24.077  0.00  0.00    +0.000 A 
ATOM     35  N   UNL     1      -4.991  13.865  23.351  0.00  0.00    +0.000 N 
ATOM     36  C   UNL     1      -5.112  15.151  22.722  0.00  0.00    +0.000 C 
ENDBRANCH  30  31
ENDBRANCH  29  30
ENDBRANCH   1  29
TORSDOF 7
ENDMDL
