MODEL 1
REMARK VINA RESULT:      -9.6      0.000      0.000
REMARK  Name = 
REMARK  10 active torsions:
REMARK  status: ('A' for Active; 'I' for Inactive)
REMARK    1  A    between atoms: C_1  and  C_2
REMARK    2  A    between atoms: C_2  and  C_3
REMARK    3  A    between atoms: C_2  and  C_10
REMARK    4  A    between atoms: C_3  and  C_4
REMARK    5  A    between atoms: N_8  and  C_9
REMARK    6  A    between atoms: C_14  and  N_15
REMARK    7  A    between atoms: C_20  and  C_21
REMARK    8  A    between atoms: C_21  and  N_22
REMARK    9  A    between atoms: C_26  and  O_27
REMARK   10  A    between atoms: C_30  and  C_31
REMARK                            x       y       z     vdW  Elec       q    Type
REMARK                         _______ _______ _______ _____ _____    ______ ____
ROOT
ATOM      1  N   UNL     1       2.133   7.655  19.294  0.00  0.00    +0.000 N 
ATOM      2  C   UNL     1       1.484   7.997  20.534  0.00  0.00    +0.000 C 
ATOM      3  C   UNL     1       0.945   9.354  20.331  0.00  0.00    +0.000 A 
ATOM      4  C   UNL     1       1.260   9.805  19.051  0.00  0.00    +0.000 A 
ATOM      5  C   UNL     1       0.869  11.077  18.652  0.00  0.00    +0.000 A 
ATOM      6  C   UNL     1       0.168  11.887  19.583  0.00  0.00    +0.000 A 
ATOM      7  C   UNL     1      -0.137  11.384  20.874  0.00  0.00    +0.000 A 
ATOM      8  C   UNL     1       0.236  10.099  21.266  0.00  0.00    +0.000 A 
ATOM      9  C   UNL     1       2.009   8.697  18.358  0.00  0.00    +0.000 C 
ATOM     10  O   UNL     1       2.398   8.762  17.209  0.00  0.00    +0.000 OA
ENDROOT
BRANCH   1  15
ATOM     11  C   UNL     1       4.525   5.006  18.118  0.00  0.00    +0.000 A 
ATOM     12  C   UNL     1       4.137   3.919  18.891  0.00  0.00    +0.000 A 
ATOM     13  C   UNL     1       3.061   4.044  19.794  0.00  0.00    +0.000 A 
ATOM     14  C   UNL     1       2.361   5.259  19.961  0.00  0.00    +0.000 A 
ATOM     15  C   UNL     1       2.716   6.358  19.195  0.00  0.00    +0.000 A 
ATOM     16  C   UNL     1       3.765   6.177  18.262  0.00  0.00    +0.000 A 
BRANCH  11  18
ATOM     17  C   UNL     1       7.019   4.831  17.924  0.00  0.00    +0.000 C 
ATOM     18  C   UNL     1       5.706   5.078  17.140  0.00  0.00    +0.000 C 
BRANCH  18  19
ATOM     19  C   UNL     1       5.638   4.168  15.895  0.00  0.00    +0.000 C 
BRANCH  19  20
ATOM     20  C   UNL     1       6.582   4.617  14.814  0.00  0.00    +0.000 A 
ATOM     21  N   UNL     1       7.607   5.430  14.980  0.00  0.00    +0.000 NA
ATOM     22  N   UNL     1       8.220   5.614  13.764  0.00  0.00    +0.000 NA
ATOM     23  C   UNL     1       7.558   4.911  12.876  0.00  0.00    +0.000 A 
ATOM     24  N   UNL     1       6.534   4.257  13.490  0.00  0.00    +0.000 N 
ATOM     25  C   UNL     1       5.611   3.367  12.839  0.00  0.00    +0.000 C 
ENDBRANCH  19  20
ENDBRANCH  18  19
ENDBRANCH  11  18
ENDBRANCH   1  15
BRANCH   8  26
ATOM     26  C   UNL     1      -0.122   9.566  22.629  0.00  0.00    +0.000 C 
ATOM     27  F   UNL     1      -0.910   8.453  22.597  0.00  0.00    +0.000 F 
ATOM     28  F   UNL     1       0.970   9.218  23.360  0.00  0.00    +0.000 F 
ATOM     29  F   UNL     1      -0.811  10.471  23.374  0.00  0.00    +0.000 F 
ENDBRANCH   8  26
BRANCH   6  30
ATOM     30  C   UNL     1      -0.329  13.286  19.258  0.00  0.00    +0.000 C 
BRANCH  30  31
ATOM     31  N   UNL     1       0.764  14.229  18.977  0.00  0.00    +0.000 NA
ATOM     32  C   UNL     1       0.300  15.606  18.736  0.00  0.00    +0.000 C 
ATOM     33  C   UNL     1       1.420  16.513  19.225  0.00  0.00    +0.000 C 
ATOM     34  F   UNL     1       2.360  16.660  18.248  0.00  0.00    +0.000 F 
ATOM     35  C   UNL     1       2.030  15.745  20.384  0.00  0.00    +0.000 C 
ATOM     36  C   UNL     1       1.778  14.274  20.042  0.00  0.00    +0.000 C 
BRANCH  35  37
ATOM     37  O   UNL     1       3.416  16.038  20.532  0.00  0.00    +0.000 OA
ATOM     38  H   UNL     1       3.616  15.919  21.479  0.00  0.00    +0.000 HD
ENDBRANCH  35  37
ENDBRANCH  30  31
ENDBRANCH   6  30
TORSDOF 8
ENDMDL
MODEL 2
REMARK VINA RESULT:      -9.5      3.696      9.411
REMARK  Name = 
REMARK  10 active torsions:
REMARK  status: ('A' for Active; 'I' for Inactive)
REMARK    1  A    between atoms: C_1  and  C_2
REMARK    2  A    between atoms: C_2  and  C_3
REMARK    3  A    between atoms: C_2  and  C_10
REMARK    4  A    between atoms: C_3  and  C_4
REMARK    5  A    between atoms: N_8  and  C_9
REMARK    6  A    between atoms: C_14  and  N_15
REMARK    7  A    between atoms: C_20  and  C_21
REMARK    8  A    between atoms: C_21  and  N_22
REMARK    9  A    between atoms: C_26  and  O_27
REMARK   10  A    between atoms: C_30  and  C_31
REMARK                            x       y       z     vdW  Elec       q    Type
REMARK                         _______ _______ _______ _____ _____    ______ ____
ROOT
ATOM      1  N   UNL     1       1.617   7.604  20.075  0.00  0.00    +0.000 N 
ATOM      2  C   UNL     1       1.641   6.335  20.757  0.00  0.00    +0.000 C 
ATOM      3  C   UNL     1       2.328   5.411  19.836  0.00  0.00    +0.000 A 
ATOM      4  C   UNL     1       2.685   6.080  18.668  0.00  0.00    +0.000 A 
ATOM      5  C   UNL     1       3.325   5.391  17.645  0.00  0.00    +0.000 A 
ATOM      6  C   UNL     1       3.580   4.007  17.826  0.00  0.00    +0.000 A 
ATOM      7  C   UNL     1       3.205   3.367  19.036  0.00  0.00    +0.000 A 
ATOM      8  C   UNL     1       2.582   4.064  20.070  0.00  0.00    +0.000 A 
ATOM      9  C   UNL     1       2.251   7.515  18.824  0.00  0.00    +0.000 C 
ATOM     10  O   UNL     1       2.449   8.373  17.988  0.00  0.00    +0.000 OA
ENDROOT
BRANCH   1  15
ATOM     11  C   UNL     1      -0.400  10.743  20.527  0.00  0.00    +0.000 A 
ATOM     12  C   UNL     1      -0.325  10.925  21.902  0.00  0.00    +0.000 A 
ATOM     13  C   UNL     1       0.417  10.023  22.694  0.00  0.00    +0.000 A 
ATOM     14  C   UNL     1       1.083   8.910  22.136  0.00  0.00    +0.000 A 
ATOM     15  C   UNL     1       1.037   8.708  20.766  0.00  0.00    +0.000 A 
ATOM     16  C   UNL     1       0.328   9.665  20.000  0.00  0.00    +0.000 A 
BRANCH  11  18
ATOM     17  C   UNL     1      -0.364  12.800  19.093  0.00  0.00    +0.000 C 
ATOM     18  C   UNL     1      -1.208  11.574  19.522  0.00  0.00    +0.000 C 
BRANCH  18  19
ATOM     19  C   UNL     1      -1.755  10.832  18.283  0.00  0.00    +0.000 C 
BRANCH  19  20
ATOM     20  C   UNL     1      -3.136  11.295  17.910  0.00  0.00    +0.000 A 
ATOM     21  N   UNL     1      -4.031  11.788  18.743  0.00  0.00    +0.000 NA
ATOM     22  N   UNL     1      -5.171  12.083  18.035  0.00  0.00    +0.000 NA
ATOM     23  C   UNL     1      -4.953  11.764  16.781  0.00  0.00    +0.000 A 
ATOM     24  N   UNL     1      -3.687  11.281  16.652  0.00  0.00    +0.000 N 
ATOM     25  C   UNL     1      -3.085  10.859  15.418  0.00  0.00    +0.000 C 
ENDBRANCH  19  20
ENDBRANCH  18  19
ENDBRANCH  11  18
ENDBRANCH   1  15
BRANCH   8  26
ATOM     26  C   UNL     1       2.217   3.380  21.362  0.00  0.00    +0.000 C 
ATOM     27  F   UNL     1       0.904   3.023  21.445  0.00  0.00    +0.000 F 
ATOM     28  F   UNL     1       2.919   2.234  21.565  0.00  0.00    +0.000 F 
ATOM     29  F   UNL     1       2.443   4.168  22.447  0.00  0.00    +0.000 F 
ENDBRANCH   8  26
BRANCH   6  30
ATOM     30  C   UNL     1       4.290   3.151  16.791  0.00  0.00    +0.000 C 
BRANCH  30  31
ATOM     31  N   UNL     1       5.541   3.756  16.311  0.00  0.00    +0.000 NA
ATOM     32  C   UNL     1       5.424   4.361  14.974  0.00  0.00    +0.000 C 
ATOM     33  C   UNL     1       6.406   5.523  14.956  0.00  0.00    +0.000 C 
ATOM     34  F   UNL     1       7.654   5.071  14.639  0.00  0.00    +0.000 F 
ATOM     35  C   UNL     1       6.411   6.019  16.390  0.00  0.00    +0.000 C 
ATOM     36  C   UNL     1       6.078   4.779  17.224  0.00  0.00    +0.000 C 
BRANCH  35  37
ATOM     37  O   UNL     1       7.668   6.587  16.742  0.00  0.00    +0.000 OA
ATOM     38  H   UNL     1       7.819   6.348  17.675  0.00  0.00    +0.000 HD
ENDBRANCH  35  37
ENDBRANCH  30  31
ENDBRANCH   6  30
TORSDOF 8
ENDMDL
MODEL 3
REMARK VINA RESULT:      -9.4      3.683      9.627
REMARK  Name = 
REMARK  10 active torsions:
REMARK  status: ('A' for Active; 'I' for Inactive)
REMARK    1  A    between atoms: C_1  and  C_2
REMARK    2  A    between atoms: C_2  and  C_3
REMARK    3  A    between atoms: C_2  and  C_10
REMARK    4  A    between atoms: C_3  and  C_4
REMARK    5  A    between atoms: N_8  and  C_9
REMARK    6  A    between atoms: C_14  and  N_15
REMARK    7  A    between atoms: C_20  and  C_21
REMARK    8  A    between atoms: C_21  and  N_22
REMARK    9  A    between atoms: C_26  and  O_27
REMARK   10  A    between atoms: C_30  and  C_31
REMARK                            x       y       z     vdW  Elec       q    Type
REMARK                         _______ _______ _______ _____ _____    ______ ____
ROOT
ATOM      1  N   UNL     1       1.437   7.786  20.263  0.00  0.00    +0.000 N 
ATOM      2  C   UNL     1       1.430   6.450  20.804  0.00  0.00    +0.000 C 
ATOM      3  C   UNL     1       2.167   5.630  19.826  0.00  0.00    +0.000 A 
ATOM      4  C   UNL     1       2.583   6.421  18.757  0.00  0.00    +0.000 A 
ATOM      5  C   UNL     1       3.278   5.845  17.701  0.00  0.00    +0.000 A 
ATOM      6  C   UNL     1       3.527   4.449  17.744  0.00  0.00    +0.000 A 
ATOM      7  C   UNL     1       3.092   3.683  18.856  0.00  0.00    +0.000 A 
ATOM      8  C   UNL     1       2.414   4.265  19.925  0.00  0.00    +0.000 A 
ATOM      9  C   UNL     1       2.136   7.831  19.045  0.00  0.00    +0.000 C 
ATOM     10  O   UNL     1       2.375   8.774  18.318  0.00  0.00    +0.000 OA
ENDROOT
BRANCH   1  15
ATOM     11  C   UNL     1      -0.653  10.832  20.953  0.00  0.00    +0.000 A 
ATOM     12  C   UNL     1      -0.616  10.886  22.340  0.00  0.00    +0.000 A 
ATOM     13  C   UNL     1       0.123   9.926  23.064  0.00  0.00    +0.000 A 
ATOM     14  C   UNL     1       0.825   8.883  22.422  0.00  0.00    +0.000 A 
ATOM     15  C   UNL     1       0.818   8.809  21.038  0.00  0.00    +0.000 A 
ATOM     16  C   UNL     1       0.110   9.822  20.347  0.00  0.00    +0.000 A 
BRANCH  11  18
ATOM     17  C   UNL     1      -0.832  13.159  20.035  0.00  0.00    +0.000 C 
ATOM     18  C   UNL     1      -1.451  11.740  20.007  0.00  0.00    +0.000 C 
BRANCH  18  19
ATOM     19  C   UNL     1      -1.625  11.252  18.553  0.00  0.00    +0.000 C 
BRANCH  19  20
ATOM     20  C   UNL     1      -3.028  11.459  18.051  0.00  0.00    +0.000 A 
ATOM     21  N   UNL     1      -4.037  11.920  18.763  0.00  0.00    +0.000 NA
ATOM     22  N   UNL     1      -5.155  11.954  17.965  0.00  0.00    +0.000 NA
ATOM     23  C   UNL     1      -4.809  11.512  16.779  0.00  0.00    +0.000 A 
ATOM     24  N   UNL     1      -3.483  11.205  16.781  0.00  0.00    +0.000 N 
ATOM     25  C   UNL     1      -2.745  10.719  15.647  0.00  0.00    +0.000 C 
ENDBRANCH  19  20
ENDBRANCH  18  19
ENDBRANCH  11  18
ENDBRANCH   1  15
BRANCH   8  26
ATOM     26  C   UNL     1       1.985   3.445  21.115  0.00  0.00    +0.000 C 
ATOM     27  F   UNL     1       2.481   2.175  21.118  0.00  0.00    +0.000 F 
ATOM     28  F   UNL     1       2.376   3.991  22.297  0.00  0.00    +0.000 F 
ATOM     29  F   UNL     1       0.634   3.303  21.185  0.00  0.00    +0.000 F 
ENDBRANCH   8  26
BRANCH   6  30
ATOM     30  C   UNL     1       4.294   3.709  16.660  0.00  0.00    +0.000 C 
BRANCH  30  31
ATOM     31  N   UNL     1       5.246   4.571  15.944  0.00  0.00    +0.000 NA
ATOM     32  C   UNL     1       6.611   4.518  16.494  0.00  0.00    +0.000 C 
ATOM     33  C   UNL     1       7.543   4.762  15.316  0.00  0.00    +0.000 C 
ATOM     34  F   UNL     1       7.682   6.102  15.104  0.00  0.00    +0.000 F 
ATOM     35  C   UNL     1       6.809   4.151  14.138  0.00  0.00    +0.000 C 
ATOM     36  C   UNL     1       5.328   4.274  14.505  0.00  0.00    +0.000 C 
BRANCH  35  37
ATOM     37  O   UNL     1       7.123   4.821  12.921  0.00  0.00    +0.000 OA
ATOM     38  H   UNL     1       6.435   4.558  12.283  0.00  0.00    +0.000 HD
ENDBRANCH  35  37
ENDBRANCH  30  31
ENDBRANCH   6  30
TORSDOF 8
ENDMDL
MODEL 4
REMARK VINA RESULT:      -9.4      1.273      1.524
REMARK  Name = 
REMARK  10 active torsions:
REMARK  status: ('A' for Active; 'I' for Inactive)
REMARK    1  A    between atoms: C_1  and  C_2
REMARK    2  A    between atoms: C_2  and  C_3
REMARK    3  A    between atoms: C_2  and  C_10
REMARK    4  A    between atoms: C_3  and  C_4
REMARK    5  A    between atoms: N_8  and  C_9
REMARK    6  A    between atoms: C_14  and  N_15
REMARK    7  A    between atoms: C_20  and  C_21
REMARK    8  A    between atoms: C_21  and  N_22
REMARK    9  A    between atoms: C_26  and  O_27
REMARK   10  A    between atoms: C_30  and  C_31
REMARK                            x       y       z     vdW  Elec       q    Type
REMARK                         _______ _______ _______ _____ _____    ______ ____
ROOT
ATOM      1  N   UNL     1       2.298   7.561  19.217  0.00  0.00    +0.000 N 
ATOM      2  C   UNL     1       1.586   7.905  20.423  0.00  0.00    +0.000 C 
ATOM      3  C   UNL     1       0.965   9.213  20.149  0.00  0.00    +0.000 A 
ATOM      4  C   UNL     1       1.292   9.636  18.863  0.00  0.00    +0.000 A 
ATOM      5  C   UNL     1       0.831  10.864  18.402  0.00  0.00    +0.000 A 
ATOM      6  C   UNL     1       0.047  11.658  19.278  0.00  0.00    +0.000 A 
ATOM      7  C   UNL     1      -0.268  11.183  20.578  0.00  0.00    +0.000 A 
ATOM      8  C   UNL     1       0.177   9.943  21.032  0.00  0.00    +0.000 A 
ATOM      9  C   UNL     1       2.137   8.557  18.238  0.00  0.00    +0.000 C 
ATOM     10  O   UNL     1       2.558   8.605  17.100  0.00  0.00    +0.000 OA
ENDROOT
BRANCH   1  15
ATOM     11  C   UNL     1       4.798   4.987  18.101  0.00  0.00    +0.000 A 
ATOM     12  C   UNL     1       4.546   3.951  18.991  0.00  0.00    +0.000 A 
ATOM     13  C   UNL     1       3.527   4.084  19.958  0.00  0.00    +0.000 A 
ATOM     14  C   UNL     1       2.750   5.257  20.070  0.00  0.00    +0.000 A 
ATOM     15  C   UNL     1       2.969   6.304  19.188  0.00  0.00    +0.000 A 
ATOM     16  C   UNL     1       3.963   6.111  18.199  0.00  0.00    +0.000 A 
BRANCH  11  18
ATOM     17  C   UNL     1       7.232   4.567  17.665  0.00  0.00    +0.000 C 
ATOM     18  C   UNL     1       5.902   5.052  17.037  0.00  0.00    +0.000 C 
BRANCH  18  19
ATOM     19  C   UNL     1       5.631   4.318  15.706  0.00  0.00    +0.000 C 
BRANCH  19  20
ATOM     20  C   UNL     1       6.606   4.715  14.632  0.00  0.00    +0.000 A 
ATOM     21  N   UNL     1       7.628   5.534  14.789  0.00  0.00    +0.000 NA
ATOM     22  N   UNL     1       8.274   5.662  13.583  0.00  0.00    +0.000 NA
ATOM     23  C   UNL     1       7.635   4.919  12.710  0.00  0.00    +0.000 A 
ATOM     24  N   UNL     1       6.594   4.295  13.325  0.00  0.00    +0.000 N 
ATOM     25  C   UNL     1       5.688   3.377  12.690  0.00  0.00    +0.000 C 
ENDBRANCH  19  20
ENDBRANCH  18  19
ENDBRANCH  11  18
ENDBRANCH   1  15
BRANCH   8  26
ATOM     26  C   UNL     1      -0.191   9.437  22.404  0.00  0.00    +0.000 C 
ATOM     27  F   UNL     1      -0.958  10.305  23.123  0.00  0.00    +0.000 F 
ATOM     28  F   UNL     1      -0.894   8.275  22.364  0.00  0.00    +0.000 F 
ATOM     29  F   UNL     1       0.903   9.200  23.177  0.00  0.00    +0.000 F 
ENDBRANCH   8  26
BRANCH   6  30
ATOM     30  C   UNL     1      -0.531  13.007  18.883  0.00  0.00    +0.000 C 
BRANCH  30  31
ATOM     31  N   UNL     1      -0.287  14.049  19.891  0.00  0.00    +0.000 NA
ATOM     32  C   UNL     1       0.563  15.149  19.401  0.00  0.00    +0.000 C 
ATOM     33  C   UNL     1       0.108  16.391  20.152  0.00  0.00    +0.000 C 
ATOM     34  F   UNL     1       0.729  16.455  21.364  0.00  0.00    +0.000 F 
ATOM     35  C   UNL     1      -1.376  16.163  20.370  0.00  0.00    +0.000 C 
ATOM     36  C   UNL     1      -1.524  14.640  20.427  0.00  0.00    +0.000 C 
BRANCH  35  37
ATOM     37  O   UNL     1      -1.833  16.796  21.561  0.00  0.00    +0.000 OA
ATOM     38  H   UNL     1      -1.941  17.739  21.339  0.00  0.00    +0.000 HD
ENDBRANCH  35  37
ENDBRANCH  30  31
ENDBRANCH   6  30
TORSDOF 8
ENDMDL
MODEL 5
REMARK VINA RESULT:      -9.4      1.519      2.252
REMARK  Name = 
REMARK  10 active torsions:
REMARK  status: ('A' for Active; 'I' for Inactive)
REMARK    1  A    between atoms: C_1  and  C_2
REMARK    2  A    between atoms: C_2  and  C_3
REMARK    3  A    between atoms: C_2  and  C_10
REMARK    4  A    between atoms: C_3  and  C_4
REMARK    5  A    between atoms: N_8  and  C_9
REMARK    6  A    between atoms: C_14  and  N_15
REMARK    7  A    between atoms: C_20  and  C_21
REMARK    8  A    between atoms: C_21  and  N_22
REMARK    9  A    between atoms: C_26  and  O_27
REMARK   10  A    between atoms: C_30  and  C_31
REMARK                            x       y       z     vdW  Elec       q    Type
REMARK                         _______ _______ _______ _____ _____    ______ ____
ROOT
ATOM      1  N   UNL     1       2.025   7.847  19.321  0.00  0.00    +0.000 N 
ATOM      2  C   UNL     1       1.382   8.143  20.576  0.00  0.00    +0.000 C 
ATOM      3  C   UNL     1       0.800   9.487  20.408  0.00  0.00    +0.000 A 
ATOM      4  C   UNL     1       1.085   9.975  19.135  0.00  0.00    +0.000 A 
ATOM      5  C   UNL     1       0.652  11.243  18.768  0.00  0.00    +0.000 A 
ATOM      6  C   UNL     1      -0.061  12.011  19.724  0.00  0.00    +0.000 A 
ATOM      7  C   UNL     1      -0.336  11.471  21.007  0.00  0.00    +0.000 A 
ATOM      8  C   UNL     1       0.080  10.191  21.367  0.00  0.00    +0.000 A 
ATOM      9  C   UNL     1       1.859   8.904  18.410  0.00  0.00    +0.000 C 
ATOM     10  O   UNL     1       2.230   9.006  17.258  0.00  0.00    +0.000 OA
ENDROOT
BRANCH   1  15
ATOM     11  C   UNL     1       4.220   5.196  17.812  0.00  0.00    +0.000 A 
ATOM     12  C   UNL     1       4.098   4.172  18.742  0.00  0.00    +0.000 A 
ATOM     13  C   UNL     1       3.266   4.339  19.869  0.00  0.00    +0.000 A 
ATOM     14  C   UNL     1       2.554   5.535  20.103  0.00  0.00    +0.000 A 
ATOM     15  C   UNL     1       2.645   6.571  19.187  0.00  0.00    +0.000 A 
ATOM     16  C   UNL     1       3.447   6.345  18.043  0.00  0.00    +0.000 A 
BRANCH  11  18
ATOM     17  C   UNL     1       4.844   6.525  15.779  0.00  0.00    +0.000 C 
ATOM     18  C   UNL     1       5.123   5.223  16.571  0.00  0.00    +0.000 C 
BRANCH  18  19
ATOM     19  C   UNL     1       6.638   5.045  16.806  0.00  0.00    +0.000 C 
BRANCH  19  20
ATOM     20  C   UNL     1       7.278   6.295  17.345  0.00  0.00    +0.000 A 
ATOM     21  N   UNL     1       7.449   7.418  16.676  0.00  0.00    +0.000 NA
ATOM     22  N   UNL     1       8.080   8.323  17.496  0.00  0.00    +0.000 NA
ATOM     23  C   UNL     1       8.283   7.736  18.652  0.00  0.00    +0.000 A 
ATOM     24  N   UNL     1       7.784   6.470  18.609  0.00  0.00    +0.000 N 
ATOM     25  C   UNL     1       7.799   5.538  19.703  0.00  0.00    +0.000 C 
ENDBRANCH  19  20
ENDBRANCH  18  19
ENDBRANCH  11  18
ENDBRANCH   1  15
BRANCH   8  26
ATOM     26  C   UNL     1      -0.245   9.618  22.723  0.00  0.00    +0.000 C 
ATOM     27  F   UNL     1      -0.931   8.441  22.675  0.00  0.00    +0.000 F 
ATOM     28  F   UNL     1       0.866   9.362  23.464  0.00  0.00    +0.000 F 
ATOM     29  F   UNL     1      -1.019  10.454  23.466  0.00  0.00    +0.000 F 
ENDBRANCH   8  26
BRANCH   6  30
ATOM     30  C   UNL     1      -0.604  13.401  19.435  0.00  0.00    +0.000 C 
BRANCH  30  31
ATOM     31  N   UNL     1       0.438  14.342  19.000  0.00  0.00    +0.000 NA
ATOM     32  C   UNL     1      -0.085  15.671  18.642  0.00  0.00    +0.000 C 
ATOM     33  C   UNL     1       1.025  16.657  18.974  0.00  0.00    +0.000 C 
ATOM     34  F   UNL     1       1.908  16.729  17.937  0.00  0.00    +0.000 F 
ATOM     35  C   UNL     1       1.720  16.035  20.171  0.00  0.00    +0.000 C 
ATOM     36  C   UNL     1       1.503  14.530  19.998  0.00  0.00    +0.000 C 
BRANCH  35  37
ATOM     37  O   UNL     1       3.100  16.383  20.213  0.00  0.00    +0.000 OA
ATOM     38  H   UNL     1       3.569  15.683  19.723  0.00  0.00    +0.000 HD
ENDBRANCH  35  37
ENDBRANCH  30  31
ENDBRANCH   6  30
TORSDOF 8
ENDMDL
MODEL 6
REMARK VINA RESULT:      -9.4      1.548      2.440
REMARK  Name = 
REMARK  10 active torsions:
REMARK  status: ('A' for Active; 'I' for Inactive)
REMARK    1  A    between atoms: C_1  and  C_2
REMARK    2  A    between atoms: C_2  and  C_3
REMARK    3  A    between atoms: C_2  and  C_10
REMARK    4  A    between atoms: C_3  and  C_4
REMARK    5  A    between atoms: N_8  and  C_9
REMARK    6  A    between atoms: C_14  and  N_15
REMARK    7  A    between atoms: C_20  and  C_21
REMARK    8  A    between atoms: C_21  and  N_22
REMARK    9  A    between atoms: C_26  and  O_27
REMARK   10  A    between atoms: C_30  and  C_31
REMARK                            x       y       z     vdW  Elec       q    Type
REMARK                         _______ _______ _______ _____ _____    ______ ____
ROOT
ATOM      1  N   UNL     1       2.247   7.479  19.259  0.00  0.00    +0.000 N 
ATOM      2  C   UNL     1       1.574   7.882  20.468  0.00  0.00    +0.000 C 
ATOM      3  C   UNL     1       1.103   9.255  20.212  0.00  0.00    +0.000 A 
ATOM      4  C   UNL     1       1.478   9.658  18.933  0.00  0.00    +0.000 A 
ATOM      5  C   UNL     1       1.157  10.934  18.488  0.00  0.00    +0.000 A 
ATOM      6  C   UNL     1       0.462  11.798  19.374  0.00  0.00    +0.000 A 
ATOM      7  C   UNL     1       0.093  11.343  20.667  0.00  0.00    +0.000 A 
ATOM      8  C   UNL     1       0.396  10.055  21.104  0.00  0.00    +0.000 A 
ATOM      9  C   UNL     1       2.200   8.500  18.294  0.00  0.00    +0.000 C 
ATOM     10  O   UNL     1       2.628   8.517  17.158  0.00  0.00    +0.000 OA
ENDROOT
BRANCH   1  15
ATOM     11  C   UNL     1       4.282   4.598  17.963  0.00  0.00    +0.000 A 
ATOM     12  C   UNL     1       4.060   3.638  18.942  0.00  0.00    +0.000 A 
ATOM     13  C   UNL     1       3.212   3.926  20.032  0.00  0.00    +0.000 A 
ATOM     14  C   UNL     1       2.583   5.182  20.180  0.00  0.00    +0.000 A 
ATOM     15  C   UNL     1       2.775   6.156  19.213  0.00  0.00    +0.000 A 
ATOM     16  C   UNL     1       3.589   5.810  18.108  0.00  0.00    +0.000 A 
BRANCH  11  18
ATOM     17  C   UNL     1       4.875   5.626  15.754  0.00  0.00    +0.000 C 
ATOM     18  C   UNL     1       5.219   4.492  16.752  0.00  0.00    +0.000 C 
BRANCH  18  19
ATOM     19  C   UNL     1       6.734   4.464  17.041  0.00  0.00    +0.000 C 
BRANCH  19  20
ATOM     20  C   UNL     1       7.271   5.828  17.378  0.00  0.00    +0.000 A 
ATOM     21  N   UNL     1       7.433   6.821  16.525  0.00  0.00    +0.000 NA
ATOM     22  N   UNL     1       7.957   7.896  17.200  0.00  0.00    +0.000 NA
ATOM     23  C   UNL     1       8.107   7.542  18.455  0.00  0.00    +0.000 A 
ATOM     24  N   UNL     1       7.676   6.261  18.616  0.00  0.00    +0.000 N 
ATOM     25  C   UNL     1       7.661   5.544  19.862  0.00  0.00    +0.000 C 
ENDBRANCH  19  20
ENDBRANCH  18  19
ENDBRANCH  11  18
ENDBRANCH   1  15
BRANCH   8  26
ATOM     26  C   UNL     1      -0.029   9.575  22.468  0.00  0.00    +0.000 C 
ATOM     27  F   UNL     1      -0.758  10.487  23.171  0.00  0.00    +0.000 F 
ATOM     28  F   UNL     1      -0.800   8.456  22.413  0.00  0.00    +0.000 F 
ATOM     29  F   UNL     1       1.032   9.273  23.264  0.00  0.00    +0.000 F 
ENDBRANCH   8  26
BRANCH   6  30
ATOM     30  C   UNL     1       0.038  13.208  18.997  0.00  0.00    +0.000 C 
BRANCH  30  31
ATOM     31  N   UNL     1       0.950  14.237  19.518  0.00  0.00    +0.000 NA
ATOM     32  C   UNL     1       2.373  13.898  19.348  0.00  0.00    +0.000 C 
ATOM     33  C   UNL     1       3.099  15.225  19.182  0.00  0.00    +0.000 C 
ATOM     34  F   UNL     1       3.375  15.760  20.406  0.00  0.00    +0.000 F 
ATOM     35  C   UNL     1       2.088  16.108  18.475  0.00  0.00    +0.000 C 
ATOM     36  C   UNL     1       0.728  15.564  18.922  0.00  0.00    +0.000 C 
BRANCH  35  37
ATOM     37  O   UNL     1       2.262  17.479  18.817  0.00  0.00    +0.000 OA
ATOM     38  H   UNL     1       1.740  17.986  18.168  0.00  0.00    +0.000 HD
ENDBRANCH  35  37
ENDBRANCH  30  31
ENDBRANCH   6  30
TORSDOF 8
ENDMDL
MODEL 7
REMARK VINA RESULT:      -9.4      2.277      2.862
REMARK  Name = 
REMARK  10 active torsions:
REMARK  status: ('A' for Active; 'I' for Inactive)
REMARK    1  A    between atoms: C_1  and  C_2
REMARK    2  A    between atoms: C_2  and  C_3
REMARK    3  A    between atoms: C_2  and  C_10
REMARK    4  A    between atoms: C_3  and  C_4
REMARK    5  A    between atoms: N_8  and  C_9
REMARK    6  A    between atoms: C_14  and  N_15
REMARK    7  A    between atoms: C_20  and  C_21
REMARK    8  A    between atoms: C_21  and  N_22
REMARK    9  A    between atoms: C_26  and  O_27
REMARK   10  A    between atoms: C_30  and  C_31
REMARK                            x       y       z     vdW  Elec       q    Type
REMARK                         _______ _______ _______ _____ _____    ______ ____
ROOT
ATOM      1  N   UNL     1       2.370   7.405  19.156  0.00  0.00    +0.000 N 
ATOM      2  C   UNL     1       1.705   7.742  20.390  0.00  0.00    +0.000 C 
ATOM      3  C   UNL     1       1.122   9.077  20.167  0.00  0.00    +0.000 A 
ATOM      4  C   UNL     1       1.426   9.521  18.882  0.00  0.00    +0.000 A 
ATOM      5  C   UNL     1       0.994  10.774  18.464  0.00  0.00    +0.000 A 
ATOM      6  C   UNL     1       0.263  11.571  19.382  0.00  0.00    +0.000 A 
ATOM      7  C   UNL     1      -0.031  11.076  20.678  0.00  0.00    +0.000 A 
ATOM      8  C   UNL     1       0.384   9.810  21.089  0.00  0.00    +0.000 A 
ATOM      9  C   UNL     1       2.215   8.430  18.207  0.00  0.00    +0.000 C 
ATOM     10  O   UNL     1       2.605   8.493  17.058  0.00  0.00    +0.000 OA
ENDROOT
BRANCH   1  15
ATOM     11  C   UNL     1       4.836   4.815  18.001  0.00  0.00    +0.000 A 
ATOM     12  C   UNL     1       4.499   3.733  18.804  0.00  0.00    +0.000 A 
ATOM     13  C   UNL     1       3.433   3.842  19.723  0.00  0.00    +0.000 A 
ATOM     14  C   UNL     1       2.694   5.035  19.873  0.00  0.00    +0.000 A 
ATOM     15  C   UNL     1       2.997   6.128  19.077  0.00  0.00    +0.000 A 
ATOM     16  C   UNL     1       4.037   5.962  18.131  0.00  0.00    +0.000 A 
BRANCH  11  18
ATOM     17  C   UNL     1       7.323   4.624  17.751  0.00  0.00    +0.000 C 
ATOM     18  C   UNL     1       5.997   4.906  17.002  0.00  0.00    +0.000 C 
BRANCH  18  19
ATOM     19  C   UNL     1       5.896   4.035  15.732  0.00  0.00    +0.000 C 
BRANCH  19  20
ATOM     20  C   UNL     1       6.747   4.567  14.612  0.00  0.00    +0.000 A 
ATOM     21  N   UNL     1       7.741   5.424  14.744  0.00  0.00    +0.000 NA
ATOM     22  N   UNL     1       8.266   5.679  13.500  0.00  0.00    +0.000 NA
ATOM     23  C   UNL     1       7.583   4.974  12.629  0.00  0.00    +0.000 A 
ATOM     24  N   UNL     1       6.632   4.250  13.281  0.00  0.00    +0.000 N 
ATOM     25  C   UNL     1       5.714   3.338  12.656  0.00  0.00    +0.000 C 
ENDBRANCH  19  20
ENDBRANCH  18  19
ENDBRANCH  11  18
ENDBRANCH   1  15
BRANCH   8  26
ATOM     26  C   UNL     1       0.039   9.283  22.459  0.00  0.00    +0.000 C 
ATOM     27  F   UNL     1      -0.741   8.165  22.439  0.00  0.00    +0.000 F 
ATOM     28  F   UNL     1       1.138   8.947  23.184  0.00  0.00    +0.000 F 
ATOM     29  F   UNL     1      -0.651  10.189  23.203  0.00  0.00    +0.000 F 
ENDBRANCH   8  26
BRANCH   6  30
ATOM     30  C   UNL     1      -0.281  12.948  19.037  0.00  0.00    +0.000 C 
BRANCH  30  31
ATOM     31  N   UNL     1      -1.692  12.918  18.626  0.00  0.00    +0.000 NA
ATOM     32  C   UNL     1      -2.052  11.716  17.856  0.00  0.00    +0.000 C 
ATOM     33  C   UNL     1      -3.515  11.441  18.174  0.00  0.00    +0.000 C 
ATOM     34  F   UNL     1      -4.315  12.194  17.367  0.00  0.00    +0.000 F 
ATOM     35  C   UNL     1      -3.671  11.916  19.607  0.00  0.00    +0.000 C 
ATOM     36  C   UNL     1      -2.628  13.027  19.757  0.00  0.00    +0.000 C 
BRANCH  35  37
ATOM     37  O   UNL     1      -4.994  12.377  19.862  0.00  0.00    +0.000 OA
ATOM     38  H   UNL     1      -5.574  11.878  19.258  0.00  0.00    +0.000 HD
ENDBRANCH  35  37
ENDBRANCH  30  31
ENDBRANCH   6  30
TORSDOF 8
ENDMDL
MODEL 8
REMARK VINA RESULT:      -9.3      1.937      2.238
REMARK  Name = 
REMARK  10 active torsions:
REMARK  status: ('A' for Active; 'I' for Inactive)
REMARK    1  A    between atoms: C_1  and  C_2
REMARK    2  A    between atoms: C_2  and  C_3
REMARK    3  A    between atoms: C_2  and  C_10
REMARK    4  A    between atoms: C_3  and  C_4
REMARK    5  A    between atoms: N_8  and  C_9
REMARK    6  A    between atoms: C_14  and  N_15
REMARK    7  A    between atoms: C_20  and  C_21
REMARK    8  A    between atoms: C_21  and  N_22
REMARK    9  A    between atoms: C_26  and  O_27
REMARK   10  A    between atoms: C_30  and  C_31
REMARK                            x       y       z     vdW  Elec       q    Type
REMARK                         _______ _______ _______ _____ _____    ______ ____
ROOT
ATOM      1  N   UNL     1       2.074   7.870  19.199  0.00  0.00    +0.000 N 
ATOM      2  C   UNL     1       1.433   8.109  20.468  0.00  0.00    +0.000 C 
ATOM      3  C   UNL     1       0.816   9.442  20.346  0.00  0.00    +0.000 A 
ATOM      4  C   UNL     1       1.078   9.976  19.087  0.00  0.00    +0.000 A 
ATOM      5  C   UNL     1       0.609  11.244  18.764  0.00  0.00    +0.000 A 
ATOM      6  C   UNL     1      -0.116  11.962  19.749  0.00  0.00    +0.000 A 
ATOM      7  C   UNL     1      -0.367  11.376  21.016  0.00  0.00    +0.000 A 
ATOM      8  C   UNL     1       0.085  10.096  21.332  0.00  0.00    +0.000 A 
ATOM      9  C   UNL     1       1.874   8.950  18.323  0.00  0.00    +0.000 C 
ATOM     10  O   UNL     1       2.234   9.097  17.173  0.00  0.00    +0.000 OA
ENDROOT
BRANCH   1  15
ATOM     11  C   UNL     1       4.097   5.227  17.454  0.00  0.00    +0.000 A 
ATOM     12  C   UNL     1       4.198   4.256  18.443  0.00  0.00    +0.000 A 
ATOM     13  C   UNL     1       3.575   4.456  19.693  0.00  0.00    +0.000 A 
ATOM     14  C   UNL     1       2.855   5.633  19.991  0.00  0.00    +0.000 A 
ATOM     15  C   UNL     1       2.726   6.615  19.021  0.00  0.00    +0.000 A 
ATOM     16  C   UNL     1       3.319   6.354  17.763  0.00  0.00    +0.000 A 
BRANCH  11  18
ATOM     17  C   UNL     1       5.097   6.674  15.667  0.00  0.00    +0.000 C 
ATOM     18  C   UNL     1       4.759   5.217  16.069  0.00  0.00    +0.000 C 
BRANCH  18  19
ATOM     19  C   UNL     1       5.992   4.305  15.892  0.00  0.00    +0.000 C 
BRANCH  19  20
ATOM     20  C   UNL     1       6.830   4.710  14.711  0.00  0.00    +0.000 A 
ATOM     21  N   UNL     1       7.882   5.504  14.754  0.00  0.00    +0.000 NA
ATOM     22  N   UNL     1       8.372   5.649  13.478  0.00  0.00    +0.000 NA
ATOM     23  C   UNL     1       7.610   4.942  12.678  0.00  0.00    +0.000 A 
ATOM     24  N   UNL     1       6.641   4.325  13.407  0.00  0.00    +0.000 N 
ATOM     25  C   UNL     1       5.640   3.442  12.873  0.00  0.00    +0.000 C 
ENDBRANCH  19  20
ENDBRANCH  18  19
ENDBRANCH  11  18
ENDBRANCH   1  15
BRANCH   8  26
ATOM     26  C   UNL     1      -0.215   9.472  22.672  0.00  0.00    +0.000 C 
ATOM     27  F   UNL     1       0.893   9.246  23.435  0.00  0.00    +0.000 F 
ATOM     28  F   UNL     1      -1.033  10.242  23.437  0.00  0.00    +0.000 F 
ATOM     29  F   UNL     1      -0.823   8.261  22.554  0.00  0.00    +0.000 F 
ENDBRANCH   8  26
BRANCH   6  30
ATOM     30  C   UNL     1      -0.697  13.346  19.508  0.00  0.00    +0.000 C 
BRANCH  30  31
ATOM     31  N   UNL     1      -1.028  14.051  20.755  0.00  0.00    +0.000 NA
ATOM     32  C   UNL     1      -0.257  15.291  20.949  0.00  0.00    +0.000 C 
ATOM     33  C   UNL     1      -1.164  16.225  21.737  0.00  0.00    +0.000 C 
ATOM     34  F   UNL     1      -1.062  15.956  23.070  0.00  0.00    +0.000 F 
ATOM     35  C   UNL     1      -2.560  15.861  21.266  0.00  0.00    +0.000 C 
ATOM     36  C   UNL     1      -2.457  14.385  20.871  0.00  0.00    +0.000 C 
BRANCH  35  37
ATOM     37  O   UNL     1      -3.530  16.082  22.285  0.00  0.00    +0.000 OA
ATOM     38  H   UNL     1      -3.835  17.001  22.171  0.00  0.00    +0.000 HD
ENDBRANCH  35  37
ENDBRANCH  30  31
ENDBRANCH   6  30
TORSDOF 8
ENDMDL
MODEL 9
REMARK VINA RESULT:      -9.3      1.376      1.776
REMARK  Name = 
REMARK  10 active torsions:
REMARK  status: ('A' for Active; 'I' for Inactive)
REMARK    1  A    between atoms: C_1  and  C_2
REMARK    2  A    between atoms: C_2  and  C_3
REMARK    3  A    between atoms: C_2  and  C_10
REMARK    4  A    between atoms: C_3  and  C_4
REMARK    5  A    between atoms: N_8  and  C_9
REMARK    6  A    between atoms: C_14  and  N_15
REMARK    7  A    between atoms: C_20  and  C_21
REMARK    8  A    between atoms: C_21  and  N_22
REMARK    9  A    between atoms: C_26  and  O_27
REMARK   10  A    between atoms: C_30  and  C_31
REMARK                            x       y       z     vdW  Elec       q    Type
REMARK                         _______ _______ _______ _____ _____    ______ ____
ROOT
ATOM      1  N   UNL     1       2.252   7.572  19.387  0.00  0.00    +0.000 N 
ATOM      2  C   UNL     1       1.556   7.944  20.593  0.00  0.00    +0.000 C 
ATOM      3  C   UNL     1       0.876   9.213  20.274  0.00  0.00    +0.000 A 
ATOM      4  C   UNL     1       1.154   9.586  18.961  0.00  0.00    +0.000 A 
ATOM      5  C   UNL     1       0.632  10.770  18.455  0.00  0.00    +0.000 A 
ATOM      6  C   UNL     1      -0.163  11.574  19.312  0.00  0.00    +0.000 A 
ATOM      7  C   UNL     1      -0.427  11.151  20.641  0.00  0.00    +0.000 A 
ATOM      8  C   UNL     1       0.079   9.952  21.141  0.00  0.00    +0.000 A 
ATOM      9  C   UNL     1       2.026   8.512  18.366  0.00  0.00    +0.000 C 
ATOM     10  O   UNL     1       2.418   8.522  17.217  0.00  0.00    +0.000 OA
ENDROOT
BRANCH   1  15
ATOM     11  C   UNL     1       5.175   5.258  18.914  0.00  0.00    +0.000 A 
ATOM     12  C   UNL     1       4.672   4.068  19.425  0.00  0.00    +0.000 A 
ATOM     13  C   UNL     1       3.349   4.012  19.910  0.00  0.00    +0.000 A 
ATOM     14  C   UNL     1       2.505   5.144  19.914  0.00  0.00    +0.000 A 
ATOM     15  C   UNL     1       2.972   6.342  19.400  0.00  0.00    +0.000 A 
ATOM     16  C   UNL     1       4.286   6.344  18.873  0.00  0.00    +0.000 A 
BRANCH  11  18
ATOM     17  C   UNL     1       7.510   5.834  19.623  0.00  0.00    +0.000 C 
ATOM     18  C   UNL     1       6.599   5.526  18.409  0.00  0.00    +0.000 C 
BRANCH  18  19
ATOM     19  C   UNL     1       7.237   4.443  17.513  0.00  0.00    +0.000 C 
BRANCH  19  20
ATOM     20  C   UNL     1       6.886   4.629  16.063  0.00  0.00    +0.000 A 
ATOM     21  N   UNL     1       7.656   5.194  15.154  0.00  0.00    +0.000 NA
ATOM     22  N   UNL     1       6.988   5.192  13.953  0.00  0.00    +0.000 NA
ATOM     23  C   UNL     1       5.820   4.627  14.150  0.00  0.00    +0.000 A 
ATOM     24  N   UNL     1       5.718   4.244  15.452  0.00  0.00    +0.000 N 
ATOM     25  C   UNL     1       4.590   3.565  16.029  0.00  0.00    +0.000 C 
ENDBRANCH  19  20
ENDBRANCH  18  19
ENDBRANCH  11  18
ENDBRANCH   1  15
BRANCH   8  26
ATOM     26  C   UNL     1      -0.234   9.500  22.544  0.00  0.00    +0.000 C 
ATOM     27  F   UNL     1      -0.977  10.392  23.259  0.00  0.00    +0.000 F 
ATOM     28  F   UNL     1      -0.934   8.335  22.576  0.00  0.00    +0.000 F 
ATOM     29  F   UNL     1       0.889   9.294  23.284  0.00  0.00    +0.000 F 
ENDBRANCH   8  26
BRANCH   6  30
ATOM     30  C   UNL     1      -0.805  12.878  18.869  0.00  0.00    +0.000 C 
BRANCH  30  31
ATOM     31  N   UNL     1      -0.392  14.026  19.691  0.00  0.00    +0.000 NA
ATOM     32  C   UNL     1       0.298  15.077  18.923  0.00  0.00    +0.000 C 
ATOM     33  C   UNL     1      -0.034  16.387  19.623  0.00  0.00    +0.000 C 
ATOM     34  F   UNL     1       0.824  16.587  20.664  0.00  0.00    +0.000 F 
ATOM     35  C   UNL     1      -1.431  16.164  20.171  0.00  0.00    +0.000 C 
ATOM     36  C   UNL     1      -1.510  14.654  20.412  0.00  0.00    +0.000 C 
BRANCH  35  37
ATOM     37  O   UNL     1      -1.651  16.915  21.361  0.00  0.00    +0.000 OA
ATOM     38  H   UNL     1      -2.187  17.686  21.097  0.00  0.00    +0.000 HD
ENDBRANCH  35  37
ENDBRANCH  30  31
ENDBRANCH   6  30
TORSDOF 8
ENDMDL
