MODEL 1
REMARK VINA RESULT:      -8.3      0.000      0.000
REMARK  Name = 
REMARK  11 active torsions:
REMARK  status: ('A' for Active; 'I' for Inactive)
REMARK    1  A    between atoms: C_1  and  C_2
REMARK    2  A    between atoms: C_2  and  S_3
REMARK    3  A    between atoms: C_2  and  C_10
REMARK    4  A    between atoms: S_3  and  C_4
REMARK    5  A    between atoms: N_8  and  C_9
REMARK    6  A    between atoms: C_14  and  N_15
REMARK    7  A    between atoms: N_18  and  C_19
REMARK    8  A    between atoms: C_22  and  S_23
REMARK    9  A    between atoms: S_23  and  N_26
REMARK   10  A    between atoms: N_26  and  C_27
REMARK   11  A    between atoms: N_26  and  C_28
REMARK                            x       y       z     vdW  Elec       q    Type
REMARK                         _______ _______ _______ _____ _____    ______ ____
ROOT
ATOM      1  N   UNL     1       2.274   6.387  20.550  0.00  0.00    +0.000 N 
ATOM      2  C   UNL     1       1.496   7.535  20.565  0.00  0.00    +0.000 C 
ATOM      3  O   UNL     1       0.844   7.950  19.614  0.00  0.00    +0.000 OA
ATOM      4  N   UNL     1       1.559   8.188  21.791  0.00  0.00    +0.000 N 
ATOM      5  H   UNL     1       2.371   5.917  21.439  0.00  0.00    +0.000 HD
ATOM      6  H   UNL     1       2.457   8.118  22.250  0.00  0.00    +0.000 HD
ENDROOT
BRANCH   1  11
ATOM      7  C   UNL     1       3.958   5.133  17.458  0.00  0.00    +0.000 A 
ATOM      8  C   UNL     1       3.126   4.043  17.151  0.00  0.00    +0.000 A 
ATOM      9  C   UNL     1       1.998   3.763  17.919  0.00  0.00    +0.000 A 
ATOM     10  C   UNL     1       1.697   4.543  19.028  0.00  0.00    +0.000 A 
ATOM     11  C   UNL     1       2.514   5.619  19.385  0.00  0.00    +0.000 A 
ATOM     12  C   UNL     1       3.606   5.941  18.567  0.00  0.00    +0.000 A 
BRANCH   7  14
ATOM     13  C   UNL     1       5.082   6.596  15.658  0.00  0.00    +0.000 C 
ATOM     14  C   UNL     1       5.233   5.438  16.660  0.00  0.00    +0.000 C 
BRANCH  14  15
ATOM     15  S   UNL     1       5.753   3.910  15.760  0.00  0.00    +0.000 S 
BRANCH  15  16
ATOM     16  C   UNL     1       6.782   4.536  14.524  0.00  0.00    +0.000 A 
ATOM     17  N   UNL     1       7.823   5.321  14.674  0.00  0.00    +0.000 NA
ATOM     18  N   UNL     1       8.274   5.658  13.415  0.00  0.00    +0.000 NA
ATOM     19  C   UNL     1       7.504   5.050  12.541  0.00  0.00    +0.000 A 
ATOM     20  N   UNL     1       6.570   4.307  13.196  0.00  0.00    +0.000 N 
ATOM     21  C   UNL     1       5.571   3.470  12.587  0.00  0.00    +0.000 C 
ENDBRANCH  15  16
ENDBRANCH  14  15
ENDBRANCH   7  14
ENDBRANCH   1  11
BRANCH   4  22
ATOM     22  C   UNL     1       0.814   9.368  22.028  0.00  0.00    +0.000 A 
ATOM     23  C   UNL     1      -0.215   9.406  22.981  0.00  0.00    +0.000 A 
ATOM     24  C   UNL     1      -0.992  10.554  23.147  0.00  0.00    +0.000 A 
ATOM     25  C   UNL     1      -0.732  11.675  22.358  0.00  0.00    +0.000 A 
ATOM     26  C   UNL     1       0.295  11.649  21.408  0.00  0.00    +0.000 A 
ATOM     27  C   UNL     1       1.088  10.507  21.266  0.00  0.00    +0.000 A 
BRANCH  25  28
ATOM     28  S   UNL     1      -1.767  13.123  22.498  0.00  0.00    +0.000 S 
ATOM     29  O   UNL     1      -2.040  13.586  21.155  0.00  0.00    +0.000 OA
ATOM     30  O   UNL     1      -2.844  12.806  23.415  0.00  0.00    +0.000 OA
BRANCH  28  31
ATOM     31  N   UNL     1      -0.737  14.251  23.255  0.00  0.00    +0.000 NA
ATOM     32  C   UNL     1       0.064  15.117  22.376  0.00  0.00    +0.000 C 
ATOM     33  C   UNL     1      -1.282  14.952  24.429  0.00  0.00    +0.000 C 
ENDBRANCH  28  31
ENDBRANCH  25  28
ENDBRANCH   4  22
TORSDOF 7
ENDMDL
MODEL 2
REMARK VINA RESULT:      -8.2      1.150      1.510
REMARK  Name = 
REMARK  11 active torsions:
REMARK  status: ('A' for Active; 'I' for Inactive)
REMARK    1  A    between atoms: C_1  and  C_2
REMARK    2  A    between atoms: C_2  and  S_3
REMARK    3  A    between atoms: C_2  and  C_10
REMARK    4  A    between atoms: S_3  and  C_4
REMARK    5  A    between atoms: N_8  and  C_9
REMARK    6  A    between atoms: C_14  and  N_15
REMARK    7  A    between atoms: N_18  and  C_19
REMARK    8  A    between atoms: C_22  and  S_23
REMARK    9  A    between atoms: S_23  and  N_26
REMARK   10  A    between atoms: N_26  and  C_27
REMARK   11  A    between atoms: N_26  and  C_28
REMARK                            x       y       z     vdW  Elec       q    Type
REMARK                         _______ _______ _______ _____ _____    ______ ____
ROOT
ATOM      1  N   UNL     1       2.227   6.646  20.708  0.00  0.00    +0.000 N 
ATOM      2  C   UNL     1       1.483   7.814  20.636  0.00  0.00    +0.000 C 
ATOM      3  O   UNL     1       0.855   8.184  19.650  0.00  0.00    +0.000 OA
ATOM      4  N   UNL     1       1.551   8.545  21.817  0.00  0.00    +0.000 N 
ATOM      5  H   UNL     1       2.299   6.234  21.628  0.00  0.00    +0.000 HD
ATOM      6  H   UNL     1       2.440   8.480  22.292  0.00  0.00    +0.000 HD
ENDROOT
BRANCH   1  11
ATOM      7  C   UNL     1       3.863   5.199  17.675  0.00  0.00    +0.000 A 
ATOM      8  C   UNL     1       3.056   4.065  17.479  0.00  0.00    +0.000 A 
ATOM      9  C   UNL     1       1.959   3.815  18.300  0.00  0.00    +0.000 A 
ATOM     10  C   UNL     1       1.665   4.671  19.353  0.00  0.00    +0.000 A 
ATOM     11  C   UNL     1       2.458   5.795  19.600  0.00  0.00    +0.000 A 
ATOM     12  C   UNL     1       3.517   6.082  18.727  0.00  0.00    +0.000 A 
BRANCH   7  14
ATOM     13  C   UNL     1       4.963   6.691  15.883  0.00  0.00    +0.000 C 
ATOM     14  C   UNL     1       5.106   5.476  16.818  0.00  0.00    +0.000 C 
BRANCH  14  15
ATOM     15  S   UNL     1       5.487   3.971  15.816  0.00  0.00    +0.000 S 
BRANCH  15  16
ATOM     16  C   UNL     1       6.667   4.553  14.700  0.00  0.00    +0.000 A 
ATOM     17  N   UNL     1       7.682   5.347  14.953  0.00  0.00    +0.000 NA
ATOM     18  N   UNL     1       8.291   5.638  13.751  0.00  0.00    +0.000 NA
ATOM     19  C   UNL     1       7.639   4.996  12.808  0.00  0.00    +0.000 A 
ATOM     20  N   UNL     1       6.627   4.274  13.366  0.00  0.00    +0.000 N 
ATOM     21  C   UNL     1       5.713   3.413  12.665  0.00  0.00    +0.000 C 
ENDBRANCH  15  16
ENDBRANCH  14  15
ENDBRANCH   7  14
ENDBRANCH   1  11
BRANCH   4  22
ATOM     22  C   UNL     1       0.838   9.759  21.964  0.00  0.00    +0.000 A 
ATOM     23  C   UNL     1      -0.216   9.883  22.881  0.00  0.00    +0.000 A 
ATOM     24  C   UNL     1      -0.960  11.063  22.959  0.00  0.00    +0.000 A 
ATOM     25  C   UNL     1      -0.641  12.128  22.117  0.00  0.00    +0.000 A 
ATOM     26  C   UNL     1       0.412  12.017  21.203  0.00  0.00    +0.000 A 
ATOM     27  C   UNL     1       1.172  10.844  21.150  0.00  0.00    +0.000 A 
BRANCH  25  28
ATOM     28  S   UNL     1      -1.630  13.613  22.144  0.00  0.00    +0.000 S 
ATOM     29  O   UNL     1      -2.041  13.830  23.514  0.00  0.00    +0.000 OA
ATOM     30  O   UNL     1      -0.912  14.633  21.407  0.00  0.00    +0.000 OA
BRANCH  28  31
ATOM     31  N   UNL     1      -3.003  13.168  21.238  0.00  0.00    +0.000 NA
ATOM     32  C   UNL     1      -2.766  12.452  19.974  0.00  0.00    +0.000 C 
ATOM     33  C   UNL     1      -4.152  12.648  21.998  0.00  0.00    +0.000 C 
ENDBRANCH  28  31
ENDBRANCH  25  28
ENDBRANCH   4  22
TORSDOF 7
ENDMDL
MODEL 3
REMARK VINA RESULT:      -8.2      6.920      8.686
REMARK  Name = 
REMARK  11 active torsions:
REMARK  status: ('A' for Active; 'I' for Inactive)
REMARK    1  A    between atoms: C_1  and  C_2
REMARK    2  A    between atoms: C_2  and  S_3
REMARK    3  A    between atoms: C_2  and  C_10
REMARK    4  A    between atoms: S_3  and  C_4
REMARK    5  A    between atoms: N_8  and  C_9
REMARK    6  A    between atoms: C_14  and  N_15
REMARK    7  A    between atoms: N_18  and  C_19
REMARK    8  A    between atoms: C_22  and  S_23
REMARK    9  A    between atoms: S_23  and  N_26
REMARK   10  A    between atoms: N_26  and  C_27
REMARK   11  A    between atoms: N_26  and  C_28
REMARK                            x       y       z     vdW  Elec       q    Type
REMARK                         _______ _______ _______ _____ _____    ______ ____
ROOT
ATOM      1  N   UNL     1       7.970   7.486  18.382  0.00  0.00    +0.000 N 
ATOM      2  C   UNL     1       8.207   8.849  18.286  0.00  0.00    +0.000 C 
ATOM      3  O   UNL     1       7.527   9.633  17.634  0.00  0.00    +0.000 OA
ATOM      4  N   UNL     1       9.335   9.230  19.003  0.00  0.00    +0.000 N 
ATOM      5  H   UNL     1       8.266   7.054  19.245  0.00  0.00    +0.000 HD
ATOM      6  H   UNL     1      10.071   8.537  19.014  0.00  0.00    +0.000 HD
ENDROOT
BRANCH   1  11
ATOM      7  C   UNL     1       4.600   6.393  17.190  0.00  0.00    +0.000 A 
ATOM      8  C   UNL     1       4.973   5.614  16.082  0.00  0.00    +0.000 A 
ATOM      9  C   UNL     1       6.314   5.408  15.769  0.00  0.00    +0.000 A 
ATOM     10  C   UNL     1       7.309   6.003  16.534  0.00  0.00    +0.000 A 
ATOM     11  C   UNL     1       6.981   6.808  17.627  0.00  0.00    +0.000 A 
ATOM     12  C   UNL     1       5.632   6.953  17.982  0.00  0.00    +0.000 A 
BRANCH   7  14
ATOM     13  C   UNL     1       2.826   8.164  17.790  0.00  0.00    +0.000 C 
ATOM     14  C   UNL     1       3.130   6.678  17.532  0.00  0.00    +0.000 C 
BRANCH  14  15
ATOM     15  S   UNL     1       2.661   5.686  19.019  0.00  0.00    +0.000 S 
BRANCH  15  16
ATOM     16  C   UNL     1       2.627   4.076  18.400  0.00  0.00    +0.000 A 
ATOM     17  N   UNL     1       1.669   3.509  17.704  0.00  0.00    +0.000 NA
ATOM     18  N   UNL     1       2.017   2.187  17.519  0.00  0.00    +0.000 NA
ATOM     19  C   UNL     1       3.185   1.999  18.091  0.00  0.00    +0.000 A 
ATOM     20  N   UNL     1       3.621   3.171  18.632  0.00  0.00    +0.000 N 
ATOM     21  C   UNL     1       4.871   3.379  19.312  0.00  0.00    +0.000 C 
ENDBRANCH  15  16
ENDBRANCH  14  15
ENDBRANCH   7  14
ENDBRANCH   1  11
BRANCH   4  22
ATOM     22  C   UNL     1       9.739  10.586  19.061  0.00  0.00    +0.000 A 
ATOM     23  C   UNL     1       9.481  11.379  20.189  0.00  0.00    +0.000 A 
ATOM     24  C   UNL     1       9.816  12.735  20.200  0.00  0.00    +0.000 A 
ATOM     25  C   UNL     1      10.419  13.298  19.076  0.00  0.00    +0.000 A 
ATOM     26  C   UNL     1      10.685  12.515  17.947  0.00  0.00    +0.000 A 
ATOM     27  C   UNL     1      10.375  11.152  17.953  0.00  0.00    +0.000 A 
BRANCH  25  28
ATOM     28  S   UNL     1      10.779  15.046  19.039  0.00  0.00    +0.000 S 
ATOM     29  O   UNL     1      10.281  15.613  20.273  0.00  0.00    +0.000 OA
ATOM     30  O   UNL     1      12.166  15.201  18.650  0.00  0.00    +0.000 OA
BRANCH  28  31
ATOM     31  N   UNL     1       9.801  15.606  17.760  0.00  0.00    +0.000 NA
ATOM     32  C   UNL     1       8.345  15.467  17.922  0.00  0.00    +0.000 C 
ATOM     33  C   UNL     1      10.201  16.879  17.137  0.00  0.00    +0.000 C 
ENDBRANCH  28  31
ENDBRANCH  25  28
ENDBRANCH   4  22
TORSDOF 7
ENDMDL
MODEL 4
REMARK VINA RESULT:      -8.2      6.556      8.547
REMARK  Name = 
REMARK  11 active torsions:
REMARK  status: ('A' for Active; 'I' for Inactive)
REMARK    1  A    between atoms: C_1  and  C_2
REMARK    2  A    between atoms: C_2  and  S_3
REMARK    3  A    between atoms: C_2  and  C_10
REMARK    4  A    between atoms: S_3  and  C_4
REMARK    5  A    between atoms: N_8  and  C_9
REMARK    6  A    between atoms: C_14  and  N_15
REMARK    7  A    between atoms: N_18  and  C_19
REMARK    8  A    between atoms: C_22  and  S_23
REMARK    9  A    between atoms: S_23  and  N_26
REMARK   10  A    between atoms: N_26  and  C_27
REMARK   11  A    between atoms: N_26  and  C_28
REMARK                            x       y       z     vdW  Elec       q    Type
REMARK                         _______ _______ _______ _____ _____    ______ ____
ROOT
ATOM      1  N   UNL     1       7.950   7.130  18.384  0.00  0.00    +0.000 N 
ATOM      2  C   UNL     1       8.126   8.494  18.205  0.00  0.00    +0.000 C 
ATOM      3  O   UNL     1       7.460   9.192  17.448  0.00  0.00    +0.000 OA
ATOM      4  N   UNL     1       9.175   8.986  18.972  0.00  0.00    +0.000 N 
ATOM      5  H   UNL     1       8.200   6.777  19.297  0.00  0.00    +0.000 HD
ATOM      6  H   UNL     1       9.942   8.337  19.089  0.00  0.00    +0.000 HD
ENDROOT
BRANCH   1  11
ATOM      7  C   UNL     1       4.771   5.525  17.248  0.00  0.00    +0.000 A 
ATOM      8  C   UNL     1       5.209   4.938  16.049  0.00  0.00    +0.000 A 
ATOM      9  C   UNL     1       6.542   5.022  15.653  0.00  0.00    +0.000 A 
ATOM     10  C   UNL     1       7.457   5.724  16.427  0.00  0.00    +0.000 A 
ATOM     11  C   UNL     1       7.057   6.348  17.612  0.00  0.00    +0.000 A 
ATOM     12  C   UNL     1       5.731   6.198  18.043  0.00  0.00    +0.000 A 
BRANCH   7  14
ATOM     13  C   UNL     1       3.050   6.092  19.080  0.00  0.00    +0.000 C 
ATOM     14  C   UNL     1       3.300   5.490  17.686  0.00  0.00    +0.000 C 
BRANCH  14  15
ATOM     15  S   UNL     1       2.711   3.739  17.657  0.00  0.00    +0.000 S 
BRANCH  15  16
ATOM     16  C   UNL     1       3.446   3.073  19.068  0.00  0.00    +0.000 A 
ATOM     17  N   UNL     1       4.715   2.785  19.246  0.00  0.00    +0.000 NA
ATOM     18  N   UNL     1       4.833   2.173  20.476  0.00  0.00    +0.000 NA
ATOM     19  C   UNL     1       3.635   2.126  21.014  0.00  0.00    +0.000 A 
ATOM     20  N   UNL     1       2.736   2.711  20.174  0.00  0.00    +0.000 N 
ATOM     21  C   UNL     1       1.330   2.886  20.424  0.00  0.00    +0.000 C 
ENDBRANCH  15  16
ENDBRANCH  14  15
ENDBRANCH   7  14
ENDBRANCH   1  11
BRANCH   4  22
ATOM     22  C   UNL     1       9.506  10.363  18.959  0.00  0.00    +0.000 A 
ATOM     23  C   UNL     1       9.125  11.218  20.004  0.00  0.00    +0.000 A 
ATOM     24  C   UNL     1       9.390  12.587  19.938  0.00  0.00    +0.000 A 
ATOM     25  C   UNL     1      10.047  13.103  18.822  0.00  0.00    +0.000 A 
ATOM     26  C   UNL     1      10.436  12.258  17.776  0.00  0.00    +0.000 A 
ATOM     27  C   UNL     1      10.194  10.884  17.860  0.00  0.00    +0.000 A 
BRANCH  25  28
ATOM     28  S   UNL     1      10.321  14.861  18.682  0.00  0.00    +0.000 S 
ATOM     29  O   UNL     1      11.361  15.209  19.625  0.00  0.00    +0.000 OA
ATOM     30  O   UNL     1      10.453  15.174  17.273  0.00  0.00    +0.000 OA
BRANCH  28  31
ATOM     31  N   UNL     1       8.851  15.518  19.239  0.00  0.00    +0.000 NA
ATOM     32  C   UNL     1       8.914  16.385  20.427  0.00  0.00    +0.000 C 
ATOM     33  C   UNL     1       7.918  16.005  18.210  0.00  0.00    +0.000 C 
ENDBRANCH  28  31
ENDBRANCH  25  28
ENDBRANCH   4  22
TORSDOF 7
ENDMDL
MODEL 5
REMARK VINA RESULT:      -8.2      6.788      8.891
REMARK  Name = 
REMARK  11 active torsions:
REMARK  status: ('A' for Active; 'I' for Inactive)
REMARK    1  A    between atoms: C_1  and  C_2
REMARK    2  A    between atoms: C_2  and  S_3
REMARK    3  A    between atoms: C_2  and  C_10
REMARK    4  A    between atoms: S_3  and  C_4
REMARK    5  A    between atoms: N_8  and  C_9
REMARK    6  A    between atoms: C_14  and  N_15
REMARK    7  A    between atoms: N_18  and  C_19
REMARK    8  A    between atoms: C_22  and  S_23
REMARK    9  A    between atoms: S_23  and  N_26
REMARK   10  A    between atoms: N_26  and  C_27
REMARK   11  A    between atoms: N_26  and  C_28
REMARK                            x       y       z     vdW  Elec       q    Type
REMARK                         _______ _______ _______ _____ _____    ______ ____
ROOT
ATOM      1  N   UNL     1       8.000   7.339  18.345  0.00  0.00    +0.000 N 
ATOM      2  C   UNL     1       8.173   8.714  18.304  0.00  0.00    +0.000 C 
ATOM      3  O   UNL     1       7.430   9.495  17.719  0.00  0.00    +0.000 OA
ATOM      4  N   UNL     1       9.314   9.114  18.988  0.00  0.00    +0.000 N 
ATOM      5  H   UNL     1       8.355   6.882  19.174  0.00  0.00    +0.000 HD
ATOM      6  H   UNL     1      10.080   8.456  18.936  0.00  0.00    +0.000 HD
ENDROOT
BRANCH   1  11
ATOM      7  C   UNL     1       4.638   6.093  17.290  0.00  0.00    +0.000 A 
ATOM      8  C   UNL     1       4.984   5.436  16.097  0.00  0.00    +0.000 A 
ATOM      9  C   UNL     1       6.311   5.357  15.680  0.00  0.00    +0.000 A 
ATOM     10  C   UNL     1       7.314   5.963  16.425  0.00  0.00    +0.000 A 
ATOM     11  C   UNL     1       7.009   6.651  17.603  0.00  0.00    +0.000 A 
ATOM     12  C   UNL     1       5.683   6.665  18.056  0.00  0.00    +0.000 A 
BRANCH   7  14
ATOM     13  C   UNL     1       2.684   7.694  17.804  0.00  0.00    +0.000 C 
ATOM     14  C   UNL     1       3.181   6.238  17.751  0.00  0.00    +0.000 C 
BRANCH  14  15
ATOM     15  S   UNL     1       3.004   5.467  19.421  0.00  0.00    +0.000 S 
BRANCH  15  16
ATOM     16  C   UNL     1       2.022   4.086  19.093  0.00  0.00    +0.000 A 
ATOM     17  N   UNL     1       1.522   3.719  17.936  0.00  0.00    +0.000 NA
ATOM     18  N   UNL     1       0.714   2.625  18.161  0.00  0.00    +0.000 NA
ATOM     19  C   UNL     1       0.766   2.349  19.445  0.00  0.00    +0.000 A 
ATOM     20  N   UNL     1       1.604   3.227  20.065  0.00  0.00    +0.000 N 
ATOM     21  C   UNL     1       1.948   3.228  21.462  0.00  0.00    +0.000 C 
ENDBRANCH  15  16
ENDBRANCH  14  15
ENDBRANCH   7  14
ENDBRANCH   1  11
BRANCH   4  22
ATOM     22  C   UNL     1       9.660  10.483  19.094  0.00  0.00    +0.000 A 
ATOM     23  C   UNL     1       9.678  11.142  20.332  0.00  0.00    +0.000 A 
ATOM     24  C   UNL     1       9.944  12.510  20.409  0.00  0.00    +0.000 A 
ATOM     25  C   UNL     1      10.201  13.223  19.238  0.00  0.00    +0.000 A 
ATOM     26  C   UNL     1      10.190  12.575  17.998  0.00  0.00    +0.000 A 
ATOM     27  C   UNL     1       9.952  11.199  17.930  0.00  0.00    +0.000 A 
BRANCH  25  28
ATOM     28  S   UNL     1      10.462  14.988  19.308  0.00  0.00    +0.000 S 
ATOM     29  O   UNL     1       9.591  15.510  20.338  0.00  0.00    +0.000 OA
ATOM     30  O   UNL     1      11.892  15.219  19.349  0.00  0.00    +0.000 OA
BRANCH  28  31
ATOM     31  N   UNL     1       9.880  15.515  17.795  0.00  0.00    +0.000 NA
ATOM     32  C   UNL     1       8.598  16.237  17.788  0.00  0.00    +0.000 C 
ATOM     33  C   UNL     1      10.876  16.083  16.871  0.00  0.00    +0.000 C 
ENDBRANCH  28  31
ENDBRANCH  25  28
ENDBRANCH   4  22
TORSDOF 7
ENDMDL
MODEL 6
REMARK VINA RESULT:      -8.1      6.482      8.671
REMARK  Name = 
REMARK  11 active torsions:
REMARK  status: ('A' for Active; 'I' for Inactive)
REMARK    1  A    between atoms: C_1  and  C_2
REMARK    2  A    between atoms: C_2  and  S_3
REMARK    3  A    between atoms: C_2  and  C_10
REMARK    4  A    between atoms: S_3  and  C_4
REMARK    5  A    between atoms: N_8  and  C_9
REMARK    6  A    between atoms: C_14  and  N_15
REMARK    7  A    between atoms: N_18  and  C_19
REMARK    8  A    between atoms: C_22  and  S_23
REMARK    9  A    between atoms: S_23  and  N_26
REMARK   10  A    between atoms: N_26  and  C_27
REMARK   11  A    between atoms: N_26  and  C_28
REMARK                            x       y       z     vdW  Elec       q    Type
REMARK                         _______ _______ _______ _____ _____    ______ ____
ROOT
ATOM      1  N   UNL     1       7.900   6.637  18.021  0.00  0.00    +0.000 N 
ATOM      2  C   UNL     1       7.857   8.023  18.014  0.00  0.00    +0.000 C 
ATOM      3  O   UNL     1       7.012   8.694  17.432  0.00  0.00    +0.000 OA
ATOM      4  N   UNL     1       8.910   8.578  18.732  0.00  0.00    +0.000 N 
ATOM      5  H   UNL     1       8.307   6.220  18.847  0.00  0.00    +0.000 HD
ATOM      6  H   UNL     1       9.770   8.048  18.681  0.00  0.00    +0.000 HD
ENDROOT
BRANCH   1  11
ATOM      7  C   UNL     1       4.799   4.888  16.885  0.00  0.00    +0.000 A 
ATOM      8  C   UNL     1       5.254   4.346  15.671  0.00  0.00    +0.000 A 
ATOM      9  C   UNL     1       6.576   4.508  15.264  0.00  0.00    +0.000 A 
ATOM     10  C   UNL     1       7.461   5.243  16.043  0.00  0.00    +0.000 A 
ATOM     11  C   UNL     1       7.042   5.823  17.243  0.00  0.00    +0.000 A 
ATOM     12  C   UNL     1       5.730   5.595  17.684  0.00  0.00    +0.000 A 
BRANCH   7  14
ATOM     13  C   UNL     1       3.014   5.547  18.624  0.00  0.00    +0.000 C 
ATOM     14  C   UNL     1       3.336   4.767  17.337  0.00  0.00    +0.000 C 
BRANCH  14  15
ATOM     15  S   UNL     1       2.934   2.980  17.582  0.00  0.00    +0.000 S 
BRANCH  15  16
ATOM     16  C   UNL     1       3.372   2.720  19.230  0.00  0.00    +0.000 A 
ATOM     17  N   UNL     1       4.573   2.487  19.709  0.00  0.00    +0.000 NA
ATOM     18  N   UNL     1       4.439   2.232  21.058  0.00  0.00    +0.000 NA
ATOM     19  C   UNL     1       3.164   2.339  21.359  0.00  0.00    +0.000 A 
ATOM     20  N   UNL     1       2.460   2.676  20.242  0.00  0.00    +0.000 N 
ATOM     21  C   UNL     1       1.044   2.918  20.174  0.00  0.00    +0.000 C 
ENDBRANCH  15  16
ENDBRANCH  14  15
ENDBRANCH   7  14
ENDBRANCH   1  11
BRANCH   4  22
ATOM     22  C   UNL     1       9.037   9.981  18.875  0.00  0.00    +0.000 A 
ATOM     23  C   UNL     1       9.082  10.830  17.760  0.00  0.00    +0.000 A 
ATOM     24  C   UNL     1       9.286  12.203  17.916  0.00  0.00    +0.000 A 
ATOM     25  C   UNL     1       9.438  12.729  19.198  0.00  0.00    +0.000 A 
ATOM     26  C   UNL     1       9.390  11.892  20.318  0.00  0.00    +0.000 A 
ATOM     27  C   UNL     1       9.157  10.523  20.158  0.00  0.00    +0.000 A 
BRANCH  25  28
ATOM     28  S   UNL     1       9.782  14.468  19.412  0.00  0.00    +0.000 S 
ATOM     29  O   UNL     1       8.951  15.188  18.472  0.00  0.00    +0.000 OA
ATOM     30  O   UNL     1       9.727  14.754  20.832  0.00  0.00    +0.000 OA
BRANCH  28  31
ATOM     31  N   UNL     1      11.403  14.598  18.905  0.00  0.00    +0.000 NA
ATOM     32  C   UNL     1      12.333  13.553  19.363  0.00  0.00    +0.000 C 
ATOM     33  C   UNL     1      11.623  15.003  17.506  0.00  0.00    +0.000 C 
ENDBRANCH  28  31
ENDBRANCH  25  28
ENDBRANCH   4  22
TORSDOF 7
ENDMDL
MODEL 7
REMARK VINA RESULT:      -8.0      6.726      8.673
REMARK  Name = 
REMARK  11 active torsions:
REMARK  status: ('A' for Active; 'I' for Inactive)
REMARK    1  A    between atoms: C_1  and  C_2
REMARK    2  A    between atoms: C_2  and  S_3
REMARK    3  A    between atoms: C_2  and  C_10
REMARK    4  A    between atoms: S_3  and  C_4
REMARK    5  A    between atoms: N_8  and  C_9
REMARK    6  A    between atoms: C_14  and  N_15
REMARK    7  A    between atoms: N_18  and  C_19
REMARK    8  A    between atoms: C_22  and  S_23
REMARK    9  A    between atoms: S_23  and  N_26
REMARK   10  A    between atoms: N_26  and  C_27
REMARK   11  A    between atoms: N_26  and  C_28
REMARK                            x       y       z     vdW  Elec       q    Type
REMARK                         _______ _______ _______ _____ _____    ______ ____
ROOT
ATOM      1  N   UNL     1       8.010   7.452  18.416  0.00  0.00    +0.000 N 
ATOM      2  C   UNL     1       8.188   8.819  18.271  0.00  0.00    +0.000 C 
ATOM      3  O   UNL     1       7.465   9.553  17.606  0.00  0.00    +0.000 OA
ATOM      4  N   UNL     1       9.311   9.270  18.954  0.00  0.00    +0.000 N 
ATOM      5  H   UNL     1       8.339   7.061  19.287  0.00  0.00    +0.000 HD
ATOM      6  H   UNL     1      10.076   8.609  18.975  0.00  0.00    +0.000 HD
ENDROOT
BRANCH   1  11
ATOM      7  C   UNL     1       4.676   6.112  17.385  0.00  0.00    +0.000 A 
ATOM      8  C   UNL     1       5.049   5.382  16.243  0.00  0.00    +0.000 A 
ATOM      9  C   UNL     1       6.383   5.289  15.855  0.00  0.00    +0.000 A 
ATOM     10  C   UNL     1       7.368   5.949  16.577  0.00  0.00    +0.000 A 
ATOM     11  C   UNL     1       7.038   6.709  17.702  0.00  0.00    +0.000 A 
ATOM     12  C   UNL     1       5.703   6.740  18.131  0.00  0.00    +0.000 A 
BRANCH   7  14
ATOM     13  C   UNL     1       2.712   7.729  17.795  0.00  0.00    +0.000 C 
ATOM     14  C   UNL     1       3.210   6.273  17.810  0.00  0.00    +0.000 C 
BRANCH  14  15
ATOM     15  S   UNL     1       3.001   5.569  19.506  0.00  0.00    +0.000 S 
BRANCH  15  16
ATOM     16  C   UNL     1       2.307   4.022  19.186  0.00  0.00    +0.000 A 
ATOM     17  N   UNL     1       1.072   3.761  18.824  0.00  0.00    +0.000 NA
ATOM     18  N   UNL     1       0.930   2.390  18.788  0.00  0.00    +0.000 NA
ATOM     19  C   UNL     1       2.090   1.862  19.110  0.00  0.00    +0.000 A 
ATOM     20  N   UNL     1       2.994   2.854  19.338  0.00  0.00    +0.000 N 
ATOM     21  C   UNL     1       4.381   2.677  19.679  0.00  0.00    +0.000 C 
ENDBRANCH  15  16
ENDBRANCH  14  15
ENDBRANCH   7  14
ENDBRANCH   1  11
BRANCH   4  22
ATOM     22  C   UNL     1       9.659  10.643  18.961  0.00  0.00    +0.000 A 
ATOM     23  C   UNL     1       9.322  11.479  20.036  0.00  0.00    +0.000 A 
ATOM     24  C   UNL     1       9.603  12.846  19.993  0.00  0.00    +0.000 A 
ATOM     25  C   UNL     1      10.231  13.379  18.867  0.00  0.00    +0.000 A 
ATOM     26  C   UNL     1      10.575  12.554  17.791  0.00  0.00    +0.000 A 
ATOM     27  C   UNL     1      10.318  11.181  17.853  0.00  0.00    +0.000 A 
BRANCH  25  28
ATOM     28  S   UNL     1      10.523  15.137  18.758  0.00  0.00    +0.000 S 
ATOM     29  O   UNL     1      11.568  15.457  19.705  0.00  0.00    +0.000 OA
ATOM     30  O   UNL     1      10.655  15.473  17.354  0.00  0.00    +0.000 OA
BRANCH  28  31
ATOM     31  N   UNL     1       9.060  15.799  19.330  0.00  0.00    +0.000 NA
ATOM     32  C   UNL     1       9.145  16.711  20.481  0.00  0.00    +0.000 C 
ATOM     33  C   UNL     1       8.094  16.236  18.308  0.00  0.00    +0.000 C 
ENDBRANCH  28  31
ENDBRANCH  25  28
ENDBRANCH   4  22
TORSDOF 7
ENDMDL
MODEL 8
REMARK VINA RESULT:      -8.0      6.438      8.593
REMARK  Name = 
REMARK  11 active torsions:
REMARK  status: ('A' for Active; 'I' for Inactive)
REMARK    1  A    between atoms: C_1  and  C_2
REMARK    2  A    between atoms: C_2  and  S_3
REMARK    3  A    between atoms: C_2  and  C_10
REMARK    4  A    between atoms: S_3  and  C_4
REMARK    5  A    between atoms: N_8  and  C_9
REMARK    6  A    between atoms: C_14  and  N_15
REMARK    7  A    between atoms: N_18  and  C_19
REMARK    8  A    between atoms: C_22  and  S_23
REMARK    9  A    between atoms: S_23  and  N_26
REMARK   10  A    between atoms: N_26  and  C_27
REMARK   11  A    between atoms: N_26  and  C_28
REMARK                            x       y       z     vdW  Elec       q    Type
REMARK                         _______ _______ _______ _____ _____    ______ ____
ROOT
ATOM      1  N   UNL     1       8.290   7.277  18.817  0.00  0.00    +0.000 N 
ATOM      2  C   UNL     1       8.317   8.638  18.552  0.00  0.00    +0.000 C 
ATOM      3  O   UNL     1       7.515   9.227  17.836  0.00  0.00    +0.000 OA
ATOM      4  N   UNL     1       9.387   9.267  19.178  0.00  0.00    +0.000 N 
ATOM      5  H   UNL     1       8.664   7.003  19.715  0.00  0.00    +0.000 HD
ATOM      6  H   UNL     1      10.219   8.696  19.246  0.00  0.00    +0.000 HD
ENDROOT
BRANCH   1  11
ATOM      7  C   UNL     1       5.482   4.852  18.365  0.00  0.00    +0.000 A 
ATOM      8  C   UNL     1       5.523   4.688  16.970  0.00  0.00    +0.000 A 
ATOM      9  C   UNL     1       6.496   5.322  16.201  0.00  0.00    +0.000 A 
ATOM     10  C   UNL     1       7.425   6.160  16.803  0.00  0.00    +0.000 A 
ATOM     11  C   UNL     1       7.402   6.373  18.184  0.00  0.00    +0.000 A 
ATOM     12  C   UNL     1       6.467   5.676  18.962  0.00  0.00    +0.000 A 
BRANCH   7  14
ATOM     13  C   UNL     1       4.521   2.677  19.358  0.00  0.00    +0.000 C 
ATOM     14  C   UNL     1       4.393   4.205  19.233  0.00  0.00    +0.000 C 
BRANCH  14  15
ATOM     15  S   UNL     1       2.739   4.629  18.528  0.00  0.00    +0.000 S 
BRANCH  15  16
ATOM     16  C   UNL     1       2.278   6.008  19.457  0.00  0.00    +0.000 A 
ATOM     17  N   UNL     1       1.683   6.018  20.628  0.00  0.00    +0.000 NA
ATOM     18  N   UNL     1       1.408   7.333  20.942  0.00  0.00    +0.000 NA
ATOM     19  C   UNL     1       1.863   8.080  19.961  0.00  0.00    +0.000 A 
ATOM     20  N   UNL     1       2.447   7.288  19.019  0.00  0.00    +0.000 N 
ATOM     21  C   UNL     1       3.091   7.737  17.814  0.00  0.00    +0.000 C 
ENDBRANCH  15  16
ENDBRANCH  14  15
ENDBRANCH   7  14
ENDBRANCH   1  11
BRANCH   4  22
ATOM     22  C   UNL     1       9.583  10.664  19.061  0.00  0.00    +0.000 A 
ATOM     23  C   UNL     1       9.281  11.537  20.116  0.00  0.00    +0.000 A 
ATOM     24  C   UNL     1       9.405  12.919  19.957  0.00  0.00    +0.000 A 
ATOM     25  C   UNL     1       9.841  13.430  18.734  0.00  0.00    +0.000 A 
ATOM     26  C   UNL     1      10.149  12.567  17.676  0.00  0.00    +0.000 A 
ATOM     27  C   UNL     1      10.051  11.183  17.851  0.00  0.00    +0.000 A 
BRANCH  25  28
ATOM     28  S   UNL     1       9.927  15.195  18.485  0.00  0.00    +0.000 S 
ATOM     29  O   UNL     1      10.536  15.766  19.666  0.00  0.00    +0.000 OA
ATOM     30  O   UNL     1      10.486  15.426  17.168  0.00  0.00    +0.000 OA
BRANCH  28  31
ATOM     31  N   UNL     1       8.285  15.653  18.455  0.00  0.00    +0.000 NA
ATOM     32  C   UNL     1       7.353  14.750  17.760  0.00  0.00    +0.000 C 
ATOM     33  C   UNL     1       7.737  16.213  19.700  0.00  0.00    +0.000 C 
ENDBRANCH  28  31
ENDBRANCH  25  28
ENDBRANCH   4  22
TORSDOF 7
ENDMDL
MODEL 9
REMARK VINA RESULT:      -7.9      5.854      8.168
REMARK  Name = 
REMARK  11 active torsions:
REMARK  status: ('A' for Active; 'I' for Inactive)
REMARK    1  A    between atoms: C_1  and  C_2
REMARK    2  A    between atoms: C_2  and  S_3
REMARK    3  A    between atoms: C_2  and  C_10
REMARK    4  A    between atoms: S_3  and  C_4
REMARK    5  A    between atoms: N_8  and  C_9
REMARK    6  A    between atoms: C_14  and  N_15
REMARK    7  A    between atoms: N_18  and  C_19
REMARK    8  A    between atoms: C_22  and  S_23
REMARK    9  A    between atoms: S_23  and  N_26
REMARK   10  A    between atoms: N_26  and  C_27
REMARK   11  A    between atoms: N_26  and  C_28
REMARK                            x       y       z     vdW  Elec       q    Type
REMARK                         _______ _______ _______ _____ _____    ______ ____
ROOT
ATOM      1  N   UNL     1       7.843   6.405  18.309  0.00  0.00    +0.000 N 
ATOM      2  C   UNL     1       7.867   7.786  18.189  0.00  0.00    +0.000 C 
ATOM      3  O   UNL     1       7.098   8.441  17.493  0.00  0.00    +0.000 OA
ATOM      4  N   UNL     1       8.891   8.354  18.937  0.00  0.00    +0.000 N 
ATOM      5  H   UNL     1       8.170   6.041  19.193  0.00  0.00    +0.000 HD
ATOM      6  H   UNL     1       9.726   7.786  18.992  0.00  0.00    +0.000 HD
ENDROOT
BRANCH   1  11
ATOM      7  C   UNL     1       5.064   4.063  17.436  0.00  0.00    +0.000 A 
ATOM      8  C   UNL     1       5.221   4.006  16.041  0.00  0.00    +0.000 A 
ATOM      9  C   UNL     1       6.261   4.683  15.408  0.00  0.00    +0.000 A 
ATOM     10  C   UNL     1       7.142   5.459  16.149  0.00  0.00    +0.000 A 
ATOM     11  C   UNL     1       7.004   5.565  17.536  0.00  0.00    +0.000 A 
ATOM     12  C   UNL     1       6.002   4.824  18.176  0.00  0.00    +0.000 A 
BRANCH   7  14
ATOM     13  C   UNL     1       3.826   1.851  17.904  0.00  0.00    +0.000 C 
ATOM     14  C   UNL     1       3.901   3.367  18.157  0.00  0.00    +0.000 C 
BRANCH  14  15
ATOM     15  S   UNL     1       2.315   4.159  17.633  0.00  0.00    +0.000 S 
BRANCH  15  16
ATOM     16  C   UNL     1       2.163   5.467  18.748  0.00  0.00    +0.000 A 
ATOM     17  N   UNL     1       2.474   6.727  18.546  0.00  0.00    +0.000 NA
ATOM     18  N   UNL     1       2.294   7.394  19.740  0.00  0.00    +0.000 NA
ATOM     19  C   UNL     1       1.861   6.522  20.622  0.00  0.00    +0.000 A 
ATOM     20  N   UNL     1       1.734   5.302  20.031  0.00  0.00    +0.000 N 
ATOM     21  C   UNL     1       1.255   4.100  20.660  0.00  0.00    +0.000 C 
ENDBRANCH  15  16
ENDBRANCH  14  15
ENDBRANCH   7  14
ENDBRANCH   1  11
BRANCH   4  22
ATOM     22  C   UNL     1       9.074   9.758  18.977  0.00  0.00    +0.000 A 
ATOM     23  C   UNL     1       9.308  10.432  20.184  0.00  0.00    +0.000 A 
ATOM     24  C   UNL     1       9.407  11.825  20.216  0.00  0.00    +0.000 A 
ATOM     25  C   UNL     1       9.278  12.546  19.029  0.00  0.00    +0.000 A 
ATOM     26  C   UNL     1       9.049  11.883  17.819  0.00  0.00    +0.000 A 
ATOM     27  C   UNL     1       8.980  10.487  17.788  0.00  0.00    +0.000 A 
BRANCH  25  28
ATOM     28  S   UNL     1       9.320  14.331  19.062  0.00  0.00    +0.000 S 
ATOM     29  O   UNL     1       9.932  14.723  20.312  0.00  0.00    +0.000 OA
ATOM     30  O   UNL     1       9.856  14.780  17.792  0.00  0.00    +0.000 OA
BRANCH  28  31
ATOM     31  N   UNL     1       7.668  14.746  19.121  0.00  0.00    +0.000 NA
ATOM     32  C   UNL     1       7.180  15.370  20.361  0.00  0.00    +0.000 C 
ATOM     33  C   UNL     1       7.098  15.345  17.902  0.00  0.00    +0.000 C 
ENDBRANCH  28  31
ENDBRANCH  25  28
ENDBRANCH   4  22
TORSDOF 7
ENDMDL
