MODEL 1
REMARK VINA RESULT:      -9.5      0.000      0.000
REMARK  Name = 
REMARK  7 active torsions:
REMARK  status: ('A' for Active; 'I' for Inactive)
REMARK    1  A    between atoms: C_1  and  C_2
REMARK    2  A    between atoms: C_6  and  C_7
REMARK    3  A    between atoms: N_12  and  C_13
REMARK    4  A    between atoms: C_17  and  C_18
REMARK    5  A    between atoms: C_18  and  C_19
REMARK    6  A    between atoms: C_19  and  C_20
REMARK    7  A    between atoms: N_24  and  C_25
REMARK                            x       y       z     vdW  Elec       q    Type
REMARK                         _______ _______ _______ _____ _____    ______ ____
ROOT
ATOM      1  C   UNL     1       2.936   6.166  18.922  0.00  0.00    +0.000 A 
ATOM      2  C   UNL     1       2.686   5.130  19.822  0.00  0.00    +0.000 A 
ATOM      3  C   UNL     1       3.302   3.893  19.659  0.00  0.00    +0.000 A 
ATOM      4  C   UNL     1       4.176   3.684  18.594  0.00  0.00    +0.000 A 
ATOM      5  C   UNL     1       4.458   4.694  17.654  0.00  0.00    +0.000 A 
ATOM      6  C   UNL     1       3.776   5.915  17.826  0.00  0.00    +0.000 A 
ENDROOT
BRANCH   1  15
ATOM      7  C   UNL     1      -1.289  12.049  18.318  0.00  0.00    +0.000 C 
ATOM      8  C   UNL     1      -0.402  11.004  18.928  0.00  0.00    +0.000 A 
ATOM      9  C   UNL     1       0.595  10.413  18.173  0.00  0.00    +0.000 A 
ATOM     10  C   UNL     1       1.275   9.396  18.792  0.00  0.00    +0.000 A 
ATOM     11  C   UNL     1       0.999   8.988  20.086  0.00  0.00    +0.000 A 
ATOM     12  C   UNL     1       0.002   9.612  20.800  0.00  0.00    +0.000 A 
ATOM     13  N   UNL     1      -0.691  10.624  20.211  0.00  0.00    +0.000 NA
ATOM     14  C   UNL     1       1.826   7.808  20.437  0.00  0.00    +0.000 C 
ATOM     15  N   UNL     1       2.480   7.480  19.175  0.00  0.00    +0.000 N 
ATOM     16  C   UNL     1       2.231   8.455  18.206  0.00  0.00    +0.000 C 
ATOM     17  O   UNL     1       2.631   8.555  17.059  0.00  0.00    +0.000 OA
BRANCH  12  18
ATOM     18  C   UNL     1      -0.423   9.123  22.165  0.00  0.00    +0.000 C 
ATOM     19  C   UNL     1       0.393   9.440  23.398  0.00  0.00    +0.000 C 
ATOM     20  C   UNL     1      -0.939  10.097  23.194  0.00  0.00    +0.000 C 
ENDBRANCH  12  18
ENDBRANCH   1  15
BRANCH   5  21
ATOM     21  C   UNL     1       5.568   4.506  16.517  0.00  0.00    +0.000 C 
ATOM     22  C   UNL     1       5.357   3.400  15.440  0.00  0.00    +0.000 C 
ATOM     23  O   UNL     1       5.671   4.341  14.376  0.00  0.00    +0.000 OA
ATOM     24  C   UNL     1       5.395   5.437  15.280  0.00  0.00    +0.000 C 
BRANCH  21  25
ATOM     25  C   UNL     1       6.999   4.559  17.079  0.00  0.00    +0.000 C 
BRANCH  25  26
ATOM     26  C   UNL     1       7.455   5.938  17.423  0.00  0.00    +0.000 A 
ATOM     27  N   UNL     1       7.502   6.967  16.598  0.00  0.00    +0.000 NA
ATOM     28  N   UNL     1       7.917   8.070  17.305  0.00  0.00    +0.000 NA
ATOM     29  C   UNL     1       8.116   7.695  18.546  0.00  0.00    +0.000 A 
ATOM     30  N   UNL     1       7.854   6.364  18.661  0.00  0.00    +0.000 N 
ATOM     31  C   UNL     1       7.964   5.598  19.876  0.00  0.00    +0.000 C 
ENDBRANCH  25  26
ENDBRANCH  21  25
ENDBRANCH   5  21
TORSDOF 5
ENDMDL
MODEL 2
REMARK VINA RESULT:      -9.0      0.737      1.211
REMARK  Name = 
REMARK  7 active torsions:
REMARK  status: ('A' for Active; 'I' for Inactive)
REMARK    1  A    between atoms: C_1  and  C_2
REMARK    2  A    between atoms: C_6  and  C_7
REMARK    3  A    between atoms: N_12  and  C_13
REMARK    4  A    between atoms: C_17  and  C_18
REMARK    5  A    between atoms: C_18  and  C_19
REMARK    6  A    between atoms: C_19  and  C_20
REMARK    7  A    between atoms: N_24  and  C_25
REMARK                            x       y       z     vdW  Elec       q    Type
REMARK                         _______ _______ _______ _____ _____    ______ ____
ROOT
ATOM      1  C   UNL     1       2.790   6.336  18.487  0.00  0.00    +0.000 A 
ATOM      2  C   UNL     1       2.357   5.205  19.179  0.00  0.00    +0.000 A 
ATOM      3  C   UNL     1       2.873   3.950  18.867  0.00  0.00    +0.000 A 
ATOM      4  C   UNL     1       3.829   3.818  17.862  0.00  0.00    +0.000 A 
ATOM      5  C   UNL     1       4.295   4.926  17.130  0.00  0.00    +0.000 A 
ATOM      6  C   UNL     1       3.712   6.171  17.441  0.00  0.00    +0.000 A 
ENDROOT
BRANCH   1  15
ATOM      7  C   UNL     1      -1.017  12.522  18.719  0.00  0.00    +0.000 C 
ATOM      8  C   UNL     1      -0.198  11.350  19.173  0.00  0.00    +0.000 A 
ATOM      9  C   UNL     1       0.744  10.793  18.329  0.00  0.00    +0.000 A 
ATOM     10  C   UNL     1       1.360   9.661  18.800  0.00  0.00    +0.000 A 
ATOM     11  C   UNL     1       1.073   9.113  20.038  0.00  0.00    +0.000 A 
ATOM     12  C   UNL     1       0.132   9.708  20.846  0.00  0.00    +0.000 A 
ATOM     13  N   UNL     1      -0.496  10.831  20.404  0.00  0.00    +0.000 NA
ATOM     14  C   UNL     1       1.819   7.844  20.220  0.00  0.00    +0.000 C 
ATOM     15  N   UNL     1       2.431   7.635  18.912  0.00  0.00    +0.000 N 
ATOM     16  C   UNL     1       2.239   8.739  18.079  0.00  0.00    +0.000 C 
ATOM     17  O   UNL     1       2.630   8.957  16.945  0.00  0.00    +0.000 OA
BRANCH  12  18
ATOM     18  C   UNL     1      -0.308   9.080  22.149  0.00  0.00    +0.000 C 
ATOM     19  C   UNL     1       0.452   9.328  23.432  0.00  0.00    +0.000 C 
ATOM     20  C   UNL     1      -0.905   9.933  23.239  0.00  0.00    +0.000 C 
ENDBRANCH  12  18
ENDBRANCH   1  15
BRANCH   5  21
ATOM     21  C   UNL     1       5.494   4.801  16.077  0.00  0.00    +0.000 C 
ATOM     22  C   UNL     1       6.083   3.391  15.777  0.00  0.00    +0.000 C 
ATOM     23  O   UNL     1       6.004   3.635  14.345  0.00  0.00    +0.000 OA
ATOM     24  C   UNL     1       5.044   4.689  14.590  0.00  0.00    +0.000 C 
BRANCH  21  25
ATOM     25  C   UNL     1       6.563   5.891  16.272  0.00  0.00    +0.000 C 
BRANCH  25  26
ATOM     26  C   UNL     1       7.205   5.862  17.620  0.00  0.00    +0.000 A 
ATOM     27  N   UNL     1       7.356   4.797  18.384  0.00  0.00    +0.000 NA
ATOM     28  N   UNL     1       8.044   5.169  19.514  0.00  0.00    +0.000 NA
ATOM     29  C   UNL     1       8.300   6.452  19.419  0.00  0.00    +0.000 A 
ATOM     30  N   UNL     1       7.779   6.930  18.257  0.00  0.00    +0.000 N 
ATOM     31  C   UNL     1       7.859   8.297  17.809  0.00  0.00    +0.000 C 
ENDBRANCH  25  26
ENDBRANCH  21  25
ENDBRANCH   5  21
TORSDOF 5
ENDMDL
MODEL 3
REMARK VINA RESULT:      -8.8      1.644      2.623
REMARK  Name = 
REMARK  7 active torsions:
REMARK  status: ('A' for Active; 'I' for Inactive)
REMARK    1  A    between atoms: C_1  and  C_2
REMARK    2  A    between atoms: C_6  and  C_7
REMARK    3  A    between atoms: N_12  and  C_13
REMARK    4  A    between atoms: C_17  and  C_18
REMARK    5  A    between atoms: C_18  and  C_19
REMARK    6  A    between atoms: C_19  and  C_20
REMARK    7  A    between atoms: N_24  and  C_25
REMARK                            x       y       z     vdW  Elec       q    Type
REMARK                         _______ _______ _______ _____ _____    ______ ____
ROOT
ATOM      1  C   UNL     1       3.077   6.635  19.107  0.00  0.00    +0.000 A 
ATOM      2  C   UNL     1       2.519   5.439  19.558  0.00  0.00    +0.000 A 
ATOM      3  C   UNL     1       3.280   4.273  19.582  0.00  0.00    +0.000 A 
ATOM      4  C   UNL     1       4.607   4.297  19.157  0.00  0.00    +0.000 A 
ATOM      5  C   UNL     1       5.216   5.477  18.687  0.00  0.00    +0.000 A 
ATOM      6  C   UNL     1       4.398   6.623  18.632  0.00  0.00    +0.000 A 
ENDROOT
BRANCH   1  15
ATOM      7  C   UNL     1      -2.185  11.557  18.160  0.00  0.00    +0.000 C 
ATOM      8  C   UNL     1      -1.101  10.759  18.821  0.00  0.00    +0.000 A 
ATOM      9  C   UNL     1      -0.036  10.286  18.077  0.00  0.00    +0.000 A 
ATOM     10  C   UNL     1       0.841   9.478  18.754  0.00  0.00    +0.000 A 
ATOM     11  C   UNL     1       0.687   9.162  20.093  0.00  0.00    +0.000 A 
ATOM     12  C   UNL     1      -0.385   9.664  20.793  0.00  0.00    +0.000 A 
ATOM     13  N   UNL     1      -1.273  10.466  20.147  0.00  0.00    +0.000 NA
ATOM     14  C   UNL     1       1.730   8.194  20.513  0.00  0.00    +0.000 C 
ATOM     15  N   UNL     1       2.393   7.863  19.256  0.00  0.00    +0.000 N 
ATOM     16  C   UNL     1       1.936   8.671  18.213  0.00  0.00    +0.000 C 
ATOM     17  O   UNL     1       2.274   8.725  17.043  0.00  0.00    +0.000 OA
BRANCH  12  18
ATOM     18  C   UNL     1      -0.668   9.249  22.219  0.00  0.00    +0.000 C 
ATOM     19  C   UNL     1       0.288   9.594  23.338  0.00  0.00    +0.000 C 
ATOM     20  C   UNL     1      -1.041  10.282  23.251  0.00  0.00    +0.000 C 
ENDBRANCH  12  18
ENDBRANCH   1  15
BRANCH   5  21
ATOM     21  C   UNL     1       6.776   5.541  18.336  0.00  0.00    +0.000 C 
ATOM     22  C   UNL     1       7.400   6.915  17.946  0.00  0.00    +0.000 C 
ATOM     23  O   UNL     1       8.502   6.705  18.871  0.00  0.00    +0.000 OA
ATOM     24  C   UNL     1       7.713   5.713  19.568  0.00  0.00    +0.000 C 
BRANCH  21  25
ATOM     25  C   UNL     1       7.223   4.379  17.432  0.00  0.00    +0.000 C 
BRANCH  25  26
ATOM     26  C   UNL     1       6.905   4.588  15.989  0.00  0.00    +0.000 A 
ATOM     27  N   UNL     1       7.670   5.206  15.109  0.00  0.00    +0.000 NA
ATOM     28  N   UNL     1       7.058   5.138  13.880  0.00  0.00    +0.000 NA
ATOM     29  C   UNL     1       5.932   4.483  14.032  0.00  0.00    +0.000 A 
ATOM     30  N   UNL     1       5.789   4.133  15.340  0.00  0.00    +0.000 N 
ATOM     31  C   UNL     1       4.674   3.404  15.889  0.00  0.00    +0.000 C 
ENDBRANCH  25  26
ENDBRANCH  21  25
ENDBRANCH   5  21
TORSDOF 5
ENDMDL
MODEL 4
REMARK VINA RESULT:      -8.7      3.351      5.662
REMARK  Name = 
REMARK  7 active torsions:
REMARK  status: ('A' for Active; 'I' for Inactive)
REMARK    1  A    between atoms: C_1  and  C_2
REMARK    2  A    between atoms: C_6  and  C_7
REMARK    3  A    between atoms: N_12  and  C_13
REMARK    4  A    between atoms: C_17  and  C_18
REMARK    5  A    between atoms: C_18  and  C_19
REMARK    6  A    between atoms: C_19  and  C_20
REMARK    7  A    between atoms: N_24  and  C_25
REMARK                            x       y       z     vdW  Elec       q    Type
REMARK                         _______ _______ _______ _____ _____    ______ ____
ROOT
ATOM      1  C   UNL     1       1.137   9.688  19.399  0.00  0.00    +0.000 A 
ATOM      2  C   UNL     1       0.813   9.479  20.740  0.00  0.00    +0.000 A 
ATOM      3  C   UNL     1       1.124   8.271  21.358  0.00  0.00    +0.000 A 
ATOM      4  C   UNL     1       1.765   7.263  20.638  0.00  0.00    +0.000 A 
ATOM      5  C   UNL     1       2.108   7.422  19.282  0.00  0.00    +0.000 A 
ATOM      6  C   UNL     1       1.732   8.640  18.680  0.00  0.00    +0.000 A 
ENDROOT
BRANCH   1  15
ATOM      7  C   UNL     1      -0.633  16.719  18.895  0.00  0.00    +0.000 C 
ATOM      8  C   UNL     1       0.121  15.436  18.708  0.00  0.00    +0.000 A 
ATOM      9  C   UNL     1      -0.559  14.233  18.656  0.00  0.00    +0.000 A 
ATOM     10  C   UNL     1       0.232  13.114  18.592  0.00  0.00    +0.000 A 
ATOM     11  C   UNL     1       1.614  13.174  18.567  0.00  0.00    +0.000 A 
ATOM     12  C   UNL     1       2.245  14.396  18.612  0.00  0.00    +0.000 A 
ATOM     13  N   UNL     1       1.486  15.523  18.679  0.00  0.00    +0.000 NA
ATOM     14  C   UNL     1       2.186  11.805  18.599  0.00  0.00    +0.000 C 
ATOM     15  N   UNL     1       1.010  10.966  18.807  0.00  0.00    +0.000 N 
ATOM     16  C   UNL     1      -0.167  11.712  18.726  0.00  0.00    +0.000 C 
ATOM     17  O   UNL     1      -1.334  11.366  18.802  0.00  0.00    +0.000 OA
BRANCH  12  18
ATOM     18  C   UNL     1       3.748  14.511  18.716  0.00  0.00    +0.000 C 
ATOM     19  C   UNL     1       4.559  15.172  17.624  0.00  0.00    +0.000 C 
ATOM     20  C   UNL     1       4.393  15.854  18.949  0.00  0.00    +0.000 C 
ENDBRANCH  12  18
ENDBRANCH   1  15
BRANCH   5  21
ATOM     21  C   UNL     1       2.970   6.328  18.493  0.00  0.00    +0.000 C 
ATOM     22  C   UNL     1       4.116   6.811  17.555  0.00  0.00    +0.000 C 
ATOM     23  O   UNL     1       5.036   5.850  18.142  0.00  0.00    +0.000 OA
ATOM     24  C   UNL     1       4.170   5.744  19.297  0.00  0.00    +0.000 C 
BRANCH  21  25
ATOM     25  C   UNL     1       2.094   5.219  17.883  0.00  0.00    +0.000 C 
BRANCH  25  26
ATOM     26  C   UNL     1       1.871   4.063  18.799  0.00  0.00    +0.000 A 
ATOM     27  N   UNL     1       1.029   4.030  19.815  0.00  0.00    +0.000 NA
ATOM     28  N   UNL     1       1.070   2.774  20.372  0.00  0.00    +0.000 NA
ATOM     29  C   UNL     1       1.936   2.064  19.688  0.00  0.00    +0.000 A 
ATOM     30  N   UNL     1       2.473   2.837  18.704  0.00  0.00    +0.000 N 
ATOM     31  C   UNL     1       3.462   2.401  17.752  0.00  0.00    +0.000 C 
ENDBRANCH  25  26
ENDBRANCH  21  25
ENDBRANCH   5  21
TORSDOF 5
ENDMDL
MODEL 5
REMARK VINA RESULT:      -8.5      3.407      5.491
REMARK  Name = 
REMARK  7 active torsions:
REMARK  status: ('A' for Active; 'I' for Inactive)
REMARK    1  A    between atoms: C_1  and  C_2
REMARK    2  A    between atoms: C_6  and  C_7
REMARK    3  A    between atoms: N_12  and  C_13
REMARK    4  A    between atoms: C_17  and  C_18
REMARK    5  A    between atoms: C_18  and  C_19
REMARK    6  A    between atoms: C_19  and  C_20
REMARK    7  A    between atoms: N_24  and  C_25
REMARK                            x       y       z     vdW  Elec       q    Type
REMARK                         _______ _______ _______ _____ _____    ______ ____
ROOT
ATOM      1  C   UNL     1       1.171   9.619  19.311  0.00  0.00    +0.000 A 
ATOM      2  C   UNL     1       0.855   9.378  20.648  0.00  0.00    +0.000 A 
ATOM      3  C   UNL     1       1.182   8.160  21.239  0.00  0.00    +0.000 A 
ATOM      4  C   UNL     1       1.831   7.176  20.495  0.00  0.00    +0.000 A 
ATOM      5  C   UNL     1       2.167   7.367  19.142  0.00  0.00    +0.000 A 
ATOM      6  C   UNL     1       1.775   8.593  18.567  0.00  0.00    +0.000 A 
ENDROOT
BRANCH   1  15
ATOM      7  C   UNL     1      -0.643  16.649  18.976  0.00  0.00    +0.000 C 
ATOM      8  C   UNL     1       0.114  15.374  18.750  0.00  0.00    +0.000 A 
ATOM      9  C   UNL     1      -0.560  14.168  18.687  0.00  0.00    +0.000 A 
ATOM     10  C   UNL     1       0.235  13.055  18.587  0.00  0.00    +0.000 A 
ATOM     11  C   UNL     1       1.617  13.123  18.539  0.00  0.00    +0.000 A 
ATOM     12  C   UNL     1       2.242  14.347  18.598  0.00  0.00    +0.000 A 
ATOM     13  N   UNL     1       1.479  15.469  18.700  0.00  0.00    +0.000 NA
ATOM     14  C   UNL     1       2.195  11.757  18.534  0.00  0.00    +0.000 C 
ATOM     15  N   UNL     1       1.028  10.907  18.746  0.00  0.00    +0.000 N 
ATOM     16  C   UNL     1      -0.154  11.648  18.700  0.00  0.00    +0.000 C 
ATOM     17  O   UNL     1      -1.318  11.295  18.789  0.00  0.00    +0.000 OA
BRANCH  12  18
ATOM     18  C   UNL     1       3.746  14.468  18.677  0.00  0.00    +0.000 C 
ATOM     19  C   UNL     1       4.530  15.196  17.608  0.00  0.00    +0.000 C 
ATOM     20  C   UNL     1       4.386  15.801  18.972  0.00  0.00    +0.000 C 
ENDBRANCH  12  18
ENDBRANCH   1  15
BRANCH   5  21
ATOM     21  C   UNL     1       3.038   6.299  18.327  0.00  0.00    +0.000 C 
ATOM     22  C   UNL     1       4.216   6.811  17.445  0.00  0.00    +0.000 C 
ATOM     23  O   UNL     1       5.107   5.811  18.012  0.00  0.00    +0.000 OA
ATOM     24  C   UNL     1       4.207   5.663  19.136  0.00  0.00    +0.000 C 
BRANCH  21  25
ATOM     25  C   UNL     1       2.167   5.233  17.640  0.00  0.00    +0.000 C 
BRANCH  25  26
ATOM     26  C   UNL     1       2.455   3.842  18.099  0.00  0.00    +0.000 A 
ATOM     27  N   UNL     1       3.324   3.010  17.556  0.00  0.00    +0.000 NA
ATOM     28  N   UNL     1       3.341   1.855  18.299  0.00  0.00    +0.000 NA
ATOM     29  C   UNL     1       2.483   2.001  19.281  0.00  0.00    +0.000 A 
ATOM     30  N   UNL     1       1.894   3.224  19.185  0.00  0.00    +0.000 N 
ATOM     31  C   UNL     1       0.896   3.739  20.087  0.00  0.00    +0.000 C 
ENDBRANCH  25  26
ENDBRANCH  21  25
ENDBRANCH   5  21
TORSDOF 5
ENDMDL
MODEL 6
REMARK VINA RESULT:      -8.5      2.566      8.113
REMARK  Name = 
REMARK  7 active torsions:
REMARK  status: ('A' for Active; 'I' for Inactive)
REMARK    1  A    between atoms: C_1  and  C_2
REMARK    2  A    between atoms: C_6  and  C_7
REMARK    3  A    between atoms: N_12  and  C_13
REMARK    4  A    between atoms: C_17  and  C_18
REMARK    5  A    between atoms: C_18  and  C_19
REMARK    6  A    between atoms: C_19  and  C_20
REMARK    7  A    between atoms: N_24  and  C_25
REMARK                            x       y       z     vdW  Elec       q    Type
REMARK                         _______ _______ _______ _____ _____    ______ ____
ROOT
ATOM      1  C   UNL     1       1.269   8.837  20.165  0.00  0.00    +0.000 A 
ATOM      2  C   UNL     1       1.269   8.611  21.542  0.00  0.00    +0.000 A 
ATOM      3  C   UNL     1       0.561   9.456  22.393  0.00  0.00    +0.000 A 
ATOM      4  C   UNL     1      -0.154  10.532  21.871  0.00  0.00    +0.000 A 
ATOM      5  C   UNL     1      -0.182  10.807  20.490  0.00  0.00    +0.000 A 
ATOM      6  C   UNL     1       0.586   9.959  19.668  0.00  0.00    +0.000 A 
ENDROOT
BRANCH   1  15
ATOM      7  C   UNL     1       6.327   5.535  16.124  0.00  0.00    +0.000 C 
ATOM      8  C   UNL     1       5.126   5.729  17.001  0.00  0.00    +0.000 A 
ATOM      9  C   UNL     1       4.377   6.888  16.907  0.00  0.00    +0.000 A 
ATOM     10  C   UNL     1       3.367   7.012  17.827  0.00  0.00    +0.000 A 
ATOM     11  C   UNL     1       3.100   6.044  18.780  0.00  0.00    +0.000 A 
ATOM     12  C   UNL     1       3.868   4.904  18.829  0.00  0.00    +0.000 A 
ATOM     13  N   UNL     1       4.878   4.755  17.931  0.00  0.00    +0.000 NA
ATOM     14  C   UNL     1       2.023   6.507  19.689  0.00  0.00    +0.000 C 
ATOM     15  N   UNL     1       1.812   7.889  19.268  0.00  0.00    +0.000 N 
ATOM     16  C   UNL     1       2.541   8.185  18.115  0.00  0.00    +0.000 C 
ATOM     17  O   UNL     1       2.593   9.204  17.447  0.00  0.00    +0.000 OA
BRANCH  12  18
ATOM     18  C   UNL     1       3.699   3.879  19.927  0.00  0.00    +0.000 C 
ATOM     19  C   UNL     1       2.877   2.629  19.709  0.00  0.00    +0.000 C 
ATOM     20  C   UNL     1       4.369   2.533  19.818  0.00  0.00    +0.000 C 
ENDBRANCH  12  18
ENDBRANCH   1  15
BRANCH   5  21
ATOM     21  C   UNL     1      -1.117  11.951  19.874  0.00  0.00    +0.000 C 
ATOM     22  C   UNL     1      -2.326  11.533  18.986  0.00  0.00    +0.000 C 
ATOM     23  O   UNL     1      -3.209  12.419  19.728  0.00  0.00    +0.000 OA
ATOM     24  C   UNL     1      -2.257  12.436  20.818  0.00  0.00    +0.000 C 
BRANCH  21  25
ATOM     25  C   UNL     1      -0.305  13.127  19.302  0.00  0.00    +0.000 C 
BRANCH  25  26
ATOM     26  C   UNL     1       0.869  13.506  20.142  0.00  0.00    +0.000 A 
ATOM     27  N   UNL     1       0.823  13.950  21.384  0.00  0.00    +0.000 NA
ATOM     28  N   UNL     1       2.111  14.128  21.829  0.00  0.00    +0.000 NA
ATOM     29  C   UNL     1       2.919  13.791  20.852  0.00  0.00    +0.000 A 
ATOM     30  N   UNL     1       2.184  13.410  19.771  0.00  0.00    +0.000 N 
ATOM     31  C   UNL     1       2.724  12.974  18.510  0.00  0.00    +0.000 C 
ENDBRANCH  25  26
ENDBRANCH  21  25
ENDBRANCH   5  21
TORSDOF 5
ENDMDL
MODEL 7
REMARK VINA RESULT:      -8.5      3.181      9.391
REMARK  Name = 
REMARK  7 active torsions:
REMARK  status: ('A' for Active; 'I' for Inactive)
REMARK    1  A    between atoms: C_1  and  C_2
REMARK    2  A    between atoms: C_6  and  C_7
REMARK    3  A    between atoms: N_12  and  C_13
REMARK    4  A    between atoms: C_17  and  C_18
REMARK    5  A    between atoms: C_18  and  C_19
REMARK    6  A    between atoms: C_19  and  C_20
REMARK    7  A    between atoms: N_24  and  C_25
REMARK                            x       y       z     vdW  Elec       q    Type
REMARK                         _______ _______ _______ _____ _____    ______ ____
ROOT
ATOM      1  C   UNL     1       0.692  10.183  18.659  0.00  0.00    +0.000 A 
ATOM      2  C   UNL     1       0.942  11.504  19.033  0.00  0.00    +0.000 A 
ATOM      3  C   UNL     1       0.030  12.508  18.722  0.00  0.00    +0.000 A 
ATOM      4  C   UNL     1      -1.143  12.197  18.036  0.00  0.00    +0.000 A 
ATOM      5  C   UNL     1      -1.440  10.882  17.630  0.00  0.00    +0.000 A 
ATOM      6  C   UNL     1      -0.468   9.903  17.920  0.00  0.00    +0.000 A 
ENDROOT
BRANCH   1  15
ATOM      7  C   UNL     1       2.343   3.469  20.897  0.00  0.00    +0.000 C 
ATOM      8  C   UNL     1       2.476   4.811  20.241  0.00  0.00    +0.000 A 
ATOM      9  C   UNL     1       1.848   5.915  20.787  0.00  0.00    +0.000 A 
ATOM     10  C   UNL     1       1.945   7.070  20.052  0.00  0.00    +0.000 A 
ATOM     11  C   UNL     1       2.631   7.138  18.851  0.00  0.00    +0.000 A 
ATOM     12  C   UNL     1       3.246   6.013  18.353  0.00  0.00    +0.000 A 
ATOM     13  N   UNL     1       3.166   4.854  19.059  0.00  0.00    +0.000 NA
ATOM     14  C   UNL     1       2.471   8.483  18.247  0.00  0.00    +0.000 C 
ATOM     15  N   UNL     1       1.501   9.124  19.130  0.00  0.00    +0.000 N 
ATOM     16  C   UNL     1       1.236   8.335  20.250  0.00  0.00    +0.000 C 
ATOM     17  O   UNL     1       0.525   8.543  21.219  0.00  0.00    +0.000 OA
BRANCH  12  18
ATOM     18  C   UNL     1       3.898   6.003  16.989  0.00  0.00    +0.000 C 
ATOM     19  C   UNL     1       5.368   6.316  16.822  0.00  0.00    +0.000 C 
ATOM     20  C   UNL     1       4.876   4.915  16.623  0.00  0.00    +0.000 C 
ENDBRANCH  12  18
ENDBRANCH   1  15
BRANCH   5  21
ATOM     21  C   UNL     1      -2.847  10.497  16.972  0.00  0.00    +0.000 C 
ATOM     22  C   UNL     1      -3.381  11.359  15.788  0.00  0.00    +0.000 C 
ATOM     23  O   UNL     1      -3.674  10.161  15.017  0.00  0.00    +0.000 OA
ATOM     24  C   UNL     1      -2.768   9.410  15.859  0.00  0.00    +0.000 C 
BRANCH  21  25
ATOM     25  C   UNL     1      -3.916  10.162  18.026  0.00  0.00    +0.000 C 
BRANCH  25  26
ATOM     26  C   UNL     1      -4.939  11.235  18.202  0.00  0.00    +0.000 A 
ATOM     27  N   UNL     1      -6.094  11.317  17.569  0.00  0.00    +0.000 NA
ATOM     28  N   UNL     1      -6.774  12.410  18.049  0.00  0.00    +0.000 NA
ATOM     29  C   UNL     1      -6.024  12.975  18.964  0.00  0.00    +0.000 A 
ATOM     30  N   UNL     1      -4.858  12.282  19.081  0.00  0.00    +0.000 N 
ATOM     31  C   UNL     1      -3.785  12.607  19.985  0.00  0.00    +0.000 C 
ENDBRANCH  25  26
ENDBRANCH  21  25
ENDBRANCH   5  21
TORSDOF 5
ENDMDL
MODEL 8
REMARK VINA RESULT:      -8.5      2.326      8.645
REMARK  Name = 
REMARK  7 active torsions:
REMARK  status: ('A' for Active; 'I' for Inactive)
REMARK    1  A    between atoms: C_1  and  C_2
REMARK    2  A    between atoms: C_6  and  C_7
REMARK    3  A    between atoms: N_12  and  C_13
REMARK    4  A    between atoms: C_17  and  C_18
REMARK    5  A    between atoms: C_18  and  C_19
REMARK    6  A    between atoms: C_19  and  C_20
REMARK    7  A    between atoms: N_24  and  C_25
REMARK                            x       y       z     vdW  Elec       q    Type
REMARK                         _______ _______ _______ _____ _____    ______ ____
ROOT
ATOM      1  C   UNL     1       1.364   8.634  20.000  0.00  0.00    +0.000 A 
ATOM      2  C   UNL     1       1.284   8.422  21.376  0.00  0.00    +0.000 A 
ATOM      3  C   UNL     1       0.520   9.268  22.175  0.00  0.00    +0.000 A 
ATOM      4  C   UNL     1      -0.173  10.333  21.601  0.00  0.00    +0.000 A 
ATOM      5  C   UNL     1      -0.121  10.594  20.218  0.00  0.00    +0.000 A 
ATOM      6  C   UNL     1       0.702   9.745  19.452  0.00  0.00    +0.000 A 
ENDROOT
BRANCH   1  15
ATOM      7  C   UNL     1       6.662   5.396  16.223  0.00  0.00    +0.000 C 
ATOM      8  C   UNL     1       5.425   5.574  17.052  0.00  0.00    +0.000 A 
ATOM      9  C   UNL     1       4.646   6.706  16.903  0.00  0.00    +0.000 A 
ATOM     10  C   UNL     1       3.600   6.821  17.783  0.00  0.00    +0.000 A 
ATOM     11  C   UNL     1       3.326   5.868  18.749  0.00  0.00    +0.000 A 
ATOM     12  C   UNL     1       4.126   4.753  18.853  0.00  0.00    +0.000 A 
ATOM     13  N   UNL     1       5.172   4.614  17.995  0.00  0.00    +0.000 NA
ATOM     14  C   UNL     1       2.204   6.318  19.607  0.00  0.00    +0.000 C 
ATOM     15  N   UNL     1       1.968   7.683  19.146  0.00  0.00    +0.000 N 
ATOM     16  C   UNL     1       2.729   7.974  18.013  0.00  0.00    +0.000 C 
ATOM     17  O   UNL     1       2.774   8.978  17.323  0.00  0.00    +0.000 OA
BRANCH  12  18
ATOM     18  C   UNL     1       3.948   3.749  19.969  0.00  0.00    +0.000 C 
ATOM     19  C   UNL     1       2.944   2.624  19.855  0.00  0.00    +0.000 C 
ATOM     20  C   UNL     1       4.412   2.326  19.791  0.00  0.00    +0.000 C 
ENDBRANCH  12  18
ENDBRANCH   1  15
BRANCH   5  21
ATOM     21  C   UNL     1      -1.027  11.724  19.536  0.00  0.00    +0.000 C 
ATOM     22  C   UNL     1      -0.965  13.175  20.100  0.00  0.00    +0.000 C 
ATOM     23  O   UNL     1      -0.807  13.715  18.759  0.00  0.00    +0.000 OA
ATOM     24  C   UNL     1      -0.382  12.412  18.296  0.00  0.00    +0.000 C 
BRANCH  21  25
ATOM     25  C   UNL     1      -2.455  11.232  19.243  0.00  0.00    +0.000 C 
BRANCH  25  26
ATOM     26  C   UNL     1      -2.674  10.850  17.817  0.00  0.00    +0.000 A 
ATOM     27  N   UNL     1      -1.888  10.075  17.093  0.00  0.00    +0.000 NA
ATOM     28  N   UNL     1      -2.460   9.913  15.854  0.00  0.00    +0.000 NA
ATOM     29  C   UNL     1      -3.583  10.591  15.844  0.00  0.00    +0.000 A 
ATOM     30  N   UNL     1      -3.749  11.206  17.047  0.00  0.00    +0.000 N 
ATOM     31  C   UNL     1      -4.865  12.041  17.407  0.00  0.00    +0.000 C 
ENDBRANCH  25  26
ENDBRANCH  21  25
ENDBRANCH   5  21
TORSDOF 5
ENDMDL
MODEL 9
REMARK VINA RESULT:      -8.4      2.616      8.711
REMARK  Name = 
REMARK  7 active torsions:
REMARK  status: ('A' for Active; 'I' for Inactive)
REMARK    1  A    between atoms: C_1  and  C_2
REMARK    2  A    between atoms: C_6  and  C_7
REMARK    3  A    between atoms: N_12  and  C_13
REMARK    4  A    between atoms: C_17  and  C_18
REMARK    5  A    between atoms: C_18  and  C_19
REMARK    6  A    between atoms: C_19  and  C_20
REMARK    7  A    between atoms: N_24  and  C_25
REMARK                            x       y       z     vdW  Elec       q    Type
REMARK                         _______ _______ _______ _____ _____    ______ ____
ROOT
ATOM      1  C   UNL     1       0.830   9.097  20.648  0.00  0.00    +0.000 A 
ATOM      2  C   UNL     1       0.710   9.115  22.037  0.00  0.00    +0.000 A 
ATOM      3  C   UNL     1       0.050  10.163  22.673  0.00  0.00    +0.000 A 
ATOM      4  C   UNL     1      -0.500  11.200  21.920  0.00  0.00    +0.000 A 
ATOM      5  C   UNL     1      -0.402  11.232  20.516  0.00  0.00    +0.000 A 
ATOM      6  C   UNL     1       0.317  10.180  19.915  0.00  0.00    +0.000 A 
ENDROOT
BRANCH   1  15
ATOM      7  C   UNL     1       5.747   4.545  17.835  0.00  0.00    +0.000 C 
ATOM      8  C   UNL     1       4.496   5.036  18.500  0.00  0.00    +0.000 A 
ATOM      9  C   UNL     1       3.957   6.260  18.148  0.00  0.00    +0.000 A 
ATOM     10  C   UNL     1       2.877   6.662  18.891  0.00  0.00    +0.000 A 
ATOM     11  C   UNL     1       2.347   5.898  19.917  0.00  0.00    +0.000 A 
ATOM     12  C   UNL     1       2.913   4.683  20.225  0.00  0.00    +0.000 A 
ATOM     13  N   UNL     1       3.987   4.259  19.506  0.00  0.00    +0.000 NA
ATOM     14  C   UNL     1       1.256   6.640  20.595  0.00  0.00    +0.000 C 
ATOM     15  N   UNL     1       1.320   7.957  19.970  0.00  0.00    +0.000 N 
ATOM     16  C   UNL     1       2.219   7.969  18.902  0.00  0.00    +0.000 C 
ATOM     17  O   UNL     1       2.511   8.858  18.120  0.00  0.00    +0.000 OA
BRANCH  12  18
ATOM     18  C   UNL     1       2.454   3.871  21.414  0.00  0.00    +0.000 C 
ATOM     19  C   UNL     1       1.312   2.887  21.294  0.00  0.00    +0.000 C 
ATOM     20  C   UNL     1       2.714   2.387  21.466  0.00  0.00    +0.000 C 
ENDBRANCH  12  18
ENDBRANCH   1  15
BRANCH   5  21
ATOM     21  C   UNL     1      -1.154  12.342  19.641  0.00  0.00    +0.000 C 
ATOM     22  C   UNL     1      -0.986  13.841  20.028  0.00  0.00    +0.000 C 
ATOM     23  O   UNL     1      -0.699  14.191  18.646  0.00  0.00    +0.000 OA
ATOM     24  C   UNL     1      -0.375  12.807  18.375  0.00  0.00    +0.000 C 
BRANCH  21  25
ATOM     25  C   UNL     1      -2.603  11.945  19.310  0.00  0.00    +0.000 C 
BRANCH  25  26
ATOM     26  C   UNL     1      -2.760  11.330  17.959  0.00  0.00    +0.000 A 
ATOM     27  N   UNL     1      -1.870  10.576  17.342  0.00  0.00    +0.000 NA
ATOM     28  N   UNL     1      -2.410  10.156  16.150  0.00  0.00    +0.000 NA
ATOM     29  C   UNL     1      -3.617  10.661  16.061  0.00  0.00    +0.000 A 
ATOM     30  N   UNL     1      -3.872  11.416  17.164  0.00  0.00    +0.000 N 
ATOM     31  C   UNL     1      -5.097  12.130  17.419  0.00  0.00    +0.000 C 
ENDBRANCH  25  26
ENDBRANCH  21  25
ENDBRANCH   5  21
TORSDOF 5
ENDMDL
