MODEL 1
REMARK VINA RESULT:      -8.6      0.000      0.000
REMARK  Name = 
REMARK  8 active torsions:
REMARK  status: ('A' for Active; 'I' for Inactive)
REMARK    1  A    between atoms: C_1  and  C_2
REMARK    2  A    between atoms: C_2  and  C_3
REMARK    3  A    between atoms: C_2  and  C_10
REMARK    4  A    between atoms: C_3  and  C_4
REMARK    5  A    between atoms: N_8  and  C_9
REMARK    6  A    between atoms: C_12  and  N_13
REMARK    7  A    between atoms: N_13  and  C_14
REMARK    8  A    between atoms: C_28  and  C_29
REMARK                            x       y       z     vdW  Elec       q    Type
REMARK                         _______ _______ _______ _____ _____    ______ ____
ROOT
ATOM      1  C   UNL     1       0.534  10.465  21.372  0.00  0.00    +0.000 A 
ATOM      2  C   UNL     1       0.695  11.531  20.488  0.00  0.00    +0.000 A 
ATOM      3  C   UNL     1       1.288  11.322  19.246  0.00  0.00    +0.000 A 
ATOM      4  N   UNL     1       1.760  10.117  18.877  0.00  0.00    +0.000 NA
ATOM      5  C   UNL     1       1.671   9.082  19.743  0.00  0.00    +0.000 A 
ATOM      6  N   UNL     1       2.117   7.803  19.353  0.00  0.00    +0.000 N 
ATOM      7  C   UNL     1       1.892   6.621  20.167  0.00  0.00    +0.000 C 
ATOM      8  C   UNL     1       2.444   5.513  19.336  0.00  0.00    +0.000 A 
ATOM      9  C   UNL     1       2.957   6.040  18.154  0.00  0.00    +0.000 A 
ATOM     10  C   UNL     1       3.548   5.250  17.186  0.00  0.00    +0.000 A 
ATOM     11  C   UNL     1       3.613   3.877  17.424  0.00  0.00    +0.000 A 
ATOM     12  C   UNL     1       3.090   3.331  18.610  0.00  0.00    +0.000 A 
ATOM     13  C   UNL     1       2.487   4.144  19.590  0.00  0.00    +0.000 A 
ATOM     14  C   UNL     1       2.743   7.498  18.152  0.00  0.00    +0.000 C 
ATOM     15  O   UNL     1       3.088   8.192  17.213  0.00  0.00    +0.000 OA
ATOM     16  C   UNL     1       1.077   9.238  20.996  0.00  0.00    +0.000 A 
ENDROOT
BRANCH  13  17
ATOM     17  C   UNL     1       1.917   3.525  20.841  0.00  0.00    +0.000 C 
ATOM     18  F   UNL     1       2.418   4.052  21.988  0.00  0.00    +0.000 F 
ATOM     19  F   UNL     1       0.565   3.670  20.918  0.00  0.00    +0.000 F 
ATOM     20  F   UNL     1       2.155   2.186  20.912  0.00  0.00    +0.000 F 
ENDBRANCH  13  17
BRANCH   1  22
ATOM     21  C   UNL     1      -0.730   9.274  23.257  0.00  0.00    +0.000 C 
ATOM     22  C   UNL     1      -0.331  10.608  22.611  0.00  0.00    +0.000 C 
BRANCH  22  23
ATOM     23  C   UNL     1      -1.550  11.531  22.345  0.00  0.00    +0.000 C 
BRANCH  23  24
ATOM     24  C   UNL     1      -1.543  12.817  23.112  0.00  0.00    +0.000 A 
ATOM     25  N   UNL     1      -0.515  13.627  23.278  0.00  0.00    +0.000 NA
ATOM     26  N   UNL     1      -0.903  14.664  24.092  0.00  0.00    +0.000 NA
ATOM     27  C   UNL     1      -2.168  14.485  24.384  0.00  0.00    +0.000 A 
ATOM     28  N   UNL     1      -2.615  13.347  23.786  0.00  0.00    +0.000 N 
ATOM     29  C   UNL     1      -3.955  12.828  23.863  0.00  0.00    +0.000 C 
ENDBRANCH  23  24
ENDBRANCH  22  23
ENDBRANCH   1  22
BRANCH   3  30
ATOM     30  N   UNL     1       1.291  12.403  18.363  0.00  0.00    +0.000 N 
ATOM     31  H   UNL     1       0.437  12.421  17.812  0.00  0.00    +0.000 HD
BRANCH  30  32
ATOM     32  C   UNL     1       1.718  13.705  18.864  0.00  0.00    +0.000 C 
ATOM     33  C   UNL     1       2.817  14.218  17.950  0.00  0.00    +0.000 C 
ATOM     34  C   UNL     1       2.758  15.709  18.154  0.00  0.00    +0.000 C 
ATOM     35  O   UNL     1       1.390  16.035  18.412  0.00  0.00    +0.000 OA
ATOM     36  C   UNL     1       0.687  14.824  18.771  0.00  0.00    +0.000 C 
ENDBRANCH  30  32
ENDBRANCH   3  30
TORSDOF 6
ENDMDL
MODEL 2
REMARK VINA RESULT:      -8.4      0.622      1.005
REMARK  Name = 
REMARK  8 active torsions:
REMARK  status: ('A' for Active; 'I' for Inactive)
REMARK    1  A    between atoms: C_1  and  C_2
REMARK    2  A    between atoms: C_2  and  C_3
REMARK    3  A    between atoms: C_2  and  C_10
REMARK    4  A    between atoms: C_3  and  C_4
REMARK    5  A    between atoms: N_8  and  C_9
REMARK    6  A    between atoms: C_12  and  N_13
REMARK    7  A    between atoms: N_13  and  C_14
REMARK    8  A    between atoms: C_28  and  C_29
REMARK                            x       y       z     vdW  Elec       q    Type
REMARK                         _______ _______ _______ _____ _____    ______ ____
ROOT
ATOM      1  C   UNL     1       0.331  10.624  21.360  0.00  0.00    +0.000 A 
ATOM      2  C   UNL     1       0.370  11.662  20.432  0.00  0.00    +0.000 A 
ATOM      3  C   UNL     1       0.915  11.446  19.168  0.00  0.00    +0.000 A 
ATOM      4  N   UNL     1       1.453  10.264  18.819  0.00  0.00    +0.000 NA
ATOM      5  C   UNL     1       1.482   9.260  19.725  0.00  0.00    +0.000 A 
ATOM      6  N   UNL     1       1.998   8.000  19.360  0.00  0.00    +0.000 N 
ATOM      7  C   UNL     1       1.899   6.839  20.226  0.00  0.00    +0.000 C 
ATOM      8  C   UNL     1       2.488   5.740  19.407  0.00  0.00    +0.000 A 
ATOM      9  C   UNL     1       2.903   6.254  18.183  0.00  0.00    +0.000 A 
ATOM     10  C   UNL     1       3.500   5.470  17.214  0.00  0.00    +0.000 A 
ATOM     11  C   UNL     1       3.676   4.115  17.498  0.00  0.00    +0.000 A 
ATOM     12  C   UNL     1       3.252   3.582  18.729  0.00  0.00    +0.000 A 
ATOM     13  C   UNL     1       2.641   4.389  19.709  0.00  0.00    +0.000 A 
ATOM     14  C   UNL     1       2.585   7.693  18.139  0.00  0.00    +0.000 C 
ATOM     15  O   UNL     1       2.833   8.371  17.159  0.00  0.00    +0.000 OA
ATOM     16  C   UNL     1       0.941   9.424  21.001  0.00  0.00    +0.000 A 
ENDROOT
BRANCH  13  17
ATOM     17  C   UNL     1       2.180   3.781  21.009  0.00  0.00    +0.000 C 
ATOM     18  F   UNL     1       2.635   2.518  21.213  0.00  0.00    +0.000 F 
ATOM     19  F   UNL     1       2.583   4.506  22.088  0.00  0.00    +0.000 F 
ATOM     20  F   UNL     1       0.823   3.706  21.093  0.00  0.00    +0.000 F 
ENDBRANCH  13  17
BRANCH   1  22
ATOM     21  C   UNL     1      -0.838   9.415  23.295  0.00  0.00    +0.000 C 
ATOM     22  C   UNL     1      -0.481  10.755  22.637  0.00  0.00    +0.000 C 
BRANCH  22  23
ATOM     23  C   UNL     1      -1.718  11.667  22.428  0.00  0.00    +0.000 C 
BRANCH  23  24
ATOM     24  C   UNL     1      -1.694  12.946  23.207  0.00  0.00    +0.000 A 
ATOM     25  N   UNL     1      -0.638  13.698  23.449  0.00  0.00    +0.000 NA
ATOM     26  N   UNL     1      -1.024  14.749  24.246  0.00  0.00    +0.000 NA
ATOM     27  C   UNL     1      -2.314  14.638  24.449  0.00  0.00    +0.000 A 
ATOM     28  N   UNL     1      -2.780  13.529  23.812  0.00  0.00    +0.000 N 
ATOM     29  C   UNL     1      -4.147  13.085  23.793  0.00  0.00    +0.000 C 
ENDBRANCH  23  24
ENDBRANCH  22  23
ENDBRANCH   1  22
BRANCH   3  30
ATOM     30  N   UNL     1       0.796  12.489  18.248  0.00  0.00    +0.000 N 
ATOM     31  H   UNL     1      -0.175  12.769  18.144  0.00  0.00    +0.000 HD
BRANCH  30  32
ATOM     32  C   UNL     1       1.742  13.597  18.332  0.00  0.00    +0.000 C 
ATOM     33  C   UNL     1       0.971  14.835  18.756  0.00  0.00    +0.000 C 
ATOM     34  C   UNL     1       2.036  15.701  19.376  0.00  0.00    +0.000 C 
ATOM     35  O   UNL     1       2.987  14.817  19.976  0.00  0.00    +0.000 OA
ATOM     36  C   UNL     1       2.793  13.492  19.431  0.00  0.00    +0.000 C 
ENDBRANCH  30  32
ENDBRANCH   3  30
TORSDOF 6
ENDMDL
MODEL 3
REMARK VINA RESULT:      -8.4      0.608      1.257
REMARK  Name = 
REMARK  8 active torsions:
REMARK  status: ('A' for Active; 'I' for Inactive)
REMARK    1  A    between atoms: C_1  and  C_2
REMARK    2  A    between atoms: C_2  and  C_3
REMARK    3  A    between atoms: C_2  and  C_10
REMARK    4  A    between atoms: C_3  and  C_4
REMARK    5  A    between atoms: N_8  and  C_9
REMARK    6  A    between atoms: C_12  and  N_13
REMARK    7  A    between atoms: N_13  and  C_14
REMARK    8  A    between atoms: C_28  and  C_29
REMARK                            x       y       z     vdW  Elec       q    Type
REMARK                         _______ _______ _______ _____ _____    ______ ____
ROOT
ATOM      1  C   UNL     1       0.395  10.700  21.257  0.00  0.00    +0.000 A 
ATOM      2  C   UNL     1       0.594  11.769  20.385  0.00  0.00    +0.000 A 
ATOM      3  C   UNL     1       1.249  11.566  19.173  0.00  0.00    +0.000 A 
ATOM      4  N   UNL     1       1.744  10.364  18.825  0.00  0.00    +0.000 NA
ATOM      5  C   UNL     1       1.616   9.326  19.683  0.00  0.00    +0.000 A 
ATOM      6  N   UNL     1       2.086   8.050  19.313  0.00  0.00    +0.000 N 
ATOM      7  C   UNL     1       1.826   6.865  20.112  0.00  0.00    +0.000 C 
ATOM      8  C   UNL     1       2.423   5.761  19.306  0.00  0.00    +0.000 A 
ATOM      9  C   UNL     1       2.992   6.294  18.153  0.00  0.00    +0.000 A 
ATOM     10  C   UNL     1       3.633   5.509  17.213  0.00  0.00    +0.000 A 
ATOM     11  C   UNL     1       3.693   4.135  17.451  0.00  0.00    +0.000 A 
ATOM     12  C   UNL     1       3.114   3.585  18.608  0.00  0.00    +0.000 A 
ATOM     13  C   UNL     1       2.460   4.392  19.559  0.00  0.00    +0.000 A 
ATOM     14  C   UNL     1       2.772   7.751  18.144  0.00  0.00    +0.000 C 
ATOM     15  O   UNL     1       3.161   8.449  17.225  0.00  0.00    +0.000 OA
ATOM     16  C   UNL     1       0.960   9.477  20.906  0.00  0.00    +0.000 A 
ENDROOT
BRANCH  13  17
ATOM     17  C   UNL     1       1.831   3.767  20.779  0.00  0.00    +0.000 C 
ATOM     18  F   UNL     1       1.985   2.419  20.842  0.00  0.00    +0.000 F 
ATOM     19  F   UNL     1       2.351   4.260  21.936  0.00  0.00    +0.000 F 
ATOM     20  F   UNL     1       0.490   3.992  20.843  0.00  0.00    +0.000 F 
ENDBRANCH  13  17
BRANCH   1  22
ATOM     21  C   UNL     1      -0.731   9.537  23.245  0.00  0.00    +0.000 C 
ATOM     22  C   UNL     1      -0.532  10.836  22.453  0.00  0.00    +0.000 C 
BRANCH  22  23
ATOM     23  C   UNL     1      -1.874  11.504  22.054  0.00  0.00    +0.000 C 
BRANCH  23  24
ATOM     24  C   UNL     1      -2.516  12.321  23.133  0.00  0.00    +0.000 A 
ATOM     25  N   UNL     1      -3.577  11.989  23.844  0.00  0.00    +0.000 NA
ATOM     26  N   UNL     1      -3.882  13.031  24.684  0.00  0.00    +0.000 NA
ATOM     27  C   UNL     1      -2.985  13.968  24.496  0.00  0.00    +0.000 A 
ATOM     28  N   UNL     1      -2.104  13.566  23.540  0.00  0.00    +0.000 N 
ATOM     29  C   UNL     1      -0.971  14.318  23.071  0.00  0.00    +0.000 C 
ENDBRANCH  23  24
ENDBRANCH  22  23
ENDBRANCH   1  22
BRANCH   3  30
ATOM     30  N   UNL     1       1.291  12.650  18.295  0.00  0.00    +0.000 N 
ATOM     31  H   UNL     1       0.465  12.666  17.703  0.00  0.00    +0.000 HD
BRANCH  30  32
ATOM     32  C   UNL     1       1.689  13.951  18.819  0.00  0.00    +0.000 C 
ATOM     33  C   UNL     1       2.790  14.495  17.926  0.00  0.00    +0.000 C 
ATOM     34  C   UNL     1       2.703  15.982  18.150  0.00  0.00    +0.000 C 
ATOM     35  O   UNL     1       1.326  16.282  18.395  0.00  0.00    +0.000 OA
ATOM     36  C   UNL     1       0.640  15.054  18.728  0.00  0.00    +0.000 C 
ENDBRANCH  30  32
ENDBRANCH   3  30
TORSDOF 6
ENDMDL
MODEL 4
REMARK VINA RESULT:      -8.4      4.277      9.827
REMARK  Name = 
REMARK  8 active torsions:
REMARK  status: ('A' for Active; 'I' for Inactive)
REMARK    1  A    between atoms: C_1  and  C_2
REMARK    2  A    between atoms: C_2  and  C_3
REMARK    3  A    between atoms: C_2  and  C_10
REMARK    4  A    between atoms: C_3  and  C_4
REMARK    5  A    between atoms: N_8  and  C_9
REMARK    6  A    between atoms: C_12  and  N_13
REMARK    7  A    between atoms: N_13  and  C_14
REMARK    8  A    between atoms: C_28  and  C_29
REMARK                            x       y       z     vdW  Elec       q    Type
REMARK                         _______ _______ _______ _____ _____    ______ ____
ROOT
ATOM      1  C   UNL     1       2.994   6.496  18.722  0.00  0.00    +0.000 A 
ATOM      2  C   UNL     1       2.933   5.436  19.624  0.00  0.00    +0.000 A 
ATOM      3  C   UNL     1       2.185   5.559  20.792  0.00  0.00    +0.000 A 
ATOM      4  N   UNL     1       1.543   6.698  21.109  0.00  0.00    +0.000 NA
ATOM      5  C   UNL     1       1.639   7.761  20.278  0.00  0.00    +0.000 A 
ATOM      6  N   UNL     1       0.933   8.945  20.571  0.00  0.00    +0.000 N 
ATOM      7  C   UNL     1       0.856  10.054  19.637  0.00  0.00    +0.000 C 
ATOM      8  C   UNL     1      -0.045  11.026  20.321  0.00  0.00    +0.000 A 
ATOM      9  C   UNL     1      -0.426  10.507  21.554  0.00  0.00    +0.000 A 
ATOM     10  C   UNL     1      -1.256  11.191  22.423  0.00  0.00    +0.000 A 
ATOM     11  C   UNL     1      -1.718  12.445  22.021  0.00  0.00    +0.000 A 
ATOM     12  C   UNL     1      -1.346  12.977  20.773  0.00  0.00    +0.000 A 
ATOM     13  C   UNL     1      -0.503  12.270  19.893  0.00  0.00    +0.000 A 
ATOM     14  C   UNL     1       0.184   9.174  21.718  0.00  0.00    +0.000 C 
ATOM     15  O   UNL     1      -0.014   8.500  22.711  0.00  0.00    +0.000 OA
ATOM     16  C   UNL     1       2.369   7.685  19.091  0.00  0.00    +0.000 A 
ENDROOT
BRANCH  13  17
ATOM     17  C   UNL     1      -0.141  12.860  18.554  0.00  0.00    +0.000 C 
ATOM     18  F   UNL     1       1.162  12.685  18.214  0.00  0.00    +0.000 F 
ATOM     19  F   UNL     1      -0.871  12.320  17.539  0.00  0.00    +0.000 F 
ATOM     20  F   UNL     1      -0.362  14.203  18.502  0.00  0.00    +0.000 F 
ENDBRANCH  13  17
BRANCH   1  22
ATOM     21  C   UNL     1       3.600   4.844  16.858  0.00  0.00    +0.000 C 
ATOM     22  C   UNL     1       3.582   6.302  17.335  0.00  0.00    +0.000 C 
BRANCH  22  23
ATOM     23  C   UNL     1       4.968   6.989  17.208  0.00  0.00    +0.000 C 
BRANCH  23  24
ATOM     24  C   UNL     1       6.113   6.054  16.969  0.00  0.00    +0.000 A 
ATOM     25  N   UNL     1       6.638   5.739  15.800  0.00  0.00    +0.000 NA
ATOM     26  N   UNL     1       7.627   4.807  16.004  0.00  0.00    +0.000 NA
ATOM     27  C   UNL     1       7.709   4.592  17.294  0.00  0.00    +0.000 A 
ATOM     28  N   UNL     1       6.787   5.357  17.940  0.00  0.00    +0.000 N 
ATOM     29  C   UNL     1       6.585   5.404  19.363  0.00  0.00    +0.000 C 
ENDBRANCH  23  24
ENDBRANCH  22  23
ENDBRANCH   1  22
BRANCH   3  30
ATOM     30  N   UNL     1       2.059   4.412  21.579  0.00  0.00    +0.000 N 
ATOM     31  H   UNL     1       1.530   4.611  22.423  0.00  0.00    +0.000 HD
BRANCH  30  32
ATOM     32  C   UNL     1       1.708   3.158  20.923  0.00  0.00    +0.000 C 
ATOM     33  C   UNL     1       0.704   3.471  19.827  0.00  0.00    +0.000 C 
ATOM     34  C   UNL     1       0.867   2.312  18.878  0.00  0.00    +0.000 C 
ATOM     35  O   UNL     1       2.241   1.918  18.943  0.00  0.00    +0.000 OA
ATOM     36  C   UNL     1       2.826   2.482  20.138  0.00  0.00    +0.000 C 
ENDBRANCH  30  32
ENDBRANCH   3  30
TORSDOF 6
ENDMDL
MODEL 5
REMARK VINA RESULT:      -8.3      0.897      1.367
REMARK  Name = 
REMARK  8 active torsions:
REMARK  status: ('A' for Active; 'I' for Inactive)
REMARK    1  A    between atoms: C_1  and  C_2
REMARK    2  A    between atoms: C_2  and  C_3
REMARK    3  A    between atoms: C_2  and  C_10
REMARK    4  A    between atoms: C_3  and  C_4
REMARK    5  A    between atoms: N_8  and  C_9
REMARK    6  A    between atoms: C_12  and  N_13
REMARK    7  A    between atoms: N_13  and  C_14
REMARK    8  A    between atoms: C_28  and  C_29
REMARK                            x       y       z     vdW  Elec       q    Type
REMARK                         _______ _______ _______ _____ _____    ______ ____
ROOT
ATOM      1  C   UNL     1       0.265  10.860  21.183  0.00  0.00    +0.000 A 
ATOM      2  C   UNL     1       0.376  11.900  20.262  0.00  0.00    +0.000 A 
ATOM      3  C   UNL     1       0.992  11.679  19.033  0.00  0.00    +0.000 A 
ATOM      4  N   UNL     1       1.534  10.490  18.713  0.00  0.00    +0.000 NA
ATOM      5  C   UNL     1       1.492   9.483  19.616  0.00  0.00    +0.000 A 
ATOM      6  N   UNL     1       2.011   8.217  19.277  0.00  0.00    +0.000 N 
ATOM      7  C   UNL     1       1.843   7.055  20.132  0.00  0.00    +0.000 C 
ATOM      8  C   UNL     1       2.463   5.949  19.347  0.00  0.00    +0.000 A 
ATOM      9  C   UNL     1       2.959   6.461  18.151  0.00  0.00    +0.000 A 
ATOM     10  C   UNL     1       3.602   5.670  17.217  0.00  0.00    +0.000 A 
ATOM     11  C   UNL     1       3.740   4.312  17.506  0.00  0.00    +0.000 A 
ATOM     12  C   UNL     1       3.235   3.782  18.708  0.00  0.00    +0.000 A 
ATOM     13  C   UNL     1       2.579   4.595  19.652  0.00  0.00    +0.000 A 
ATOM     14  C   UNL     1       2.666   7.904  18.093  0.00  0.00    +0.000 C 
ATOM     15  O   UNL     1       2.982   8.581  17.132  0.00  0.00    +0.000 OA
ATOM     16  C   UNL     1       0.878   9.652  20.857  0.00  0.00    +0.000 A 
ENDROOT
BRANCH  13  17
ATOM     17  C   UNL     1       2.030   3.991  20.920  0.00  0.00    +0.000 C 
ATOM     18  F   UNL     1       2.480   4.595  22.051  0.00  0.00    +0.000 F 
ATOM     19  F   UNL     1       0.672   4.054  20.975  0.00  0.00    +0.000 F 
ATOM     20  F   UNL     1       2.351   2.675  21.048  0.00  0.00    +0.000 F 
ENDBRANCH  13  17
BRANCH   1  22
ATOM     21  C   UNL     1      -0.782   9.706  23.219  0.00  0.00    +0.000 C 
ATOM     22  C   UNL     1      -0.620  11.000  22.409  0.00  0.00    +0.000 C 
BRANCH  22  23
ATOM     23  C   UNL     1      -1.980  11.655  22.052  0.00  0.00    +0.000 C 
BRANCH  23  24
ATOM     24  C   UNL     1      -2.640  12.388  23.179  0.00  0.00    +0.000 A 
ATOM     25  N   UNL     1      -3.666  11.969  23.895  0.00  0.00    +0.000 NA
ATOM     26  N   UNL     1      -4.008  12.956  24.787  0.00  0.00    +0.000 NA
ATOM     27  C   UNL     1      -3.166  13.947  24.622  0.00  0.00    +0.000 A 
ATOM     28  N   UNL     1      -2.286  13.635  23.632  0.00  0.00    +0.000 N 
ATOM     29  C   UNL     1      -1.206  14.467  23.175  0.00  0.00    +0.000 C 
ENDBRANCH  23  24
ENDBRANCH  22  23
ENDBRANCH   1  22
BRANCH   3  30
ATOM     30  N   UNL     1       0.945  12.726  18.111  0.00  0.00    +0.000 N 
ATOM     31  H   UNL     1      -0.012  13.032  17.962  0.00  0.00    +0.000 HD
BRANCH  30  32
ATOM     32  C   UNL     1       1.915  13.808  18.242  0.00  0.00    +0.000 C 
ATOM     33  C   UNL     1       1.179  15.032  18.758  0.00  0.00    +0.000 C 
ATOM     34  C   UNL     1       2.274  15.837  19.406  0.00  0.00    +0.000 C 
ATOM     35  O   UNL     1       3.219  14.900  19.931  0.00  0.00    +0.000 OA
ATOM     36  C   UNL     1       2.986  13.615  19.310  0.00  0.00    +0.000 C 
ENDBRANCH  30  32
ENDBRANCH   3  30
TORSDOF 6
ENDMDL
MODEL 6
REMARK VINA RESULT:      -8.2      4.276      9.827
REMARK  Name = 
REMARK  8 active torsions:
REMARK  status: ('A' for Active; 'I' for Inactive)
REMARK    1  A    between atoms: C_1  and  C_2
REMARK    2  A    between atoms: C_2  and  C_3
REMARK    3  A    between atoms: C_2  and  C_10
REMARK    4  A    between atoms: C_3  and  C_4
REMARK    5  A    between atoms: N_8  and  C_9
REMARK    6  A    between atoms: C_12  and  N_13
REMARK    7  A    between atoms: N_13  and  C_14
REMARK    8  A    between atoms: C_28  and  C_29
REMARK                            x       y       z     vdW  Elec       q    Type
REMARK                         _______ _______ _______ _____ _____    ______ ____
ROOT
ATOM      1  C   UNL     1       3.027   6.397  18.743  0.00  0.00    +0.000 A 
ATOM      2  C   UNL     1       2.946   5.338  19.645  0.00  0.00    +0.000 A 
ATOM      3  C   UNL     1       2.190   5.470  20.807  0.00  0.00    +0.000 A 
ATOM      4  N   UNL     1       1.559   6.616  21.119  0.00  0.00    +0.000 NA
ATOM      5  C   UNL     1       1.675   7.678  20.288  0.00  0.00    +0.000 A 
ATOM      6  N   UNL     1       0.980   8.871  20.576  0.00  0.00    +0.000 N 
ATOM      7  C   UNL     1       0.924   9.981  19.641  0.00  0.00    +0.000 C 
ATOM      8  C   UNL     1       0.030  10.964  20.317  0.00  0.00    +0.000 A 
ATOM      9  C   UNL     1      -0.368  10.449  21.548  0.00  0.00    +0.000 A 
ATOM     10  C   UNL     1      -1.196  11.143  22.410  0.00  0.00    +0.000 A 
ATOM     11  C   UNL     1      -1.640  12.402  22.003  0.00  0.00    +0.000 A 
ATOM     12  C   UNL     1      -1.252  12.930  20.758  0.00  0.00    +0.000 A 
ATOM     13  C   UNL     1      -0.410  12.213  19.886  0.00  0.00    +0.000 A 
ATOM     14  C   UNL     1       0.225   9.109  21.716  0.00  0.00    +0.000 C 
ATOM     15  O   UNL     1       0.011   8.438  22.708  0.00  0.00    +0.000 OA
ATOM     16  C   UNL     1       2.413   7.593  19.108  0.00  0.00    +0.000 A 
ENDROOT
BRANCH  13  17
ATOM     17  C   UNL     1      -0.031  12.798  18.549  0.00  0.00    +0.000 C 
ATOM     18  F   UNL     1       1.294  12.699  18.266  0.00  0.00    +0.000 F 
ATOM     19  F   UNL     1      -0.682  12.193  17.518  0.00  0.00    +0.000 F 
ATOM     20  F   UNL     1      -0.333  14.122  18.458  0.00  0.00    +0.000 F 
ENDBRANCH  13  17
BRANCH   1  22
ATOM     21  C   UNL     1       3.574   4.746  16.860  0.00  0.00    +0.000 C 
ATOM     22  C   UNL     1       3.623   6.196  17.361  0.00  0.00    +0.000 C 
BRANCH  22  23
ATOM     23  C   UNL     1       5.043   6.813  17.264  0.00  0.00    +0.000 C 
BRANCH  23  24
ATOM     24  C   UNL     1       6.153   5.911  17.709  0.00  0.00    +0.000 A 
ATOM     25  N   UNL     1       6.542   5.698  18.952  0.00  0.00    +0.000 NA
ATOM     26  N   UNL     1       7.626   4.854  18.931  0.00  0.00    +0.000 NA
ATOM     27  C   UNL     1       7.861   4.542  17.680  0.00  0.00    +0.000 A 
ATOM     28  N   UNL     1       6.959   5.173  16.878  0.00  0.00    +0.000 N 
ATOM     29  C   UNL     1       6.890   5.065  15.446  0.00  0.00    +0.000 C 
ENDBRANCH  23  24
ENDBRANCH  22  23
ENDBRANCH   1  22
BRANCH   3  30
ATOM     30  N   UNL     1       2.044   4.325  21.593  0.00  0.00    +0.000 N 
ATOM     31  H   UNL     1       1.478   4.521  22.414  0.00  0.00    +0.000 HD
BRANCH  30  32
ATOM     32  C   UNL     1       1.735   3.064  20.929  0.00  0.00    +0.000 C 
ATOM     33  C   UNL     1       0.696   3.345  19.858  0.00  0.00    +0.000 C 
ATOM     34  C   UNL     1       0.890   2.206  18.891  0.00  0.00    +0.000 C 
ATOM     35  O   UNL     1       2.281   1.873  18.923  0.00  0.00    +0.000 OA
ATOM     36  C   UNL     1       2.866   2.448  20.113  0.00  0.00    +0.000 C 
ENDBRANCH  30  32
ENDBRANCH   3  30
TORSDOF 6
ENDMDL
MODEL 7
REMARK VINA RESULT:      -8.2      4.762      9.722
REMARK  Name = 
REMARK  8 active torsions:
REMARK  status: ('A' for Active; 'I' for Inactive)
REMARK    1  A    between atoms: C_1  and  C_2
REMARK    2  A    between atoms: C_2  and  C_3
REMARK    3  A    between atoms: C_2  and  C_10
REMARK    4  A    between atoms: C_3  and  C_4
REMARK    5  A    between atoms: N_8  and  C_9
REMARK    6  A    between atoms: C_12  and  N_13
REMARK    7  A    between atoms: N_13  and  C_14
REMARK    8  A    between atoms: C_28  and  C_29
REMARK                            x       y       z     vdW  Elec       q    Type
REMARK                         _______ _______ _______ _____ _____    ______ ____
ROOT
ATOM      1  C   UNL     1       4.694   5.245  16.761  0.00  0.00    +0.000 A 
ATOM      2  C   UNL     1       4.601   3.945  17.255  0.00  0.00    +0.000 A 
ATOM      3  C   UNL     1       3.799   3.676  18.361  0.00  0.00    +0.000 A 
ATOM      4  N   UNL     1       3.132   4.648  19.009  0.00  0.00    +0.000 NA
ATOM      5  C   UNL     1       3.256   5.927  18.584  0.00  0.00    +0.000 A 
ATOM      6  N   UNL     1       2.525   6.950  19.222  0.00  0.00    +0.000 N 
ATOM      7  C   UNL     1       2.481   8.308  18.708  0.00  0.00    +0.000 C 
ATOM      8  C   UNL     1       1.540   9.002  19.634  0.00  0.00    +0.000 A 
ATOM      9  C   UNL     1       1.107   8.103  20.604  0.00  0.00    +0.000 A 
ATOM     10  C   UNL     1       0.232   8.465  21.611  0.00  0.00    +0.000 A 
ATOM     11  C   UNL     1      -0.224   9.783  21.628  0.00  0.00    +0.000 A 
ATOM     12  C   UNL     1       0.200  10.699  20.648  0.00  0.00    +0.000 A 
ATOM     13  C   UNL     1       1.090  10.320  19.623  0.00  0.00    +0.000 A 
ATOM     14  C   UNL     1       1.722   6.789  20.343  0.00  0.00    +0.000 C 
ATOM     15  O   UNL     1       1.485   5.824  21.045  0.00  0.00    +0.000 OA
ATOM     16  C   UNL     1       4.040   6.246  17.476  0.00  0.00    +0.000 A 
ENDROOT
BRANCH  13  17
ATOM     17  C   UNL     1       1.507  11.320  18.575  0.00  0.00    +0.000 C 
ATOM     18  F   UNL     1       2.338  12.287  19.044  0.00  0.00    +0.000 F 
ATOM     19  F   UNL     1       2.160  10.734  17.534  0.00  0.00    +0.000 F 
ATOM     20  F   UNL     1       0.444  11.976  18.032  0.00  0.00    +0.000 F 
ENDBRANCH  13  17
BRANCH   1  22
ATOM     21  C   UNL     1       5.150   4.405  14.383  0.00  0.00    +0.000 C 
ATOM     22  C   UNL     1       5.347   5.520  15.418  0.00  0.00    +0.000 C 
BRANCH  22  23
ATOM     23  C   UNL     1       6.836   5.923  15.587  0.00  0.00    +0.000 C 
BRANCH  23  24
ATOM     24  C   UNL     1       7.380   5.753  16.972  0.00  0.00    +0.000 A 
ATOM     25  N   UNL     1       7.691   4.613  17.559  0.00  0.00    +0.000 NA
ATOM     26  N   UNL     1       8.097   4.881  18.844  0.00  0.00    +0.000 NA
ATOM     27  C   UNL     1       8.056   6.180  19.009  0.00  0.00    +0.000 A 
ATOM     28  N   UNL     1       7.621   6.770  17.862  0.00  0.00    +0.000 N 
ATOM     29  C   UNL     1       7.460   8.183  17.653  0.00  0.00    +0.000 C 
ENDBRANCH  23  24
ENDBRANCH  22  23
ENDBRANCH   1  22
BRANCH   3  30
ATOM     30  N   UNL     1       3.648   2.334  18.714  0.00  0.00    +0.000 N 
ATOM     31  H   UNL     1       4.536   1.937  19.008  0.00  0.00    +0.000 HD
BRANCH  30  32
ATOM     32  C   UNL     1       2.510   1.961  19.547  0.00  0.00    +0.000 C 
ATOM     33  C   UNL     1       2.767   2.488  20.948  0.00  0.00    +0.000 C 
ATOM     34  C   UNL     1       1.381   2.599  21.527  0.00  0.00    +0.000 C 
ATOM     35  O   UNL     1       0.507   2.923  20.443  0.00  0.00    +0.000 OA
ATOM     36  C   UNL     1       1.185   2.629  19.200  0.00  0.00    +0.000 C 
ENDBRANCH  30  32
ENDBRANCH   3  30
TORSDOF 6
ENDMDL
MODEL 8
REMARK VINA RESULT:      -8.1      0.734      1.020
REMARK  Name = 
REMARK  8 active torsions:
REMARK  status: ('A' for Active; 'I' for Inactive)
REMARK    1  A    between atoms: C_1  and  C_2
REMARK    2  A    between atoms: C_2  and  C_3
REMARK    3  A    between atoms: C_2  and  C_10
REMARK    4  A    between atoms: C_3  and  C_4
REMARK    5  A    between atoms: N_8  and  C_9
REMARK    6  A    between atoms: C_12  and  N_13
REMARK    7  A    between atoms: N_13  and  C_14
REMARK    8  A    between atoms: C_28  and  C_29
REMARK                            x       y       z     vdW  Elec       q    Type
REMARK                         _______ _______ _______ _____ _____    ______ ____
ROOT
ATOM      1  C   UNL     1       0.477  10.470  21.400  0.00  0.00    +0.000 A 
ATOM      2  C   UNL     1       0.621  11.540  20.520  0.00  0.00    +0.000 A 
ATOM      3  C   UNL     1       1.212  11.342  19.275  0.00  0.00    +0.000 A 
ATOM      4  N   UNL     1       1.698  10.144  18.900  0.00  0.00    +0.000 NA
ATOM      5  C   UNL     1       1.623   9.105  19.764  0.00  0.00    +0.000 A 
ATOM      6  N   UNL     1       2.083   7.832  19.369  0.00  0.00    +0.000 N 
ATOM      7  C   UNL     1       1.875   6.646  20.179  0.00  0.00    +0.000 C 
ATOM      8  C   UNL     1       2.436   5.546  19.343  0.00  0.00    +0.000 A 
ATOM      9  C   UNL     1       2.939   6.083  18.161  0.00  0.00    +0.000 A 
ATOM     10  C   UNL     1       3.536   5.303  17.188  0.00  0.00    +0.000 A 
ATOM     11  C   UNL     1       3.618   3.930  17.422  0.00  0.00    +0.000 A 
ATOM     12  C   UNL     1       3.105   3.375  18.608  0.00  0.00    +0.000 A 
ATOM     13  C   UNL     1       2.496   4.177  19.593  0.00  0.00    +0.000 A 
ATOM     14  C   UNL     1       2.708   7.539  18.164  0.00  0.00    +0.000 C 
ATOM     15  O   UNL     1       3.042   8.239  17.226  0.00  0.00    +0.000 OA
ATOM     16  C   UNL     1       1.032   9.250  21.019  0.00  0.00    +0.000 A 
ENDROOT
BRANCH  13  17
ATOM     17  C   UNL     1       1.938   3.548  20.843  0.00  0.00    +0.000 C 
ATOM     18  F   UNL     1       0.586   3.639  20.944  0.00  0.00    +0.000 F 
ATOM     19  F   UNL     1       2.233   2.221  20.928  0.00  0.00    +0.000 F 
ATOM     20  F   UNL     1       2.434   4.116  21.976  0.00  0.00    +0.000 F 
ENDBRANCH  13  17
BRANCH   1  22
ATOM     21  C   UNL     1      -0.789   9.257  23.271  0.00  0.00    +0.000 C 
ATOM     22  C   UNL     1      -0.387  10.598  22.643  0.00  0.00    +0.000 C 
BRANCH  22  23
ATOM     23  C   UNL     1      -1.602  11.529  22.392  0.00  0.00    +0.000 C 
BRANCH  23  24
ATOM     24  C   UNL     1      -1.333  12.987  22.606  0.00  0.00    +0.000 A 
ATOM     25  N   UNL     1      -0.511  13.511  23.495  0.00  0.00    +0.000 NA
ATOM     26  N   UNL     1      -0.595  14.880  23.411  0.00  0.00    +0.000 NA
ATOM     27  C   UNL     1      -1.440  15.167  22.453  0.00  0.00    +0.000 A 
ATOM     28  N   UNL     1      -1.923  14.015  21.913  0.00  0.00    +0.000 N 
ATOM     29  C   UNL     1      -2.863  13.924  20.828  0.00  0.00    +0.000 C 
ENDBRANCH  23  24
ENDBRANCH  22  23
ENDBRANCH   1  22
BRANCH   3  30
ATOM     30  N   UNL     1       1.200  12.426  18.395  0.00  0.00    +0.000 N 
ATOM     31  H   UNL     1       0.353  12.424  17.833  0.00  0.00    +0.000 HD
BRANCH  30  32
ATOM     32  C   UNL     1       1.587  13.736  18.906  0.00  0.00    +0.000 C 
ATOM     33  C   UNL     1       2.694  14.273  18.016  0.00  0.00    +0.000 C 
ATOM     34  C   UNL     1       2.599  15.763  18.219  0.00  0.00    +0.000 C 
ATOM     35  O   UNL     1       1.218  16.059  18.447  0.00  0.00    +0.000 OA
ATOM     36  C   UNL     1       0.534  14.832  18.790  0.00  0.00    +0.000 C 
ENDBRANCH  30  32
ENDBRANCH   3  30
TORSDOF 6
ENDMDL
MODEL 9
REMARK VINA RESULT:      -8.0      1.642      2.021
REMARK  Name = 
REMARK  8 active torsions:
REMARK  status: ('A' for Active; 'I' for Inactive)
REMARK    1  A    between atoms: C_1  and  C_2
REMARK    2  A    between atoms: C_2  and  C_3
REMARK    3  A    between atoms: C_2  and  C_10
REMARK    4  A    between atoms: C_3  and  C_4
REMARK    5  A    between atoms: N_8  and  C_9
REMARK    6  A    between atoms: C_12  and  N_13
REMARK    7  A    between atoms: N_13  and  C_14
REMARK    8  A    between atoms: C_28  and  C_29
REMARK                            x       y       z     vdW  Elec       q    Type
REMARK                         _______ _______ _______ _____ _____    ______ ____
ROOT
ATOM      1  C   UNL     1       0.481  10.232  21.484  0.00  0.00    +0.000 A 
ATOM      2  C   UNL     1       0.435  11.212  20.493  0.00  0.00    +0.000 A 
ATOM      3  C   UNL     1       0.867  10.918  19.203  0.00  0.00    +0.000 A 
ATOM      4  N   UNL     1       1.378   9.716  18.881  0.00  0.00    +0.000 NA
ATOM      5  C   UNL     1       1.490   8.769  19.841  0.00  0.00    +0.000 A 
ATOM      6  N   UNL     1       1.978   7.489  19.509  0.00  0.00    +0.000 N 
ATOM      7  C   UNL     1       1.960   6.384  20.450  0.00  0.00    +0.000 C 
ATOM      8  C   UNL     1       2.479   5.235  19.652  0.00  0.00    +0.000 A 
ATOM      9  C   UNL     1       2.783   5.673  18.367  0.00  0.00    +0.000 A 
ATOM     10  C   UNL     1       3.296   4.829  17.399  0.00  0.00    +0.000 A 
ATOM     11  C   UNL     1       3.501   3.495  17.749  0.00  0.00    +0.000 A 
ATOM     12  C   UNL     1       3.190   3.039  19.043  0.00  0.00    +0.000 A 
ATOM     13  C   UNL     1       2.664   3.905  20.021  0.00  0.00    +0.000 A 
ATOM     14  C   UNL     1       2.456   7.106  18.263  0.00  0.00    +0.000 C 
ATOM     15  O   UNL     1       2.614   7.723  17.225  0.00  0.00    +0.000 OA
ATOM     16  C   UNL     1       1.063   9.012  21.146  0.00  0.00    +0.000 A 
ENDROOT
BRANCH  13  17
ATOM     17  C   UNL     1       2.321   3.379  21.392  0.00  0.00    +0.000 C 
ATOM     18  F   UNL     1       3.035   2.280  21.749  0.00  0.00    +0.000 F 
ATOM     19  F   UNL     1       2.538   4.303  22.367  0.00  0.00    +0.000 F 
ATOM     20  F   UNL     1       1.012   3.022  21.497  0.00  0.00    +0.000 F 
ENDBRANCH  13  17
BRANCH   1  22
ATOM     21  C   UNL     1      -0.412   9.158  23.632  0.00  0.00    +0.000 C 
ATOM     22  C   UNL     1      -0.215  10.443  22.817  0.00  0.00    +0.000 C 
BRANCH  22  23
ATOM     23  C   UNL     1      -1.529  11.250  22.646  0.00  0.00    +0.000 C 
BRANCH  23  24
ATOM     24  C   UNL     1      -1.487  12.643  23.192  0.00  0.00    +0.000 A 
ATOM     25  N   UNL     1      -0.443  13.450  23.206  0.00  0.00    +0.000 NA
ATOM     26  N   UNL     1      -0.798  14.612  23.847  0.00  0.00    +0.000 NA
ATOM     27  C   UNL     1      -2.060  14.508  24.186  0.00  0.00    +0.000 A 
ATOM     28  N   UNL     1      -2.537  13.296  23.790  0.00  0.00    +0.000 N 
ATOM     29  C   UNL     1      -3.882  12.822  23.973  0.00  0.00    +0.000 C 
ENDBRANCH  23  24
ENDBRANCH  22  23
ENDBRANCH   1  22
BRANCH   3  30
ATOM     30  N   UNL     1       0.664  11.902  18.234  0.00  0.00    +0.000 N 
ATOM     31  H   UNL     1       1.197  11.697  17.394  0.00  0.00    +0.000 HD
BRANCH  30  32
ATOM     32  C   UNL     1      -0.698  12.364  17.991  0.00  0.00    +0.000 C 
ATOM     33  C   UNL     1      -1.547  11.151  17.654  0.00  0.00    +0.000 C 
ATOM     34  C   UNL     1      -2.939  11.603  18.010  0.00  0.00    +0.000 C 
ATOM     35  O   UNL     1      -2.810  12.501  19.115  0.00  0.00    +0.000 OA
ATOM     36  C   UNL     1      -1.432  12.933  19.200  0.00  0.00    +0.000 C 
ENDBRANCH  30  32
ENDBRANCH   3  30
TORSDOF 6
ENDMDL
