MODEL 1
REMARK VINA RESULT:      -8.4      0.000      0.000
REMARK  Name = 
REMARK  9 active torsions:
REMARK  status: ('A' for Active; 'I' for Inactive)
REMARK    1  A    between atoms: C_1  and  N_2
REMARK    2  A    between atoms: N_2  and  C_3
REMARK    3  A    between atoms: C_7  and  C_8
REMARK    4  A    between atoms: N_10  and  C_11
REMARK    5  A    between atoms: C_15  and  C_16
REMARK    6  A    between atoms: C_16  and  C_17
REMARK    7  A    between atoms: C_16  and  S_18
REMARK    8  A    between atoms: S_18  and  C_19
REMARK    9  A    between atoms: N_23  and  C_24
REMARK                            x       y       z     vdW  Elec       q    Type
REMARK                         _______ _______ _______ _____ _____    ______ ____
ROOT
ATOM      1  C   UNL     1       7.913   7.913  17.978  0.00  0.00    +0.000 A 
ATOM      2  C   UNL     1       8.365   7.125  19.038  0.00  0.00    +0.000 A 
ATOM      3  C   UNL     1       7.824   5.862  19.275  0.00  0.00    +0.000 A 
ATOM      4  C   UNL     1       6.826   5.359  18.446  0.00  0.00    +0.000 A 
ATOM      5  C   UNL     1       6.352   6.107  17.357  0.00  0.00    +0.000 A 
ATOM      6  C   UNL     1       6.898   7.396  17.144  0.00  0.00    +0.000 A 
ENDROOT
BRANCH   1   9
ATOM      7  C   UNL     1       9.033  10.046  18.659  0.00  0.00    +0.000 C 
ATOM      8  O   UNL     1       9.313   9.752  19.815  0.00  0.00    +0.000 OA
ATOM      9  N   UNL     1       8.419   9.216  17.725  0.00  0.00    +0.000 N 
ATOM     10  H   UNL     1       8.425   9.520  16.760  0.00  0.00    +0.000 HD
BRANCH   7  15
ATOM     11  C   UNL     1       9.005  13.745  17.719  0.00  0.00    +0.000 A 
ATOM     12  C   UNL     1      10.356  13.889  17.363  0.00  0.00    +0.000 A 
ATOM     13  C   UNL     1      11.245  12.816  17.412  0.00  0.00    +0.000 A 
ATOM     14  C   UNL     1      10.790  11.567  17.822  0.00  0.00    +0.000 A 
ATOM     15  C   UNL     1       9.449  11.393  18.183  0.00  0.00    +0.000 A 
ATOM     16  C   UNL     1       8.570  12.488  18.166  0.00  0.00    +0.000 A 
BRANCH  11  18
ATOM     17  C   UNL     1       8.787  16.223  17.746  0.00  0.00    +0.000 C 
ATOM     18  N   UNL     1       8.220  14.892  17.735  0.00  0.00    +0.000 N 
ATOM     19  H   UNL     1       7.366  14.795  18.277  0.00  0.00    +0.000 HD
ENDBRANCH  11  18
ENDBRANCH   7  15
ENDBRANCH   1   9
BRANCH   5  20
ATOM     20  C   UNL     1       5.234   5.562  16.460  0.00  0.00    +0.000 C 
ATOM     21  C   UNL     1       3.957   5.342  17.281  0.00  0.00    +0.000 C 
BRANCH  20  22
ATOM     22  S   UNL     1       5.721   3.987  15.623  0.00  0.00    +0.000 S 
BRANCH  22  23
ATOM     23  C   UNL     1       6.756   4.579  14.367  0.00  0.00    +0.000 A 
ATOM     24  N   UNL     1       7.711   5.470  14.506  0.00  0.00    +0.000 NA
ATOM     25  N   UNL     1       8.260   5.697  13.264  0.00  0.00    +0.000 NA
ATOM     26  C   UNL     1       7.627   4.935  12.405  0.00  0.00    +0.000 A 
ATOM     27  N   UNL     1       6.675   4.204  13.054  0.00  0.00    +0.000 N 
ATOM     28  C   UNL     1       5.778   3.278  12.419  0.00  0.00    +0.000 C 
ENDBRANCH  22  23
ENDBRANCH  20  22
ENDBRANCH   5  20
TORSDOF 6
ENDMDL
MODEL 2
REMARK VINA RESULT:      -8.2      5.463      6.722
REMARK  Name = 
REMARK  9 active torsions:
REMARK  status: ('A' for Active; 'I' for Inactive)
REMARK    1  A    between atoms: C_1  and  N_2
REMARK    2  A    between atoms: N_2  and  C_3
REMARK    3  A    between atoms: C_7  and  C_8
REMARK    4  A    between atoms: N_10  and  C_11
REMARK    5  A    between atoms: C_15  and  C_16
REMARK    6  A    between atoms: C_16  and  C_17
REMARK    7  A    between atoms: C_16  and  S_18
REMARK    8  A    between atoms: S_18  and  C_19
REMARK    9  A    between atoms: N_23  and  C_24
REMARK                            x       y       z     vdW  Elec       q    Type
REMARK                         _______ _______ _______ _____ _____    ______ ____
ROOT
ATOM      1  C   UNL     1       2.977   5.778  19.691  0.00  0.00    +0.000 A 
ATOM      2  C   UNL     1       2.849   4.453  20.110  0.00  0.00    +0.000 A 
ATOM      3  C   UNL     1       3.559   3.429  19.483  0.00  0.00    +0.000 A 
ATOM      4  C   UNL     1       4.422   3.717  18.429  0.00  0.00    +0.000 A 
ATOM      5  C   UNL     1       4.597   5.037  17.984  0.00  0.00    +0.000 A 
ATOM      6  C   UNL     1       3.851   6.060  18.619  0.00  0.00    +0.000 A 
ENDROOT
BRANCH   1   9
ATOM      7  C   UNL     1       1.797   7.985  19.631  0.00  0.00    +0.000 C 
ATOM      8  O   UNL     1       1.880   8.212  18.430  0.00  0.00    +0.000 OA
ATOM      9  N   UNL     1       2.247   6.841  20.285  0.00  0.00    +0.000 N 
ATOM     10  H   UNL     1       1.941   6.703  21.239  0.00  0.00    +0.000 HD
BRANCH   7  15
ATOM     11  C   UNL     1      -0.104  11.103  20.741  0.00  0.00    +0.000 A 
ATOM     12  C   UNL     1      -0.305  10.766  22.090  0.00  0.00    +0.000 A 
ATOM     13  C   UNL     1       0.173   9.571  22.626  0.00  0.00    +0.000 A 
ATOM     14  C   UNL     1       0.870   8.685  21.812  0.00  0.00    +0.000 A 
ATOM     15  C   UNL     1       1.086   8.994  20.463  0.00  0.00    +0.000 A 
ATOM     16  C   UNL     1       0.568  10.181  19.924  0.00  0.00    +0.000 A 
BRANCH  11  18
ATOM     17  C   UNL     1      -0.858  12.550  18.863  0.00  0.00    +0.000 C 
ATOM     18  N   UNL     1      -0.704  12.266  20.274  0.00  0.00    +0.000 N 
ATOM     19  H   UNL     1      -0.514  13.083  20.848  0.00  0.00    +0.000 HD
ENDBRANCH  11  18
ENDBRANCH   7  15
ENDBRANCH   1   9
BRANCH   5  20
ATOM     20  C   UNL     1       5.527   5.349  16.807  0.00  0.00    +0.000 C 
ATOM     21  C   UNL     1       4.978   6.529  15.995  0.00  0.00    +0.000 C 
BRANCH  20  22
ATOM     22  S   UNL     1       5.764   3.885  15.702  0.00  0.00    +0.000 S 
BRANCH  22  23
ATOM     23  C   UNL     1       6.803   4.546  14.484  0.00  0.00    +0.000 A 
ATOM     24  N   UNL     1       7.774   5.410  14.681  0.00  0.00    +0.000 NA
ATOM     25  N   UNL     1       8.321   5.715  13.455  0.00  0.00    +0.000 NA
ATOM     26  C   UNL     1       7.671   5.026  12.547  0.00  0.00    +0.000 A 
ATOM     27  N   UNL     1       6.710   4.267  13.148  0.00  0.00    +0.000 N 
ATOM     28  C   UNL     1       5.794   3.404  12.456  0.00  0.00    +0.000 C 
ENDBRANCH  22  23
ENDBRANCH  20  22
ENDBRANCH   5  20
TORSDOF 6
ENDMDL
MODEL 3
REMARK VINA RESULT:      -8.2      2.644      3.623
REMARK  Name = 
REMARK  9 active torsions:
REMARK  status: ('A' for Active; 'I' for Inactive)
REMARK    1  A    between atoms: C_1  and  N_2
REMARK    2  A    between atoms: N_2  and  C_3
REMARK    3  A    between atoms: C_7  and  C_8
REMARK    4  A    between atoms: N_10  and  C_11
REMARK    5  A    between atoms: C_15  and  C_16
REMARK    6  A    between atoms: C_16  and  C_17
REMARK    7  A    between atoms: C_16  and  S_18
REMARK    8  A    between atoms: S_18  and  C_19
REMARK    9  A    between atoms: N_23  and  C_24
REMARK                            x       y       z     vdW  Elec       q    Type
REMARK                         _______ _______ _______ _____ _____    ______ ____
ROOT
ATOM      1  C   UNL     1       7.727   7.867  17.964  0.00  0.00    +0.000 A 
ATOM      2  C   UNL     1       8.335   6.982  18.857  0.00  0.00    +0.000 A 
ATOM      3  C   UNL     1       7.759   5.746  19.147  0.00  0.00    +0.000 A 
ATOM      4  C   UNL     1       6.567   5.367  18.536  0.00  0.00    +0.000 A 
ATOM      5  C   UNL     1       5.928   6.215  17.618  0.00  0.00    +0.000 A 
ATOM      6  C   UNL     1       6.517   7.475  17.353  0.00  0.00    +0.000 A 
ENDROOT
BRANCH   1   9
ATOM      7  C   UNL     1       8.929   9.978  18.569  0.00  0.00    +0.000 C 
ATOM      8  O   UNL     1       9.225   9.702  19.726  0.00  0.00    +0.000 OA
ATOM      9  N   UNL     1       8.269   9.146  17.669  0.00  0.00    +0.000 N 
ATOM     10  H   UNL     1       8.262   9.428  16.698  0.00  0.00    +0.000 HD
BRANCH   7  15
ATOM     11  C   UNL     1       8.967  13.623  17.439  0.00  0.00    +0.000 A 
ATOM     12  C   UNL     1      10.339  13.751  17.165  0.00  0.00    +0.000 A 
ATOM     13  C   UNL     1      11.222  12.684  17.328  0.00  0.00    +0.000 A 
ATOM     14  C   UNL     1      10.740  11.458  17.772  0.00  0.00    +0.000 A 
ATOM     15  C   UNL     1       9.377  11.299  18.053  0.00  0.00    +0.000 A 
ATOM     16  C   UNL     1       8.502  12.390  17.921  0.00  0.00    +0.000 A 
BRANCH  11  18
ATOM     17  C   UNL     1       7.453  15.307  18.470  0.00  0.00    +0.000 C 
ATOM     18  N   UNL     1       8.184  14.767  17.343  0.00  0.00    +0.000 N 
ATOM     19  H   UNL     1       7.710  14.864  16.450  0.00  0.00    +0.000 HD
ENDBRANCH  11  18
ENDBRANCH   7  15
ENDBRANCH   1   9
BRANCH   5  20
ATOM     20  C   UNL     1       4.602   5.807  16.967  0.00  0.00    +0.000 C 
ATOM     21  C   UNL     1       3.426   6.185  17.877  0.00  0.00    +0.000 C 
BRANCH  20  22
ATOM     22  S   UNL     1       4.543   3.998  16.587  0.00  0.00    +0.000 S 
BRANCH  22  23
ATOM     23  C   UNL     1       3.169   3.503  17.518  0.00  0.00    +0.000 A 
ATOM     24  N   UNL     1       1.911   3.582  17.144  0.00  0.00    +0.000 NA
ATOM     25  N   UNL     1       1.133   3.130  18.185  0.00  0.00    +0.000 NA
ATOM     26  C   UNL     1       1.938   2.786  19.163  0.00  0.00    +0.000 A 
ATOM     27  N   UNL     1       3.232   2.994  18.786  0.00  0.00    +0.000 N 
ATOM     28  C   UNL     1       4.378   2.746  19.616  0.00  0.00    +0.000 C 
ENDBRANCH  22  23
ENDBRANCH  20  22
ENDBRANCH   5  20
TORSDOF 6
ENDMDL
MODEL 4
REMARK VINA RESULT:      -8.2      3.792      5.167
REMARK  Name = 
REMARK  9 active torsions:
REMARK  status: ('A' for Active; 'I' for Inactive)
REMARK    1  A    between atoms: C_1  and  N_2
REMARK    2  A    between atoms: N_2  and  C_3
REMARK    3  A    between atoms: C_7  and  C_8
REMARK    4  A    between atoms: N_10  and  C_11
REMARK    5  A    between atoms: C_15  and  C_16
REMARK    6  A    between atoms: C_16  and  C_17
REMARK    7  A    between atoms: C_16  and  S_18
REMARK    8  A    between atoms: S_18  and  C_19
REMARK    9  A    between atoms: N_23  and  C_24
REMARK                            x       y       z     vdW  Elec       q    Type
REMARK                         _______ _______ _______ _____ _____    ______ ____
ROOT
ATOM      1  C   UNL     1       6.343   6.523  16.809  0.00  0.00    +0.000 A 
ATOM      2  C   UNL     1       7.005   5.508  16.116  0.00  0.00    +0.000 A 
ATOM      3  C   UNL     1       6.386   4.282  15.874  0.00  0.00    +0.000 A 
ATOM      4  C   UNL     1       5.086   4.053  16.314  0.00  0.00    +0.000 A 
ATOM      5  C   UNL     1       4.374   5.049  17.001  0.00  0.00    +0.000 A 
ATOM      6  C   UNL     1       5.026   6.280  17.256  0.00  0.00    +0.000 A 
ENDROOT
BRANCH   1   9
ATOM      7  C   UNL     1       7.896   8.005  18.096  0.00  0.00    +0.000 C 
ATOM      8  O   UNL     1       8.415   7.158  18.815  0.00  0.00    +0.000 OA
ATOM      9  N   UNL     1       6.952   7.772  17.100  0.00  0.00    +0.000 N 
ATOM     10  H   UNL     1       6.757   8.531  16.461  0.00  0.00    +0.000 HD
BRANCH   7  15
ATOM     11  C   UNL     1       9.782  11.100  19.295  0.00  0.00    +0.000 A 
ATOM     12  C   UNL     1       9.247  12.040  18.400  0.00  0.00    +0.000 A 
ATOM     13  C   UNL     1       8.293  11.685  17.446  0.00  0.00    +0.000 A 
ATOM     14  C   UNL     1       7.854  10.367  17.374  0.00  0.00    +0.000 A 
ATOM     15  C   UNL     1       8.369   9.407  18.253  0.00  0.00    +0.000 A 
ATOM     16  C   UNL     1       9.356   9.767  19.185  0.00  0.00    +0.000 A 
BRANCH  11  18
ATOM     17  C   UNL     1      10.854  12.869  20.676  0.00  0.00    +0.000 C 
ATOM     18  N   UNL     1      10.798  11.525  20.141  0.00  0.00    +0.000 N 
ATOM     19  H   UNL     1      11.705  11.121  19.927  0.00  0.00    +0.000 HD
ENDBRANCH  11  18
ENDBRANCH   7  15
ENDBRANCH   1   9
BRANCH   5  20
ATOM     20  C   UNL     1       2.952   4.785  17.508  0.00  0.00    +0.000 C 
ATOM     21  C   UNL     1       2.733   5.481  18.858  0.00  0.00    +0.000 C 
BRANCH  20  22
ATOM     22  S   UNL     1       2.596   2.978  17.670  0.00  0.00    +0.000 S 
BRANCH  22  23
ATOM     23  C   UNL     1       2.214   2.860  19.355  0.00  0.00    +0.000 A 
ATOM     24  N   UNL     1       1.032   3.053  19.897  0.00  0.00    +0.000 NA
ATOM     25  N   UNL     1       1.165   2.911  21.259  0.00  0.00    +0.000 NA
ATOM     26  C   UNL     1       2.422   2.630  21.509  0.00  0.00    +0.000 A 
ATOM     27  N   UNL     1       3.122   2.578  20.339  0.00  0.00    +0.000 N 
ATOM     28  C   UNL     1       4.530   2.316  20.237  0.00  0.00    +0.000 C 
ENDBRANCH  22  23
ENDBRANCH  20  22
ENDBRANCH   5  20
TORSDOF 6
ENDMDL
MODEL 5
REMARK VINA RESULT:      -8.0      7.527     10.435
REMARK  Name = 
REMARK  9 active torsions:
REMARK  status: ('A' for Active; 'I' for Inactive)
REMARK    1  A    between atoms: C_1  and  N_2
REMARK    2  A    between atoms: N_2  and  C_3
REMARK    3  A    between atoms: C_7  and  C_8
REMARK    4  A    between atoms: N_10  and  C_11
REMARK    5  A    between atoms: C_15  and  C_16
REMARK    6  A    between atoms: C_16  and  C_17
REMARK    7  A    between atoms: C_16  and  S_18
REMARK    8  A    between atoms: S_18  and  C_19
REMARK    9  A    between atoms: N_23  and  C_24
REMARK                            x       y       z     vdW  Elec       q    Type
REMARK                         _______ _______ _______ _____ _____    ______ ____
ROOT
ATOM      1  C   UNL     1       0.921   8.592  21.079  0.00  0.00    +0.000 A 
ATOM      2  C   UNL     1       0.572   9.019  22.362  0.00  0.00    +0.000 A 
ATOM      3  C   UNL     1      -0.130  10.208  22.556  0.00  0.00    +0.000 A 
ATOM      4  C   UNL     1      -0.506  10.987  21.465  0.00  0.00    +0.000 A 
ATOM      5  C   UNL     1      -0.193  10.589  20.156  0.00  0.00    +0.000 A 
ATOM      6  C   UNL     1       0.539   9.390  19.980  0.00  0.00    +0.000 A 
ENDROOT
BRANCH   1   9
ATOM      7  C   UNL     1       2.336   7.081  19.671  0.00  0.00    +0.000 C 
ATOM      8  O   UNL     1       2.472   7.806  18.692  0.00  0.00    +0.000 OA
ATOM      9  N   UNL     1       1.662   7.402  20.846  0.00  0.00    +0.000 N 
ATOM     10  H   UNL     1       1.794   6.788  21.639  0.00  0.00    +0.000 HD
BRANCH   7  15
ATOM     11  C   UNL     1       4.920   4.327  19.115  0.00  0.00    +0.000 A 
ATOM     12  C   UNL     1       4.220   3.253  19.689  0.00  0.00    +0.000 A 
ATOM     13  C   UNL     1       2.943   3.414  20.226  0.00  0.00    +0.000 A 
ATOM     14  C   UNL     1       2.340   4.667  20.197  0.00  0.00    +0.000 A 
ATOM     15  C   UNL     1       3.014   5.757  19.631  0.00  0.00    +0.000 A 
ATOM     16  C   UNL     1       4.313   5.593  19.126  0.00  0.00    +0.000 A 
BRANCH  11  18
ATOM     17  C   UNL     1       6.721   4.534  17.411  0.00  0.00    +0.000 C 
ATOM     18  N   UNL     1       6.225   4.093  18.697  0.00  0.00    +0.000 N 
ATOM     19  H   UNL     1       6.600   3.201  19.008  0.00  0.00    +0.000 HD
ENDBRANCH  11  18
ENDBRANCH   7  15
ENDBRANCH   1   9
BRANCH   5  20
ATOM     20  C   UNL     1      -0.585  11.462  18.959  0.00  0.00    +0.000 C 
ATOM     21  C   UNL     1       0.167  12.798  19.008  0.00  0.00    +0.000 C 
BRANCH  20  22
ATOM     22  S   UNL     1      -2.407  11.770  18.891  0.00  0.00    +0.000 S 
BRANCH  22  23
ATOM     23  C   UNL     1      -2.810  11.072  17.358  0.00  0.00    +0.000 A 
ATOM     24  N   UNL     1      -2.025  10.319  16.620  0.00  0.00    +0.000 NA
ATOM     25  N   UNL     1      -2.704  10.010  15.463  0.00  0.00    +0.000 NA
ATOM     26  C   UNL     1      -3.885  10.579  15.531  0.00  0.00    +0.000 A 
ATOM     27  N   UNL     1      -4.002  11.253  16.712  0.00  0.00    +0.000 N 
ATOM     28  C   UNL     1      -5.154  12.010  17.112  0.00  0.00    +0.000 C 
ENDBRANCH  22  23
ENDBRANCH  20  22
ENDBRANCH   5  20
TORSDOF 6
ENDMDL
MODEL 6
REMARK VINA RESULT:      -8.0      3.414      4.839
REMARK  Name = 
REMARK  9 active torsions:
REMARK  status: ('A' for Active; 'I' for Inactive)
REMARK    1  A    between atoms: C_1  and  N_2
REMARK    2  A    between atoms: N_2  and  C_3
REMARK    3  A    between atoms: C_7  and  C_8
REMARK    4  A    between atoms: N_10  and  C_11
REMARK    5  A    between atoms: C_15  and  C_16
REMARK    6  A    between atoms: C_16  and  C_17
REMARK    7  A    between atoms: C_16  and  S_18
REMARK    8  A    between atoms: S_18  and  C_19
REMARK    9  A    between atoms: N_23  and  C_24
REMARK                            x       y       z     vdW  Elec       q    Type
REMARK                         _______ _______ _______ _____ _____    ______ ____
ROOT
ATOM      1  C   UNL     1       6.379   6.814  16.909  0.00  0.00    +0.000 A 
ATOM      2  C   UNL     1       7.009   5.774  16.223  0.00  0.00    +0.000 A 
ATOM      3  C   UNL     1       6.355   4.565  15.994  0.00  0.00    +0.000 A 
ATOM      4  C   UNL     1       5.049   4.378  16.439  0.00  0.00    +0.000 A 
ATOM      5  C   UNL     1       4.369   5.401  17.118  0.00  0.00    +0.000 A 
ATOM      6  C   UNL     1       5.057   6.614  17.361  0.00  0.00    +0.000 A 
ENDROOT
BRANCH   1   9
ATOM      7  C   UNL     1       8.003   8.254  18.158  0.00  0.00    +0.000 C 
ATOM      8  O   UNL     1       8.521   7.391  18.859  0.00  0.00    +0.000 OA
ATOM      9  N   UNL     1       7.026   8.048  17.188  0.00  0.00    +0.000 N 
ATOM     10  H   UNL     1       6.831   8.814  16.557  0.00  0.00    +0.000 HD
BRANCH   7  15
ATOM     11  C   UNL     1      10.037  11.287  19.267  0.00  0.00    +0.000 A 
ATOM     12  C   UNL     1       9.448  12.258  18.440  0.00  0.00    +0.000 A 
ATOM     13  C   UNL     1       8.414  11.941  17.559  0.00  0.00    +0.000 A 
ATOM     14  C   UNL     1       7.947  10.633  17.494  0.00  0.00    +0.000 A 
ATOM     15  C   UNL     1       8.513   9.643  18.307  0.00  0.00    +0.000 A 
ATOM     16  C   UNL     1       9.579   9.964  19.163  0.00  0.00    +0.000 A 
BRANCH  11  18
ATOM     17  C   UNL     1      11.803  12.940  19.846  0.00  0.00    +0.000 C 
ATOM     18  N   UNL     1      11.126  11.675  20.037  0.00  0.00    +0.000 N 
ATOM     19  H   UNL     1      11.738  10.907  20.297  0.00  0.00    +0.000 HD
ENDBRANCH  11  18
ENDBRANCH   7  15
ENDBRANCH   1   9
BRANCH   5  20
ATOM     20  C   UNL     1       2.941   5.184  17.630  0.00  0.00    +0.000 C 
ATOM     21  C   UNL     1       2.785   5.781  19.035  0.00  0.00    +0.000 C 
BRANCH  20  22
ATOM     22  S   UNL     1       2.476   3.394  17.656  0.00  0.00    +0.000 S 
BRANCH  22  23
ATOM     23  C   UNL     1       3.174   2.886  19.158  0.00  0.00    +0.000 A 
ATOM     24  N   UNL     1       4.432   2.562  19.356  0.00  0.00    +0.000 NA
ATOM     25  N   UNL     1       4.565   2.173  20.670  0.00  0.00    +0.000 NA
ATOM     26  C   UNL     1       3.385   2.274  21.235  0.00  0.00    +0.000 A 
ATOM     27  N   UNL     1       2.477   2.729  20.324  0.00  0.00    +0.000 N 
ATOM     28  C   UNL     1       1.082   2.938  20.592  0.00  0.00    +0.000 C 
ENDBRANCH  22  23
ENDBRANCH  20  22
ENDBRANCH   5  20
TORSDOF 6
ENDMDL
MODEL 7
REMARK VINA RESULT:      -8.0      3.222      4.546
REMARK  Name = 
REMARK  9 active torsions:
REMARK  status: ('A' for Active; 'I' for Inactive)
REMARK    1  A    between atoms: C_1  and  N_2
REMARK    2  A    between atoms: N_2  and  C_3
REMARK    3  A    between atoms: C_7  and  C_8
REMARK    4  A    between atoms: N_10  and  C_11
REMARK    5  A    between atoms: C_15  and  C_16
REMARK    6  A    between atoms: C_16  and  C_17
REMARK    7  A    between atoms: C_16  and  S_18
REMARK    8  A    between atoms: S_18  and  C_19
REMARK    9  A    between atoms: N_23  and  C_24
REMARK                            x       y       z     vdW  Elec       q    Type
REMARK                         _______ _______ _______ _____ _____    ______ ____
ROOT
ATOM      1  C   UNL     1       6.429   6.989  16.874  0.00  0.00    +0.000 A 
ATOM      2  C   UNL     1       7.012   6.009  16.070  0.00  0.00    +0.000 A 
ATOM      3  C   UNL     1       6.332   4.830  15.768  0.00  0.00    +0.000 A 
ATOM      4  C   UNL     1       5.047   4.616  16.258  0.00  0.00    +0.000 A 
ATOM      5  C   UNL     1       4.413   5.581  17.057  0.00  0.00    +0.000 A 
ATOM      6  C   UNL     1       5.128   6.762  17.370  0.00  0.00    +0.000 A 
ENDROOT
BRANCH   1   9
ATOM      7  C   UNL     1       8.099   8.307  18.194  0.00  0.00    +0.000 C 
ATOM      8  O   UNL     1       8.610   7.388  18.825  0.00  0.00    +0.000 OA
ATOM      9  N   UNL     1       7.104   8.188  17.228  0.00  0.00    +0.000 N 
ATOM     10  H   UNL     1       6.916   9.000  16.655  0.00  0.00    +0.000 HD
BRANCH   7  15
ATOM     11  C   UNL     1       8.780  12.053  17.921  0.00  0.00    +0.000 A 
ATOM     12  C   UNL     1       9.640  12.199  19.022  0.00  0.00    +0.000 A 
ATOM     13  C   UNL     1       9.999  11.112  19.820  0.00  0.00    +0.000 A 
ATOM     14  C   UNL     1       9.498   9.849  19.524  0.00  0.00    +0.000 A 
ATOM     15  C   UNL     1       8.639   9.673  18.432  0.00  0.00    +0.000 A 
ATOM     16  C   UNL     1       8.254  10.779  17.657  0.00  0.00    +0.000 A 
BRANCH  11  18
ATOM     17  C   UNL     1       8.925  14.514  17.583  0.00  0.00    +0.000 C 
ATOM     18  N   UNL     1       8.400  13.207  17.247  0.00  0.00    +0.000 N 
ATOM     19  H   UNL     1       7.427  13.208  16.954  0.00  0.00    +0.000 HD
ENDBRANCH  11  18
ENDBRANCH   7  15
ENDBRANCH   1   9
BRANCH   5  20
ATOM     20  C   UNL     1       3.009   5.332  17.617  0.00  0.00    +0.000 C 
ATOM     21  C   UNL     1       2.912   5.852  19.057  0.00  0.00    +0.000 C 
BRANCH  20  22
ATOM     22  S   UNL     1       2.547   3.541  17.567  0.00  0.00    +0.000 S 
BRANCH  22  23
ATOM     23  C   UNL     1       3.257   2.969  19.039  0.00  0.00    +0.000 A 
ATOM     24  N   UNL     1       4.525   2.679  19.226  0.00  0.00    +0.000 NA
ATOM     25  N   UNL     1       4.666   2.216  20.515  0.00  0.00    +0.000 NA
ATOM     26  C   UNL     1       3.480   2.241  21.078  0.00  0.00    +0.000 A 
ATOM     27  N   UNL     1       2.561   2.717  20.190  0.00  0.00    +0.000 N 
ATOM     28  C   UNL     1       1.157   2.859  20.460  0.00  0.00    +0.000 C 
ENDBRANCH  22  23
ENDBRANCH  20  22
ENDBRANCH   5  20
TORSDOF 6
ENDMDL
MODEL 8
REMARK VINA RESULT:      -8.0      2.590      3.680
REMARK  Name = 
REMARK  9 active torsions:
REMARK  status: ('A' for Active; 'I' for Inactive)
REMARK    1  A    between atoms: C_1  and  N_2
REMARK    2  A    between atoms: N_2  and  C_3
REMARK    3  A    between atoms: C_7  and  C_8
REMARK    4  A    between atoms: N_10  and  C_11
REMARK    5  A    between atoms: C_15  and  C_16
REMARK    6  A    between atoms: C_16  and  C_17
REMARK    7  A    between atoms: C_16  and  S_18
REMARK    8  A    between atoms: S_18  and  C_19
REMARK    9  A    between atoms: N_23  and  C_24
REMARK                            x       y       z     vdW  Elec       q    Type
REMARK                         _______ _______ _______ _____ _____    ______ ____
ROOT
ATOM      1  C   UNL     1       7.958   7.891  18.034  0.00  0.00    +0.000 A 
ATOM      2  C   UNL     1       8.456   7.064  19.042  0.00  0.00    +0.000 A 
ATOM      3  C   UNL     1       7.868   5.829  19.314  0.00  0.00    +0.000 A 
ATOM      4  C   UNL     1       6.774   5.395  18.572  0.00  0.00    +0.000 A 
ATOM      5  C   UNL     1       6.249   6.184  17.536  0.00  0.00    +0.000 A 
ATOM      6  C   UNL     1       6.846   7.444  17.289  0.00  0.00    +0.000 A 
ENDROOT
BRANCH   1   9
ATOM      7  C   UNL     1       8.993  10.074  18.691  0.00  0.00    +0.000 C 
ATOM      8  O   UNL     1       9.097   9.879  19.897  0.00  0.00    +0.000 OA
ATOM      9  N   UNL     1       8.513   9.168  17.750  0.00  0.00    +0.000 N 
ATOM     10  H   UNL     1       8.663   9.389  16.775  0.00  0.00    +0.000 HD
BRANCH   7  15
ATOM     11  C   UNL     1       9.176  13.716  17.565  0.00  0.00    +0.000 A 
ATOM     12  C   UNL     1      10.549  13.785  17.274  0.00  0.00    +0.000 A 
ATOM     13  C   UNL     1      11.386  12.680  17.425  0.00  0.00    +0.000 A 
ATOM     14  C   UNL     1      10.857  11.475  17.873  0.00  0.00    +0.000 A 
ATOM     15  C   UNL     1       9.492  11.376  18.171  0.00  0.00    +0.000 A 
ATOM     16  C   UNL     1       8.664  12.503  18.051  0.00  0.00    +0.000 A 
BRANCH  11  18
ATOM     17  C   UNL     1       7.051  14.973  17.870  0.00  0.00    +0.000 C 
ATOM     18  N   UNL     1       8.442  14.893  17.480  0.00  0.00    +0.000 N 
ATOM     19  H   UNL     1       8.689  15.472  16.682  0.00  0.00    +0.000 HD
ENDBRANCH  11  18
ENDBRANCH   7  15
ENDBRANCH   1   9
BRANCH   5  20
ATOM     20  C   UNL     1       5.028   5.715  16.738  0.00  0.00    +0.000 C 
ATOM     21  C   UNL     1       4.856   6.575  15.479  0.00  0.00    +0.000 C 
BRANCH  20  22
ATOM     22  S   UNL     1       3.478   5.763  17.745  0.00  0.00    +0.000 S 
BRANCH  22  23
ATOM     23  C   UNL     1       3.284   4.089  18.144  0.00  0.00    +0.000 A 
ATOM     24  N   UNL     1       3.746   3.070  17.455  0.00  0.00    +0.000 NA
ATOM     25  N   UNL     1       3.337   1.915  18.083  0.00  0.00    +0.000 NA
ATOM     26  C   UNL     1       2.640   2.263  19.139  0.00  0.00    +0.000 A 
ATOM     27  N   UNL     1       2.586   3.624  19.225  0.00  0.00    +0.000 N 
ATOM     28  C   UNL     1       1.888   4.353  20.246  0.00  0.00    +0.000 C 
ENDBRANCH  22  23
ENDBRANCH  20  22
ENDBRANCH   5  20
TORSDOF 6
ENDMDL
MODEL 9
REMARK VINA RESULT:      -7.9      7.265     10.179
REMARK  Name = 
REMARK  9 active torsions:
REMARK  status: ('A' for Active; 'I' for Inactive)
REMARK    1  A    between atoms: C_1  and  N_2
REMARK    2  A    between atoms: N_2  and  C_3
REMARK    3  A    between atoms: C_7  and  C_8
REMARK    4  A    between atoms: N_10  and  C_11
REMARK    5  A    between atoms: C_15  and  C_16
REMARK    6  A    between atoms: C_16  and  C_17
REMARK    7  A    between atoms: C_16  and  S_18
REMARK    8  A    between atoms: S_18  and  C_19
REMARK    9  A    between atoms: N_23  and  C_24
REMARK                            x       y       z     vdW  Elec       q    Type
REMARK                         _______ _______ _______ _____ _____    ______ ____
ROOT
ATOM      1  C   UNL     1       1.416   8.525  19.960  0.00  0.00    +0.000 A 
ATOM      2  C   UNL     1       1.100   8.512  21.319  0.00  0.00    +0.000 A 
ATOM      3  C   UNL     1       0.266   9.483  21.872  0.00  0.00    +0.000 A 
ATOM      4  C   UNL     1      -0.276  10.482  21.069  0.00  0.00    +0.000 A 
ATOM      5  C   UNL     1      -0.001  10.526  19.693  0.00  0.00    +0.000 A 
ATOM      6  C   UNL     1       0.864   9.543  19.153  0.00  0.00    +0.000 A 
ENDROOT
BRANCH   1   9
ATOM      7  C   UNL     1       2.804   7.630  18.078  0.00  0.00    +0.000 C 
ATOM      8  O   UNL     1       2.666   8.555  17.285  0.00  0.00    +0.000 OA
ATOM      9  N   UNL     1       2.285   7.570  19.368  0.00  0.00    +0.000 N 
ATOM     10  H   UNL     1       2.637   6.841  19.975  0.00  0.00    +0.000 HD
BRANCH   7  15
ATOM     11  C   UNL     1       4.332   4.151  17.726  0.00  0.00    +0.000 A 
ATOM     12  C   UNL     1       5.262   4.423  16.710  0.00  0.00    +0.000 A 
ATOM     13  C   UNL     1       5.399   5.700  16.165  0.00  0.00    +0.000 A 
ATOM     14  C   UNL     1       4.599   6.735  16.636  0.00  0.00    +0.000 A 
ATOM     15  C   UNL     1       3.663   6.494  17.649  0.00  0.00    +0.000 A 
ATOM     16  C   UNL     1       3.507   5.198  18.165  0.00  0.00    +0.000 A 
BRANCH  11  18
ATOM     17  C   UNL     1       2.980   2.073  17.936  0.00  0.00    +0.000 C 
ATOM     18  N   UNL     1       4.198   2.829  18.135  0.00  0.00    +0.000 N 
ATOM     19  H   UNL     1       4.687   2.618  19.001  0.00  0.00    +0.000 HD
ENDBRANCH  11  18
ENDBRANCH   7  15
ENDBRANCH   1   9
BRANCH   5  20
ATOM     20  C   UNL     1      -0.579  11.642  18.815  0.00  0.00    +0.000 C 
ATOM     21  C   UNL     1      -0.021  13.002  19.252  0.00  0.00    +0.000 C 
BRANCH  20  22
ATOM     22  S   UNL     1      -2.427  11.678  18.864  0.00  0.00    +0.000 S 
BRANCH  22  23
ATOM     23  C   UNL     1      -2.818  11.026  17.308  0.00  0.00    +0.000 A 
ATOM     24  N   UNL     1      -2.029  10.290  16.556  0.00  0.00    +0.000 NA
ATOM     25  N   UNL     1      -2.698  10.018  15.384  0.00  0.00    +0.000 NA
ATOM     26  C   UNL     1      -3.876  10.593  15.456  0.00  0.00    +0.000 A 
ATOM     27  N   UNL     1      -4.002  11.232  16.654  0.00  0.00    +0.000 N 
ATOM     28  C   UNL     1      -5.154  11.985  17.064  0.00  0.00    +0.000 C 
ENDBRANCH  22  23
ENDBRANCH  20  22
ENDBRANCH   5  20
TORSDOF 6
ENDMDL
