MODEL 1
REMARK VINA RESULT:      -9.4      0.000      0.000
REMARK  Name = 
REMARK  8 active torsions:
REMARK  status: ('A' for Active; 'I' for Inactive)
REMARK    1  A    between atoms: C_1  and  N_2
REMARK    2  A    between atoms: N_9  and  C_10
REMARK    3  A    between atoms: C_14  and  C_15
REMARK    4  A    between atoms: N_21  and  C_22
REMARK    5  A    between atoms: C_26  and  C_27
REMARK    6  A    between atoms: C_27  and  C_28
REMARK    7  A    between atoms: C_28  and  C_29
REMARK    8  A    between atoms: N_33  and  C_34
REMARK                            x       y       z     vdW  Elec       q    Type
REMARK                         _______ _______ _______ _____ _____    ______ ____
ROOT
ATOM      1  C   UNL     1       3.841   5.516  17.884  0.00  0.00    +0.000 A 
ATOM      2  C   UNL     1       3.474   6.848  18.085  0.00  0.00    +0.000 A 
ATOM      3  C   UNL     1       2.622   7.159  19.125  0.00  0.00    +0.000 A 
ATOM      4  C   UNL     1       2.145   6.233  20.040  0.00  0.00    +0.000 A 
ATOM      5  C   UNL     1       2.543   4.909  19.926  0.00  0.00    +0.000 A 
ATOM      6  C   UNL     1       3.403   4.574  18.844  0.00  0.00    +0.000 A 
ATOM      7  C   UNL     1       1.234   6.923  21.011  0.00  0.00    +0.000 C 
ATOM      8  N   UNL     1       1.190   8.288  20.499  0.00  0.00    +0.000 N 
ATOM      9  C   UNL     1       2.030   8.459  19.402  0.00  0.00    +0.000 C 
ATOM     10  O   UNL     1       2.288   9.444  18.735  0.00  0.00    +0.000 OA
ENDROOT
BRANCH   1  19
ATOM     11  C   UNL     1       5.963   3.670  13.142  0.00  0.00    +0.000 C 
ATOM     12  N   UNL     1       5.465   4.215  14.393  0.00  0.00    +0.000 NA
ATOM     13  C   UNL     1       5.755   3.360  15.557  0.00  0.00    +0.000 C 
ATOM     14  C   UNL     1       5.554   4.064  16.942  0.00  0.00    +0.000 C 
ATOM     15  C   UNL     1       6.837   4.792  17.414  0.00  0.00    +0.000 C 
ATOM     16  C   UNL     1       6.694   6.234  16.917  0.00  0.00    +0.000 C 
ATOM     17  C   UNL     1       5.439   6.190  16.036  0.00  0.00    +0.000 C 
ATOM     18  C   UNL     1       5.843   5.617  14.618  0.00  0.00    +0.000 C 
ATOM     19  N   UNL     1       4.599   5.198  16.758  0.00  0.00    +0.000 N 
ENDBRANCH   1  19
BRANCH   8  20
ATOM     20  C   UNL     1       0.378   9.309  21.041  0.00  0.00    +0.000 A 
ATOM     21  C   UNL     1       0.176   9.385  22.424  0.00  0.00    +0.000 A 
ATOM     22  C   UNL     1      -0.648  10.354  22.979  0.00  0.00    +0.000 A 
ATOM     23  C   UNL     1      -1.310  11.243  22.143  0.00  0.00    +0.000 A 
ATOM     24  C   UNL     1      -1.158  11.204  20.741  0.00  0.00    +0.000 A 
ATOM     25  C   UNL     1      -0.264  10.245  20.219  0.00  0.00    +0.000 A 
BRANCH  24  26
ATOM     26  C   UNL     1      -1.998  12.202  19.814  0.00  0.00    +0.000 C 
ATOM     27  C   UNL     1      -2.566  11.740  18.441  0.00  0.00    +0.000 C 
ATOM     28  O   UNL     1      -3.868  12.312  18.768  0.00  0.00    +0.000 OA
ATOM     29  C   UNL     1      -3.515  12.263  20.171  0.00  0.00    +0.000 C 
BRANCH  26  30
ATOM     30  C   UNL     1      -1.321  13.582  19.737  0.00  0.00    +0.000 C 
BRANCH  30  31
ATOM     31  C   UNL     1       0.144  13.478  19.436  0.00  0.00    +0.000 A 
ATOM     32  N   UNL     1       0.673  13.067  18.302  0.00  0.00    +0.000 NA
ATOM     33  N   UNL     1       2.041  13.088  18.433  0.00  0.00    +0.000 NA
ATOM     34  C   UNL     1       2.317  13.510  19.642  0.00  0.00    +0.000 A 
ATOM     35  N   UNL     1       1.158  13.752  20.313  0.00  0.00    +0.000 N 
ATOM     36  C   UNL     1       1.056  14.198  21.676  0.00  0.00    +0.000 C 
ENDBRANCH  30  31
ENDBRANCH  26  30
ENDBRANCH  24  26
ENDBRANCH   8  20
BRANCH   5  37
ATOM     37  C   UNL     1       2.076   3.832  20.866  0.00  0.00    +0.000 C 
ATOM     38  F   UNL     1       2.407   4.063  22.166  0.00  0.00    +0.000 F 
ATOM     39  F   UNL     1       0.723   3.681  20.850  0.00  0.00    +0.000 F 
ATOM     40  F   UNL     1       2.593   2.612  20.559  0.00  0.00    +0.000 F 
ENDBRANCH   5  37
TORSDOF 6
ENDMDL
MODEL 2
REMARK VINA RESULT:      -9.3      0.571      1.215
REMARK  Name = 
REMARK  8 active torsions:
REMARK  status: ('A' for Active; 'I' for Inactive)
REMARK    1  A    between atoms: C_1  and  N_2
REMARK    2  A    between atoms: N_9  and  C_10
REMARK    3  A    between atoms: C_14  and  C_15
REMARK    4  A    between atoms: N_21  and  C_22
REMARK    5  A    between atoms: C_26  and  C_27
REMARK    6  A    between atoms: C_27  and  C_28
REMARK    7  A    between atoms: C_28  and  C_29
REMARK    8  A    between atoms: N_33  and  C_34
REMARK                            x       y       z     vdW  Elec       q    Type
REMARK                         _______ _______ _______ _____ _____    ______ ____
ROOT
ATOM      1  C   UNL     1       3.861   5.422  17.767  0.00  0.00    +0.000 A 
ATOM      2  C   UNL     1       3.506   6.753  17.997  0.00  0.00    +0.000 A 
ATOM      3  C   UNL     1       2.655   7.048  19.041  0.00  0.00    +0.000 A 
ATOM      4  C   UNL     1       2.167   6.107  19.934  0.00  0.00    +0.000 A 
ATOM      5  C   UNL     1       2.553   4.782  19.792  0.00  0.00    +0.000 A 
ATOM      6  C   UNL     1       3.411   4.463  18.705  0.00  0.00    +0.000 A 
ATOM      7  C   UNL     1       1.261   6.784  20.918  0.00  0.00    +0.000 C 
ATOM      8  N   UNL     1       1.231   8.161  20.437  0.00  0.00    +0.000 N 
ATOM      9  C   UNL     1       2.075   8.348  19.346  0.00  0.00    +0.000 C 
ATOM     10  O   UNL     1       2.345   9.345  18.702  0.00  0.00    +0.000 OA
ENDROOT
BRANCH   1  19
ATOM     11  C   UNL     1       5.972   3.670  12.985  0.00  0.00    +0.000 C 
ATOM     12  N   UNL     1       5.479   4.188  14.248  0.00  0.00    +0.000 NA
ATOM     13  C   UNL     1       5.746   3.296  15.389  0.00  0.00    +0.000 C 
ATOM     14  C   UNL     1       5.551   3.965  16.792  0.00  0.00    +0.000 C 
ATOM     15  C   UNL     1       6.845   4.655  17.290  0.00  0.00    +0.000 C 
ATOM     16  C   UNL     1       6.732   6.113  16.834  0.00  0.00    +0.000 C 
ATOM     17  C   UNL     1       5.481   6.117  15.946  0.00  0.00    +0.000 C 
ATOM     18  C   UNL     1       5.882   5.576  14.515  0.00  0.00    +0.000 C 
ATOM     19  N   UNL     1       4.619   5.121  16.635  0.00  0.00    +0.000 N 
ENDBRANCH   1  19
BRANCH   8  20
ATOM     20  C   UNL     1       0.428   9.177  20.999  0.00  0.00    +0.000 A 
ATOM     21  C   UNL     1       0.225   9.225  22.384  0.00  0.00    +0.000 A 
ATOM     22  C   UNL     1      -0.591  10.190  22.958  0.00  0.00    +0.000 A 
ATOM     23  C   UNL     1      -1.244  11.103  22.141  0.00  0.00    +0.000 A 
ATOM     24  C   UNL     1      -1.089  11.093  20.739  0.00  0.00    +0.000 A 
ATOM     25  C   UNL     1      -0.204  10.137  20.197  0.00  0.00    +0.000 A 
BRANCH  24  26
ATOM     26  C   UNL     1      -1.919  12.118  19.832  0.00  0.00    +0.000 C 
ATOM     27  C   UNL     1      -2.994  11.617  18.826  0.00  0.00    +0.000 C 
ATOM     28  O   UNL     1      -3.942  12.612  19.316  0.00  0.00    +0.000 OA
ATOM     29  C   UNL     1      -3.176  12.708  20.541  0.00  0.00    +0.000 C 
BRANCH  26  30
ATOM     30  C   UNL     1      -0.992  13.185  19.220  0.00  0.00    +0.000 C 
BRANCH  30  31
ATOM     31  C   UNL     1      -0.069  13.783  20.237  0.00  0.00    +0.000 A 
ATOM     32  N   UNL     1      -0.425  14.536  21.258  0.00  0.00    +0.000 NA
ATOM     33  N   UNL     1       0.711  14.909  21.936  0.00  0.00    +0.000 NA
ATOM     34  C   UNL     1       1.735  14.377  21.315  0.00  0.00    +0.000 A 
ATOM     35  N   UNL     1       1.296  13.676  20.235  0.00  0.00    +0.000 N 
ATOM     36  C   UNL     1       2.129  12.978  19.292  0.00  0.00    +0.000 C 
ENDBRANCH  30  31
ENDBRANCH  26  30
ENDBRANCH  24  26
ENDBRANCH   8  20
BRANCH   5  37
ATOM     37  C   UNL     1       2.073   3.689  20.707  0.00  0.00    +0.000 C 
ATOM     38  F   UNL     1       0.721   3.531  20.703  0.00  0.00    +0.000 F 
ATOM     39  F   UNL     1       2.588   2.473  20.375  0.00  0.00    +0.000 F 
ATOM     40  F   UNL     1       2.421   3.904  22.004  0.00  0.00    +0.000 F 
ENDBRANCH   5  37
TORSDOF 6
ENDMDL
MODEL 3
REMARK VINA RESULT:      -9.3      1.507      2.609
REMARK  Name = 
REMARK  8 active torsions:
REMARK  status: ('A' for Active; 'I' for Inactive)
REMARK    1  A    between atoms: C_1  and  N_2
REMARK    2  A    between atoms: N_9  and  C_10
REMARK    3  A    between atoms: C_14  and  C_15
REMARK    4  A    between atoms: N_21  and  C_22
REMARK    5  A    between atoms: C_26  and  C_27
REMARK    6  A    between atoms: C_27  and  C_28
REMARK    7  A    between atoms: C_28  and  C_29
REMARK    8  A    between atoms: N_33  and  C_34
REMARK                            x       y       z     vdW  Elec       q    Type
REMARK                         _______ _______ _______ _____ _____    ______ ____
ROOT
ATOM      1  C   UNL     1       3.836   5.467  17.815  0.00  0.00    +0.000 A 
ATOM      2  C   UNL     1       3.487   6.801  18.034  0.00  0.00    +0.000 A 
ATOM      3  C   UNL     1       2.639   7.109  19.078  0.00  0.00    +0.000 A 
ATOM      4  C   UNL     1       2.150   6.176  19.980  0.00  0.00    +0.000 A 
ATOM      5  C   UNL     1       2.530   4.849  19.847  0.00  0.00    +0.000 A 
ATOM      6  C   UNL     1       3.385   4.518  18.761  0.00  0.00    +0.000 A 
ATOM      7  C   UNL     1       1.248   6.865  20.961  0.00  0.00    +0.000 C 
ATOM      8  N   UNL     1       1.223   8.237  20.469  0.00  0.00    +0.000 N 
ATOM      9  C   UNL     1       2.065   8.413  19.374  0.00  0.00    +0.000 C 
ATOM     10  O   UNL     1       2.337   9.403  18.722  0.00  0.00    +0.000 OA
ENDROOT
BRANCH   1  19
ATOM     11  C   UNL     1       5.939   3.651  13.053  0.00  0.00    +0.000 C 
ATOM     12  N   UNL     1       5.447   4.187  14.309  0.00  0.00    +0.000 NA
ATOM     13  C   UNL     1       5.736   3.321  15.466  0.00  0.00    +0.000 C 
ATOM     14  C   UNL     1       5.540   4.015  16.856  0.00  0.00    +0.000 C 
ATOM     15  C   UNL     1       6.828   4.734  17.331  0.00  0.00    +0.000 C 
ATOM     16  C   UNL     1       6.691   6.180  16.847  0.00  0.00    +0.000 C 
ATOM     17  C   UNL     1       5.433   6.149  15.969  0.00  0.00    +0.000 C 
ATOM     18  C   UNL     1       5.832   5.586  14.545  0.00  0.00    +0.000 C 
ATOM     19  N   UNL     1       4.590   5.155  16.684  0.00  0.00    +0.000 N 
ENDBRANCH   1  19
BRANCH   8  20
ATOM     20  C   UNL     1       0.425   9.261  21.024  0.00  0.00    +0.000 A 
ATOM     21  C   UNL     1      -0.043   9.150  22.339  0.00  0.00    +0.000 A 
ATOM     22  C   UNL     1      -0.861  10.123  22.897  0.00  0.00    +0.000 A 
ATOM     23  C   UNL     1      -1.249  11.209  22.125  0.00  0.00    +0.000 A 
ATOM     24  C   UNL     1      -0.822  11.367  20.789  0.00  0.00    +0.000 A 
ATOM     25  C   UNL     1       0.058  10.389  20.278  0.00  0.00    +0.000 A 
BRANCH  24  26
ATOM     26  C   UNL     1      -1.354  12.597  19.915  0.00  0.00    +0.000 C 
ATOM     27  C   UNL     1      -1.129  14.067  20.370  0.00  0.00    +0.000 C 
ATOM     28  O   UNL     1      -0.661  14.428  19.036  0.00  0.00    +0.000 OA
ATOM     29  C   UNL     1      -0.375  13.032  18.782  0.00  0.00    +0.000 C 
BRANCH  26  30
ATOM     30  C   UNL     1      -2.793  12.344  19.430  0.00  0.00    +0.000 C 
BRANCH  30  31
ATOM     31  C   UNL     1      -2.837  11.440  18.235  0.00  0.00    +0.000 A 
ATOM     32  N   UNL     1      -1.812  11.109  17.477  0.00  0.00    +0.000 NA
ATOM     33  N   UNL     1      -2.266  10.289  16.472  0.00  0.00    +0.000 NA
ATOM     34  C   UNL     1      -3.558  10.138  16.637  0.00  0.00    +0.000 A 
ATOM     35  N   UNL     1      -3.962  10.855  17.720  0.00  0.00    +0.000 N 
ATOM     36  C   UNL     1      -5.315  10.961  18.198  0.00  0.00    +0.000 C 
ENDBRANCH  30  31
ENDBRANCH  26  30
ENDBRANCH  24  26
ENDBRANCH   8  20
BRANCH   5  37
ATOM     37  C   UNL     1       2.047   3.764  20.771  0.00  0.00    +0.000 C 
ATOM     38  F   UNL     1       0.695   3.611  20.771  0.00  0.00    +0.000 F 
ATOM     39  F   UNL     1       2.559   2.544  20.449  0.00  0.00    +0.000 F 
ATOM     40  F   UNL     1       2.398   3.989  22.066  0.00  0.00    +0.000 F 
ENDBRANCH   5  37
TORSDOF 6
ENDMDL
MODEL 4
REMARK VINA RESULT:      -9.3      2.553      9.641
REMARK  Name = 
REMARK  8 active torsions:
REMARK  status: ('A' for Active; 'I' for Inactive)
REMARK    1  A    between atoms: C_1  and  N_2
REMARK    2  A    between atoms: N_9  and  C_10
REMARK    3  A    between atoms: C_14  and  C_15
REMARK    4  A    between atoms: N_21  and  C_22
REMARK    5  A    between atoms: C_26  and  C_27
REMARK    6  A    between atoms: C_27  and  C_28
REMARK    7  A    between atoms: C_28  and  C_29
REMARK    8  A    between atoms: N_33  and  C_34
REMARK                            x       y       z     vdW  Elec       q    Type
REMARK                         _______ _______ _______ _____ _____    ______ ____
ROOT
ATOM      1  C   UNL     1       0.333  12.201  19.948  0.00  0.00    +0.000 A 
ATOM      2  C   UNL     1       0.880  11.420  18.928  0.00  0.00    +0.000 A 
ATOM      3  C   UNL     1       1.146  10.089  19.173  0.00  0.00    +0.000 A 
ATOM      4  C   UNL     1       0.845   9.445  20.364  0.00  0.00    +0.000 A 
ATOM      5  C   UNL     1       0.232  10.163  21.380  0.00  0.00    +0.000 A 
ATOM      6  C   UNL     1      -0.025  11.541  21.146  0.00  0.00    +0.000 A 
ATOM      7  C   UNL     1       1.292   8.016  20.278  0.00  0.00    +0.000 C 
ATOM      8  N   UNL     1       1.935   7.956  18.970  0.00  0.00    +0.000 N 
ATOM      9  C   UNL     1       1.832   9.163  18.284  0.00  0.00    +0.000 C 
ATOM     10  O   UNL     1       2.204   9.489  17.173  0.00  0.00    +0.000 OA
ENDROOT
BRANCH   1  19
ATOM     11  C   UNL     1      -0.361  17.327  18.039  0.00  0.00    +0.000 C 
ATOM     12  N   UNL     1      -0.193  16.007  18.619  0.00  0.00    +0.000 NA
ATOM     13  C   UNL     1       1.213  15.567  18.671  0.00  0.00    +0.000 C 
ATOM     14  C   UNL     1       1.467  14.328  19.594  0.00  0.00    +0.000 C 
ATOM     15  C   UNL     1       1.757  14.744  21.057  0.00  0.00    +0.000 C 
ATOM     16  C   UNL     1       0.401  14.707  21.768  0.00  0.00    +0.000 C 
ATOM     17  C   UNL     1      -0.597  14.459  20.630  0.00  0.00    +0.000 C 
ATOM     18  C   UNL     1      -0.882  15.836  19.906  0.00  0.00    +0.000 C 
ATOM     19  N   UNL     1       0.187  13.571  19.730  0.00  0.00    +0.000 N 
ENDBRANCH   1  19
BRANCH   8  20
ATOM     20  C   UNL     1       2.599   6.815  18.468  0.00  0.00    +0.000 A 
ATOM     21  C   UNL     1       1.883   5.637  18.225  0.00  0.00    +0.000 A 
ATOM     22  C   UNL     1       2.517   4.490  17.768  0.00  0.00    +0.000 A 
ATOM     23  C   UNL     1       3.893   4.503  17.582  0.00  0.00    +0.000 A 
ATOM     24  C   UNL     1       4.669   5.655  17.826  0.00  0.00    +0.000 A 
ATOM     25  C   UNL     1       3.980   6.819  18.230  0.00  0.00    +0.000 A 
BRANCH  24  26
ATOM     26  C   UNL     1       6.261   5.601  17.669  0.00  0.00    +0.000 C 
ATOM     27  C   UNL     1       7.078   6.872  17.298  0.00  0.00    +0.000 C 
ATOM     28  O   UNL     1       8.030   6.594  18.369  0.00  0.00    +0.000 OA
ATOM     29  C   UNL     1       7.031   5.768  19.014  0.00  0.00    +0.000 C 
BRANCH  26  30
ATOM     30  C   UNL     1       6.691   4.367  16.855  0.00  0.00    +0.000 C 
BRANCH  30  31
ATOM     31  C   UNL     1       7.030   4.714  15.437  0.00  0.00    +0.000 A 
ATOM     32  N   UNL     1       8.015   5.496  15.046  0.00  0.00    +0.000 NA
ATOM     33  N   UNL     1       7.976   5.587  13.675  0.00  0.00    +0.000 NA
ATOM     34  C   UNL     1       6.968   4.860  13.259  0.00  0.00    +0.000 A 
ATOM     35  N   UNL     1       6.336   4.307  14.330  0.00  0.00    +0.000 N 
ATOM     36  C   UNL     1       5.167   3.470  14.274  0.00  0.00    +0.000 C 
ENDBRANCH  30  31
ENDBRANCH  26  30
ENDBRANCH  24  26
ENDBRANCH   8  20
BRANCH   5  37
ATOM     37  C   UNL     1      -0.128   9.554  22.708  0.00  0.00    +0.000 C 
ATOM     38  F   UNL     1      -0.860  10.380  23.504  0.00  0.00    +0.000 F 
ATOM     39  F   UNL     1      -0.867   8.418  22.573  0.00  0.00    +0.000 F 
ATOM     40  F   UNL     1       0.967   9.206  23.436  0.00  0.00    +0.000 F 
ENDBRANCH   5  37
TORSDOF 6
ENDMDL
MODEL 5
REMARK VINA RESULT:      -9.2      2.443      3.491
REMARK  Name = 
REMARK  8 active torsions:
REMARK  status: ('A' for Active; 'I' for Inactive)
REMARK    1  A    between atoms: C_1  and  N_2
REMARK    2  A    between atoms: N_9  and  C_10
REMARK    3  A    between atoms: C_14  and  C_15
REMARK    4  A    between atoms: N_21  and  C_22
REMARK    5  A    between atoms: C_26  and  C_27
REMARK    6  A    between atoms: C_27  and  C_28
REMARK    7  A    between atoms: C_28  and  C_29
REMARK    8  A    between atoms: N_33  and  C_34
REMARK                            x       y       z     vdW  Elec       q    Type
REMARK                         _______ _______ _______ _____ _____    ______ ____
ROOT
ATOM      1  C   UNL     1       4.028   5.961  17.571  0.00  0.00    +0.000 A 
ATOM      2  C   UNL     1       3.572   7.277  17.487  0.00  0.00    +0.000 A 
ATOM      3  C   UNL     1       2.638   7.722  18.401  0.00  0.00    +0.000 A 
ATOM      4  C   UNL     1       2.159   6.958  19.454  0.00  0.00    +0.000 A 
ATOM      5  C   UNL     1       2.640   5.668  19.622  0.00  0.00    +0.000 A 
ATOM      6  C   UNL     1       3.585   5.192  18.672  0.00  0.00    +0.000 A 
ATOM      7  C   UNL     1       1.148   7.756  20.223  0.00  0.00    +0.000 C 
ATOM      8  N   UNL     1       1.058   8.991  19.452  0.00  0.00    +0.000 N 
ATOM      9  C   UNL     1       1.954   9.007  18.388  0.00  0.00    +0.000 C 
ATOM     10  O   UNL     1       2.197   9.860  17.555  0.00  0.00    +0.000 OA
ENDROOT
BRANCH   1  19
ATOM     11  C   UNL     1       6.453   3.685  13.173  0.00  0.00    +0.000 C 
ATOM     12  N   UNL     1       5.886   4.329  14.344  0.00  0.00    +0.000 NA
ATOM     13  C   UNL     1       5.806   3.440  15.517  0.00  0.00    +0.000 C 
ATOM     14  C   UNL     1       5.536   4.181  16.871  0.00  0.00    +0.000 C 
ATOM     15  C   UNL     1       6.849   4.632  17.557  0.00  0.00    +0.000 C 
ATOM     16  C   UNL     1       7.085   6.070  17.082  0.00  0.00    +0.000 C 
ATOM     17  C   UNL     1       6.003   6.279  16.014  0.00  0.00    +0.000 C 
ATOM     18  C   UNL     1       6.502   5.625  14.663  0.00  0.00    +0.000 C 
ATOM     19  N   UNL     1       4.874   5.485  16.569  0.00  0.00    +0.000 N 
ENDBRANCH   1  19
BRANCH   8  20
ATOM     20  C   UNL     1       0.155  10.038  19.740  0.00  0.00    +0.000 A 
ATOM     21  C   UNL     1       0.330  10.819  20.889  0.00  0.00    +0.000 A 
ATOM     22  C   UNL     1      -0.565  11.828  21.216  0.00  0.00    +0.000 A 
ATOM     23  C   UNL     1      -1.672  12.044  20.408  0.00  0.00    +0.000 A 
ATOM     24  C   UNL     1      -1.909  11.278  19.247  0.00  0.00    +0.000 A 
ATOM     25  C   UNL     1      -0.945  10.303  18.913  0.00  0.00    +0.000 A 
BRANCH  24  26
ATOM     26  C   UNL     1      -3.238  11.514  18.385  0.00  0.00    +0.000 C 
ATOM     27  C   UNL     1      -3.201  11.513  16.830  0.00  0.00    +0.000 C 
ATOM     28  O   UNL     1      -4.356  10.622  16.787  0.00  0.00    +0.000 OA
ATOM     29  C   UNL     1      -4.069  10.217  18.147  0.00  0.00    +0.000 C 
BRANCH  26  30
ATOM     30  C   UNL     1      -4.060  12.685  18.954  0.00  0.00    +0.000 C 
BRANCH  30  31
ATOM     31  C   UNL     1      -5.312  12.220  19.634  0.00  0.00    +0.000 A 
ATOM     32  N   UNL     1      -5.398  11.754  20.863  0.00  0.00    +0.000 NA
ATOM     33  N   UNL     1      -6.706  11.408  21.102  0.00  0.00    +0.000 NA
ATOM     34  C   UNL     1      -7.390  11.669  20.015  0.00  0.00    +0.000 A 
ATOM     35  N   UNL     1      -6.555  12.164  19.062  0.00  0.00    +0.000 N 
ATOM     36  C   UNL     1      -6.934  12.537  17.726  0.00  0.00    +0.000 C 
ENDBRANCH  30  31
ENDBRANCH  26  30
ENDBRANCH  24  26
ENDBRANCH   8  20
BRANCH   5  37
ATOM     37  C   UNL     1       2.177   4.761  20.729  0.00  0.00    +0.000 C 
ATOM     38  F   UNL     1       2.732   3.519  20.683  0.00  0.00    +0.000 F 
ATOM     39  F   UNL     1       2.477   5.255  21.962  0.00  0.00    +0.000 F 
ATOM     40  F   UNL     1       0.831   4.570  20.718  0.00  0.00    +0.000 F 
ENDBRANCH   5  37
TORSDOF 6
ENDMDL
MODEL 6
REMARK VINA RESULT:      -9.2      1.679      2.721
REMARK  Name = 
REMARK  8 active torsions:
REMARK  status: ('A' for Active; 'I' for Inactive)
REMARK    1  A    between atoms: C_1  and  N_2
REMARK    2  A    between atoms: N_9  and  C_10
REMARK    3  A    between atoms: C_14  and  C_15
REMARK    4  A    between atoms: N_21  and  C_22
REMARK    5  A    between atoms: C_26  and  C_27
REMARK    6  A    between atoms: C_27  and  C_28
REMARK    7  A    between atoms: C_28  and  C_29
REMARK    8  A    between atoms: N_33  and  C_34
REMARK                            x       y       z     vdW  Elec       q    Type
REMARK                         _______ _______ _______ _____ _____    ______ ____
ROOT
ATOM      1  C   UNL     1       3.828   5.475  17.831  0.00  0.00    +0.000 A 
ATOM      2  C   UNL     1       3.494   6.812  18.061  0.00  0.00    +0.000 A 
ATOM      3  C   UNL     1       2.645   7.120  19.103  0.00  0.00    +0.000 A 
ATOM      4  C   UNL     1       2.139   6.186  19.993  0.00  0.00    +0.000 A 
ATOM      5  C   UNL     1       2.503   4.855  19.851  0.00  0.00    +0.000 A 
ATOM      6  C   UNL     1       3.360   4.523  18.766  0.00  0.00    +0.000 A 
ATOM      7  C   UNL     1       1.240   6.877  20.976  0.00  0.00    +0.000 C 
ATOM      8  N   UNL     1       1.234   8.254  20.495  0.00  0.00    +0.000 N 
ATOM      9  C   UNL     1       2.085   8.429  19.407  0.00  0.00    +0.000 C 
ATOM     10  O   UNL     1       2.373   9.421  18.765  0.00  0.00    +0.000 OA
ENDROOT
BRANCH   1  19
ATOM     11  C   UNL     1       5.934   3.672  13.066  0.00  0.00    +0.000 C 
ATOM     12  N   UNL     1       5.442   4.204  14.324  0.00  0.00    +0.000 NA
ATOM     13  C   UNL     1       5.716   3.327  15.475  0.00  0.00    +0.000 C 
ATOM     14  C   UNL     1       5.521   4.013  16.870  0.00  0.00    +0.000 C 
ATOM     15  C   UNL     1       6.814   4.714  17.357  0.00  0.00    +0.000 C 
ATOM     16  C   UNL     1       6.694   6.165  16.882  0.00  0.00    +0.000 C 
ATOM     17  C   UNL     1       5.441   6.154  15.998  0.00  0.00    +0.000 C 
ATOM     18  C   UNL     1       5.840   5.597  14.572  0.00  0.00    +0.000 C 
ATOM     19  N   UNL     1       4.584   5.163  16.701  0.00  0.00    +0.000 N 
ENDBRANCH   1  19
BRANCH   8  20
ATOM     20  C   UNL     1       0.447   9.283  21.056  0.00  0.00    +0.000 A 
ATOM     21  C   UNL     1      -0.087   9.137  22.343  0.00  0.00    +0.000 A 
ATOM     22  C   UNL     1      -0.896  10.116  22.902  0.00  0.00    +0.000 A 
ATOM     23  C   UNL     1      -1.210  11.245  22.158  0.00  0.00    +0.000 A 
ATOM     24  C   UNL     1      -0.716  11.440  20.851  0.00  0.00    +0.000 A 
ATOM     25  C   UNL     1       0.154  10.452  20.340  0.00  0.00    +0.000 A 
BRANCH  24  26
ATOM     26  C   UNL     1      -1.165  12.722  20.004  0.00  0.00    +0.000 C 
ATOM     27  C   UNL     1      -2.157  13.767  20.589  0.00  0.00    +0.000 C 
ATOM     28  O   UNL     1      -1.283  14.857  20.170  0.00  0.00    +0.000 OA
ATOM     29  C   UNL     1      -0.178  13.924  20.116  0.00  0.00    +0.000 C 
BRANCH  26  30
ATOM     30  C   UNL     1      -1.507  12.331  18.555  0.00  0.00    +0.000 C 
BRANCH  30  31
ATOM     31  C   UNL     1      -2.882  11.747  18.437  0.00  0.00    +0.000 A 
ATOM     32  N   UNL     1      -3.936  12.100  19.143  0.00  0.00    +0.000 NA
ATOM     33  N   UNL     1      -4.996  11.314  18.759  0.00  0.00    +0.000 NA
ATOM     34  C   UNL     1      -4.567  10.498  17.828  0.00  0.00    +0.000 A 
ATOM     35  N   UNL     1      -3.243  10.722  17.604  0.00  0.00    +0.000 N 
ATOM     36  C   UNL     1      -2.416  10.001  16.675  0.00  0.00    +0.000 C 
ENDBRANCH  30  31
ENDBRANCH  26  30
ENDBRANCH  24  26
ENDBRANCH   8  20
BRANCH   5  37
ATOM     37  C   UNL     1       2.002   3.769  20.763  0.00  0.00    +0.000 C 
ATOM     38  F   UNL     1       0.649   3.627  20.749  0.00  0.00    +0.000 F 
ATOM     39  F   UNL     1       2.506   2.547  20.438  0.00  0.00    +0.000 F 
ATOM     40  F   UNL     1       2.342   3.982  22.063  0.00  0.00    +0.000 F 
ENDBRANCH   5  37
TORSDOF 6
ENDMDL
MODEL 7
REMARK VINA RESULT:      -9.0      1.705      2.637
REMARK  Name = 
REMARK  8 active torsions:
REMARK  status: ('A' for Active; 'I' for Inactive)
REMARK    1  A    between atoms: C_1  and  N_2
REMARK    2  A    between atoms: N_9  and  C_10
REMARK    3  A    between atoms: C_14  and  C_15
REMARK    4  A    between atoms: N_21  and  C_22
REMARK    5  A    between atoms: C_26  and  C_27
REMARK    6  A    between atoms: C_27  and  C_28
REMARK    7  A    between atoms: C_28  and  C_29
REMARK    8  A    between atoms: N_33  and  C_34
REMARK                            x       y       z     vdW  Elec       q    Type
REMARK                         _______ _______ _______ _____ _____    ______ ____
ROOT
ATOM      1  C   UNL     1       3.819   5.511  17.841  0.00  0.00    +0.000 A 
ATOM      2  C   UNL     1       3.483   6.849  18.059  0.00  0.00    +0.000 A 
ATOM      3  C   UNL     1       2.635   7.166  19.099  0.00  0.00    +0.000 A 
ATOM      4  C   UNL     1       2.132   6.239  20.000  0.00  0.00    +0.000 A 
ATOM      5  C   UNL     1       2.499   4.907  19.869  0.00  0.00    +0.000 A 
ATOM      6  C   UNL     1       3.354   4.567  18.785  0.00  0.00    +0.000 A 
ATOM      7  C   UNL     1       1.234   6.937  20.977  0.00  0.00    +0.000 C 
ATOM      8  N   UNL     1       1.225   8.310  20.484  0.00  0.00    +0.000 N 
ATOM      9  C   UNL     1       2.073   8.476  19.393  0.00  0.00    +0.000 C 
ATOM     10  O   UNL     1       2.358   9.463  18.741  0.00  0.00    +0.000 OA
ENDROOT
BRANCH   1  19
ATOM     11  C   UNL     1       5.921   3.669  13.089  0.00  0.00    +0.000 C 
ATOM     12  N   UNL     1       5.429   4.212  14.342  0.00  0.00    +0.000 NA
ATOM     13  C   UNL     1       5.707   3.345  15.501  0.00  0.00    +0.000 C 
ATOM     14  C   UNL     1       5.513   4.043  16.890  0.00  0.00    +0.000 C 
ATOM     15  C   UNL     1       6.805   4.750  17.368  0.00  0.00    +0.000 C 
ATOM     16  C   UNL     1       6.683   6.198  16.881  0.00  0.00    +0.000 C 
ATOM     17  C   UNL     1       5.428   6.177  15.999  0.00  0.00    +0.000 C 
ATOM     18  C   UNL     1       5.826   5.607  14.578  0.00  0.00    +0.000 C 
ATOM     19  N   UNL     1       4.574   5.190  16.713  0.00  0.00    +0.000 N 
ENDBRANCH   1  19
BRANCH   8  20
ATOM     20  C   UNL     1       0.436   9.342  21.037  0.00  0.00    +0.000 A 
ATOM     21  C   UNL     1      -0.086   9.211  22.329  0.00  0.00    +0.000 A 
ATOM     22  C   UNL     1      -0.896  10.193  22.881  0.00  0.00    +0.000 A 
ATOM     23  C   UNL     1      -1.223  11.310  22.125  0.00  0.00    +0.000 A 
ATOM     24  C   UNL     1      -0.740  11.489  20.811  0.00  0.00    +0.000 A 
ATOM     25  C   UNL     1       0.131  10.500  20.307  0.00  0.00    +0.000 A 
BRANCH  24  26
ATOM     26  C   UNL     1      -1.202  12.757  19.950  0.00  0.00    +0.000 C 
ATOM     27  C   UNL     1      -0.342  14.053  19.898  0.00  0.00    +0.000 C 
ATOM     28  O   UNL     1      -0.464  14.095  18.444  0.00  0.00    +0.000 OA
ATOM     29  C   UNL     1      -0.783  12.683  18.450  0.00  0.00    +0.000 C 
BRANCH  26  30
ATOM     30  C   UNL     1      -2.698  13.051  20.165  0.00  0.00    +0.000 C 
BRANCH  30  31
ATOM     31  C   UNL     1      -3.574  12.159  19.339  0.00  0.00    +0.000 A 
ATOM     32  N   UNL     1      -3.168  11.330  18.400  0.00  0.00    +0.000 NA
ATOM     33  N   UNL     1      -4.273  10.716  17.859  0.00  0.00    +0.000 NA
ATOM     34  C   UNL     1      -5.328  11.183  18.479  0.00  0.00    +0.000 A 
ATOM     35  N   UNL     1      -4.940  12.103  19.404  0.00  0.00    +0.000 N 
ATOM     36  C   UNL     1      -5.819  12.855  20.259  0.00  0.00    +0.000 C 
ENDBRANCH  30  31
ENDBRANCH  26  30
ENDBRANCH  24  26
ENDBRANCH   8  20
BRANCH   5  37
ATOM     37  C   UNL     1       2.002   3.829  20.792  0.00  0.00    +0.000 C 
ATOM     38  F   UNL     1       2.327   4.037  22.097  0.00  0.00    +0.000 F 
ATOM     39  F   UNL     1       0.646   3.707  20.763  0.00  0.00    +0.000 F 
ATOM     40  F   UNL     1       2.496   2.602  20.474  0.00  0.00    +0.000 F 
ENDBRANCH   5  37
TORSDOF 6
ENDMDL
MODEL 8
REMARK VINA RESULT:      -9.0      1.894      2.882
REMARK  Name = 
REMARK  8 active torsions:
REMARK  status: ('A' for Active; 'I' for Inactive)
REMARK    1  A    between atoms: C_1  and  N_2
REMARK    2  A    between atoms: N_9  and  C_10
REMARK    3  A    between atoms: C_14  and  C_15
REMARK    4  A    between atoms: N_21  and  C_22
REMARK    5  A    between atoms: C_26  and  C_27
REMARK    6  A    between atoms: C_27  and  C_28
REMARK    7  A    between atoms: C_28  and  C_29
REMARK    8  A    between atoms: N_33  and  C_34
REMARK                            x       y       z     vdW  Elec       q    Type
REMARK                         _______ _______ _______ _____ _____    ______ ____
ROOT
ATOM      1  C   UNL     1       3.821   5.449  17.804  0.00  0.00    +0.000 A 
ATOM      2  C   UNL     1       3.481   6.784  18.030  0.00  0.00    +0.000 A 
ATOM      3  C   UNL     1       2.640   7.092  19.080  0.00  0.00    +0.000 A 
ATOM      4  C   UNL     1       2.151   6.159  19.981  0.00  0.00    +0.000 A 
ATOM      5  C   UNL     1       2.524   4.830  19.841  0.00  0.00    +0.000 A 
ATOM      6  C   UNL     1       3.371   4.499  18.749  0.00  0.00    +0.000 A 
ATOM      7  C   UNL     1       1.258   6.849  20.969  0.00  0.00    +0.000 C 
ATOM      8  N   UNL     1       1.237   8.223  20.482  0.00  0.00    +0.000 N 
ATOM      9  C   UNL     1       2.074   8.398  19.383  0.00  0.00    +0.000 C 
ATOM     10  O   UNL     1       2.348   9.390  18.732  0.00  0.00    +0.000 OA
ENDROOT
BRANCH   1  19
ATOM     11  C   UNL     1       5.888   3.639  13.024  0.00  0.00    +0.000 C 
ATOM     12  N   UNL     1       5.406   4.173  14.285  0.00  0.00    +0.000 NA
ATOM     13  C   UNL     1       5.696   3.302  15.436  0.00  0.00    +0.000 C 
ATOM     14  C   UNL     1       5.512   3.992  16.830  0.00  0.00    +0.000 C 
ATOM     15  C   UNL     1       6.806   4.701  17.301  0.00  0.00    +0.000 C 
ATOM     16  C   UNL     1       6.675   6.150  16.823  0.00  0.00    +0.000 C 
ATOM     17  C   UNL     1       5.413   6.129  15.951  0.00  0.00    +0.000 C 
ATOM     18  C   UNL     1       5.800   5.569  14.524  0.00  0.00    +0.000 C 
ATOM     19  N   UNL     1       4.568   5.137  16.667  0.00  0.00    +0.000 N 
ENDBRANCH   1  19
BRANCH   8  20
ATOM     20  C   UNL     1       0.448   9.249  21.046  0.00  0.00    +0.000 A 
ATOM     21  C   UNL     1       0.043   9.169  22.384  0.00  0.00    +0.000 A 
ATOM     22  C   UNL     1      -0.765  10.144  22.952  0.00  0.00    +0.000 A 
ATOM     23  C   UNL     1      -1.208  11.200  22.168  0.00  0.00    +0.000 A 
ATOM     24  C   UNL     1      -0.847  11.326  20.810  0.00  0.00    +0.000 A 
ATOM     25  C   UNL     1       0.026  10.349  20.285  0.00  0.00    +0.000 A 
BRANCH  24  26
ATOM     26  C   UNL     1      -1.441  12.521  19.927  0.00  0.00    +0.000 C 
ATOM     27  C   UNL     1      -1.750  13.911  20.555  0.00  0.00    +0.000 C 
ATOM     28  O   UNL     1      -1.062  14.579  19.455  0.00  0.00    +0.000 OA
ATOM     29  C   UNL     1      -0.354  13.349  19.177  0.00  0.00    +0.000 C 
BRANCH  26  30
ATOM     30  C   UNL     1      -2.579  12.020  19.018  0.00  0.00    +0.000 C 
BRANCH  30  31
ATOM     31  C   UNL     1      -3.931  12.272  19.613  0.00  0.00    +0.000 A 
ATOM     32  N   UNL     1      -4.187  12.498  20.885  0.00  0.00    +0.000 NA
ATOM     33  N   UNL     1      -5.545  12.651  21.031  0.00  0.00    +0.000 NA
ATOM     34  C   UNL     1      -6.089  12.514  19.846  0.00  0.00    +0.000 A 
ATOM     35  N   UNL     1      -5.116  12.259  18.929  0.00  0.00    +0.000 N 
ATOM     36  C   UNL     1      -5.328  12.021  17.526  0.00  0.00    +0.000 C 
ENDBRANCH  30  31
ENDBRANCH  26  30
ENDBRANCH  24  26
ENDBRANCH   8  20
BRANCH   5  37
ATOM     37  C   UNL     1       2.041   3.745  20.765  0.00  0.00    +0.000 C 
ATOM     38  F   UNL     1       2.426   3.922  22.059  0.00  0.00    +0.000 F 
ATOM     39  F   UNL     1       0.683   3.654  20.791  0.00  0.00    +0.000 F 
ATOM     40  F   UNL     1       2.494   2.515  20.404  0.00  0.00    +0.000 F 
ENDBRANCH   5  37
TORSDOF 6
ENDMDL
MODEL 9
REMARK VINA RESULT:      -9.0      1.812      2.573
REMARK  Name = 
REMARK  8 active torsions:
REMARK  status: ('A' for Active; 'I' for Inactive)
REMARK    1  A    between atoms: C_1  and  N_2
REMARK    2  A    between atoms: N_9  and  C_10
REMARK    3  A    between atoms: C_14  and  C_15
REMARK    4  A    between atoms: N_21  and  C_22
REMARK    5  A    between atoms: C_26  and  C_27
REMARK    6  A    between atoms: C_27  and  C_28
REMARK    7  A    between atoms: C_28  and  C_29
REMARK    8  A    between atoms: N_33  and  C_34
REMARK                            x       y       z     vdW  Elec       q    Type
REMARK                         _______ _______ _______ _____ _____    ______ ____
ROOT
ATOM      1  C   UNL     1       4.060   5.997  17.446  0.00  0.00    +0.000 A 
ATOM      2  C   UNL     1       3.692   7.340  17.345  0.00  0.00    +0.000 A 
ATOM      3  C   UNL     1       2.786   7.855  18.248  0.00  0.00    +0.000 A 
ATOM      4  C   UNL     1       2.253   7.137  19.307  0.00  0.00    +0.000 A 
ATOM      5  C   UNL     1       2.647   5.820  19.493  0.00  0.00    +0.000 A 
ATOM      6  C   UNL     1       3.563   5.272  18.554  0.00  0.00    +0.000 A 
ATOM      7  C   UNL     1       1.293   8.009  20.062  0.00  0.00    +0.000 C 
ATOM      8  N   UNL     1       1.288   9.238  19.276  0.00  0.00    +0.000 N 
ATOM      9  C   UNL     1       2.189   9.182  18.217  0.00  0.00    +0.000 C 
ATOM     10  O   UNL     1       2.491  10.008  17.375  0.00  0.00    +0.000 OA
ENDROOT
BRANCH   1  19
ATOM     11  C   UNL     1       6.355   3.466  13.118  0.00  0.00    +0.000 C 
ATOM     12  N   UNL     1       5.823   4.175  14.268  0.00  0.00    +0.000 NA
ATOM     13  C   UNL     1       5.736   3.341  15.479  0.00  0.00    +0.000 C 
ATOM     14  C   UNL     1       5.507   4.146  16.803  0.00  0.00    +0.000 C 
ATOM     15  C   UNL     1       6.842   4.589  17.451  0.00  0.00    +0.000 C 
ATOM     16  C   UNL     1       7.111   5.997  16.910  0.00  0.00    +0.000 C 
ATOM     17  C   UNL     1       6.020   6.191  15.850  0.00  0.00    +0.000 C 
ATOM     18  C   UNL     1       6.480   5.466  14.521  0.00  0.00    +0.000 C 
ATOM     19  N   UNL     1       4.878   5.455  16.454  0.00  0.00    +0.000 N 
ENDBRANCH   1  19
BRANCH   8  20
ATOM     20  C   UNL     1       0.455  10.345  19.548  0.00  0.00    +0.000 A 
ATOM     21  C   UNL     1      -0.911  10.287  19.245  0.00  0.00    +0.000 A 
ATOM     22  C   UNL     1      -1.745  11.374  19.466  0.00  0.00    +0.000 A 
ATOM     23  C   UNL     1      -1.207  12.553  19.964  0.00  0.00    +0.000 A 
ATOM     24  C   UNL     1       0.164  12.676  20.273  0.00  0.00    +0.000 A 
ATOM     25  C   UNL     1       0.968  11.530  20.093  0.00  0.00    +0.000 A 
BRANCH  24  26
ATOM     26  C   UNL     1       0.752  14.077  20.776  0.00  0.00    +0.000 C 
ATOM     27  C   UNL     1       0.430  14.624  22.196  0.00  0.00    +0.000 C 
ATOM     28  O   UNL     1       1.841  14.923  22.420  0.00  0.00    +0.000 OA
ATOM     29  C   UNL     1       2.185  13.975  21.381  0.00  0.00    +0.000 C 
BRANCH  26  30
ATOM     30  C   UNL     1       0.612  15.155  19.685  0.00  0.00    +0.000 C 
BRANCH  30  31
ATOM     31  C   UNL     1       1.908  15.417  18.979  0.00  0.00    +0.000 A 
ATOM     32  N   UNL     1       2.479  14.629  18.091  0.00  0.00    +0.000 NA
ATOM     33  N   UNL     1       3.664  15.205  17.702  0.00  0.00    +0.000 NA
ATOM     34  C   UNL     1       3.792  16.331  18.360  0.00  0.00    +0.000 A 
ATOM     35  N   UNL     1       2.723  16.497  19.185  0.00  0.00    +0.000 N 
ATOM     36  C   UNL     1       2.523  17.599  20.088  0.00  0.00    +0.000 C 
ENDBRANCH  30  31
ENDBRANCH  26  30
ENDBRANCH  24  26
ENDBRANCH   8  20
BRANCH   5  37
ATOM     37  C   UNL     1       2.120   4.959  20.608  0.00  0.00    +0.000 C 
ATOM     38  F   UNL     1       2.290   5.505  21.843  0.00  0.00    +0.000 F 
ATOM     39  F   UNL     1       0.785   4.719  20.490  0.00  0.00    +0.000 F 
ATOM     40  F   UNL     1       2.719   3.739  20.652  0.00  0.00    +0.000 F 
ENDBRANCH   5  37
TORSDOF 6
ENDMDL
