MODEL 1
REMARK VINA RESULT:      -8.4      0.000      0.000
REMARK  Name = 
REMARK  8 active torsions:
REMARK  status: ('A' for Active; 'I' for Inactive)
REMARK    1  A    between atoms: C_1  and  C_2
REMARK    2  A    between atoms: C_4  and  C_5
REMARK    3  A    between atoms: N_7  and  C_8
REMARK    4  A    between atoms: C_12  and  C_13
REMARK    5  A    between atoms: C_13  and  C_14
REMARK    6  A    between atoms: C_13  and  C_15
REMARK    7  A    between atoms: C_15  and  C_16
REMARK    8  A    between atoms: N_20  and  C_21
REMARK                            x       y       z     vdW  Elec       q    Type
REMARK                         _______ _______ _______ _____ _____    ______ ____
ROOT
ATOM      1  C   UNL     1       2.633   5.834  18.205  0.00  0.00    +0.000 A 
ATOM      2  C   UNL     1       2.090   4.554  18.342  0.00  0.00    +0.000 A 
ATOM      3  C   UNL     1       2.645   3.463  17.676  0.00  0.00    +0.000 A 
ATOM      4  C   UNL     1       3.777   3.631  16.887  0.00  0.00    +0.000 A 
ATOM      5  C   UNL     1       4.368   4.895  16.746  0.00  0.00    +0.000 A 
ATOM      6  C   UNL     1       3.751   6.004  17.371  0.00  0.00    +0.000 A 
ENDROOT
BRANCH   1   9
ATOM      7  C   UNL     1       1.995   8.231  18.386  0.00  0.00    +0.000 C 
ATOM      8  O   UNL     1       2.282   8.606  17.254  0.00  0.00    +0.000 OA
ATOM      9  N   UNL     1       2.111   6.951  18.903  0.00  0.00    +0.000 N 
ATOM     10  H   UNL     1       1.688   6.804  19.815  0.00  0.00    +0.000 HD
BRANCH   7  14
ATOM     11  C   UNL     1       1.023  13.095  19.392  0.00  0.00    +0.000 C 
ATOM     12  C   UNL     1       0.986  11.632  19.709  0.00  0.00    +0.000 A 
ATOM     13  C   UNL     1       1.498  10.695  18.890  0.00  0.00    +0.000 A 
ATOM     14  C   UNL     1       1.390   9.268  19.340  0.00  0.00    +0.000 A 
ATOM     15  N   UNL     1       0.831   8.866  20.451  0.00  0.00    +0.000 NA
ATOM     16  C   UNL     1       0.327   9.861  21.253  0.00  0.00    +0.000 A 
ATOM     17  C   UNL     1      -0.305   9.815  22.473  0.00  0.00    +0.000 A 
ATOM     18  C   UNL     1      -0.589  11.149  22.797  0.00  0.00    +0.000 A 
ATOM     19  N   UNL     1      -0.175  12.003  21.865  0.00  0.00    +0.000 NA
ATOM     20  N   UNL     1       0.392  11.223  20.910  0.00  0.00    +0.000 N 
ENDBRANCH   7  14
ENDBRANCH   1   9
BRANCH   5  21
ATOM     21  C   UNL     1       5.716   5.043  16.039  0.00  0.00    +0.000 C 
ATOM     22  C   UNL     1       5.888   4.016  14.910  0.00  0.00    +0.000 C 
BRANCH  21  23
ATOM     23  C   UNL     1       6.859   4.938  17.084  0.00  0.00    +0.000 C 
BRANCH  23  24
ATOM     24  C   UNL     1       7.400   6.266  17.500  0.00  0.00    +0.000 A 
ATOM     25  N   UNL     1       7.381   7.368  16.776  0.00  0.00    +0.000 NA
ATOM     26  N   UNL     1       7.965   8.375  17.507  0.00  0.00    +0.000 NA
ATOM     27  C   UNL     1       8.320   7.872  18.664  0.00  0.00    +0.000 A 
ATOM     28  N   UNL     1       7.977   6.555  18.712  0.00  0.00    +0.000 N 
ATOM     29  C   UNL     1       8.181   5.680  19.835  0.00  0.00    +0.000 C 
ENDBRANCH  23  24
ENDBRANCH  21  23
ENDBRANCH   5  21
TORSDOF 5
ENDMDL
MODEL 2
REMARK VINA RESULT:      -8.4      4.282      7.126
REMARK  Name = 
REMARK  8 active torsions:
REMARK  status: ('A' for Active; 'I' for Inactive)
REMARK    1  A    between atoms: C_1  and  C_2
REMARK    2  A    between atoms: C_4  and  C_5
REMARK    3  A    between atoms: N_7  and  C_8
REMARK    4  A    between atoms: C_12  and  C_13
REMARK    5  A    between atoms: C_13  and  C_14
REMARK    6  A    between atoms: C_13  and  C_15
REMARK    7  A    between atoms: C_15  and  C_16
REMARK    8  A    between atoms: N_20  and  C_21
REMARK                            x       y       z     vdW  Elec       q    Type
REMARK                         _______ _______ _______ _____ _____    ______ ____
ROOT
ATOM      1  C   UNL     1       6.254   6.702  17.033  0.00  0.00    +0.000 A 
ATOM      2  C   UNL     1       6.885   5.728  16.253  0.00  0.00    +0.000 A 
ATOM      3  C   UNL     1       6.261   4.512  15.980  0.00  0.00    +0.000 A 
ATOM      4  C   UNL     1       4.978   4.265  16.454  0.00  0.00    +0.000 A 
ATOM      5  C   UNL     1       4.301   5.228  17.216  0.00  0.00    +0.000 A 
ATOM      6  C   UNL     1       4.974   6.428  17.545  0.00  0.00    +0.000 A 
ENDROOT
BRANCH   1   9
ATOM      7  C   UNL     1       7.915   8.176  18.153  0.00  0.00    +0.000 C 
ATOM      8  O   UNL     1       8.533   7.335  18.797  0.00  0.00    +0.000 OA
ATOM      9  N   UNL     1       6.851   7.960  17.291  0.00  0.00    +0.000 N 
ATOM     10  H   UNL     1       6.563   8.763  16.738  0.00  0.00    +0.000 HD
BRANCH   7  14
ATOM     11  C   UNL     1      11.075  11.531  20.242  0.00  0.00    +0.000 C 
ATOM     12  C   UNL     1       9.953  11.140  19.330  0.00  0.00    +0.000 A 
ATOM     13  C   UNL     1       9.521   9.872  19.208  0.00  0.00    +0.000 A 
ATOM     14  C   UNL     1       8.387   9.631  18.256  0.00  0.00    +0.000 A 
ATOM     15  N   UNL     1       7.798  10.548  17.533  0.00  0.00    +0.000 NA
ATOM     16  C   UNL     1       8.274  11.826  17.698  0.00  0.00    +0.000 A 
ATOM     17  C   UNL     1       7.898  13.018  17.125  0.00  0.00    +0.000 A 
ATOM     18  C   UNL     1       8.747  13.983  17.683  0.00  0.00    +0.000 A 
ATOM     19  N   UNL     1       9.611  13.468  18.554  0.00  0.00    +0.000 NA
ATOM     20  N   UNL     1       9.329  12.140  18.572  0.00  0.00    +0.000 N 
ENDBRANCH   7  14
ENDBRANCH   1   9
BRANCH   5  21
ATOM     21  C   UNL     1       2.826   5.035  17.571  0.00  0.00    +0.000 C 
ATOM     22  C   UNL     1       2.413   5.878  18.787  0.00  0.00    +0.000 C 
BRANCH  21  23
ATOM     23  C   UNL     1       2.547   3.526  17.802  0.00  0.00    +0.000 C 
BRANCH  23  24
ATOM     24  C   UNL     1       2.233   3.196  19.224  0.00  0.00    +0.000 A 
ATOM     25  N   UNL     1       1.039   3.238  19.781  0.00  0.00    +0.000 NA
ATOM     26  N   UNL     1       1.162   2.859  21.096  0.00  0.00    +0.000 NA
ATOM     27  C   UNL     1       2.425   2.584  21.314  0.00  0.00    +0.000 A 
ATOM     28  N   UNL     1       3.135   2.770  20.167  0.00  0.00    +0.000 N 
ATOM     29  C   UNL     1       4.546   2.537  20.013  0.00  0.00    +0.000 C 
ENDBRANCH  23  24
ENDBRANCH  21  23
ENDBRANCH   5  21
TORSDOF 5
ENDMDL
MODEL 3
REMARK VINA RESULT:      -8.3      5.324      7.703
REMARK  Name = 
REMARK  8 active torsions:
REMARK  status: ('A' for Active; 'I' for Inactive)
REMARK    1  A    between atoms: C_1  and  C_2
REMARK    2  A    between atoms: C_4  and  C_5
REMARK    3  A    between atoms: N_7  and  C_8
REMARK    4  A    between atoms: C_12  and  C_13
REMARK    5  A    between atoms: C_13  and  C_14
REMARK    6  A    between atoms: C_13  and  C_15
REMARK    7  A    between atoms: C_15  and  C_16
REMARK    8  A    between atoms: N_20  and  C_21
REMARK                            x       y       z     vdW  Elec       q    Type
REMARK                         _______ _______ _______ _____ _____    ______ ____
ROOT
ATOM      1  C   UNL     1       7.846   7.876  18.000  0.00  0.00    +0.000 A 
ATOM      2  C   UNL     1       8.387   7.015  18.959  0.00  0.00    +0.000 A 
ATOM      3  C   UNL     1       7.899   5.719  19.117  0.00  0.00    +0.000 A 
ATOM      4  C   UNL     1       6.882   5.252  18.294  0.00  0.00    +0.000 A 
ATOM      5  C   UNL     1       6.332   6.076  17.301  0.00  0.00    +0.000 A 
ATOM      6  C   UNL     1       6.789   7.411  17.200  0.00  0.00    +0.000 A 
ENDROOT
BRANCH   1   9
ATOM      7  C   UNL     1       8.959   9.965  18.762  0.00  0.00    +0.000 C 
ATOM      8  O   UNL     1       9.193   9.659  19.926  0.00  0.00    +0.000 OA
ATOM      9  N   UNL     1       8.352   9.183  17.793  0.00  0.00    +0.000 N 
ATOM     10  H   UNL     1       8.375   9.556  16.848  0.00  0.00    +0.000 HD
BRANCH   7  14
ATOM     11  C   UNL     1       7.829  14.813  17.851  0.00  0.00    +0.000 C 
ATOM     12  C   UNL     1       8.762  13.643  17.887  0.00  0.00    +0.000 A 
ATOM     13  C   UNL     1       8.386  12.422  18.308  0.00  0.00    +0.000 A 
ATOM     14  C   UNL     1       9.430  11.345  18.287  0.00  0.00    +0.000 A 
ATOM     15  N   UNL     1      10.671  11.502  17.907  0.00  0.00    +0.000 NA
ATOM     16  C   UNL     1      11.003  12.766  17.483  0.00  0.00    +0.000 A 
ATOM     17  C   UNL     1      12.185  13.286  17.011  0.00  0.00    +0.000 A 
ATOM     18  C   UNL     1      11.916  14.634  16.738  0.00  0.00    +0.000 A 
ATOM     19  N   UNL     1      10.658  14.972  17.006  0.00  0.00    +0.000 NA
ATOM     20  N   UNL     1      10.085  13.830  17.465  0.00  0.00    +0.000 N 
ENDBRANCH   7  14
ENDBRANCH   1   9
BRANCH   5  21
ATOM     21  C   UNL     1       5.354   5.502  16.275  0.00  0.00    +0.000 C 
ATOM     22  C   UNL     1       4.021   5.092  16.918  0.00  0.00    +0.000 C 
BRANCH  21  23
ATOM     23  C   UNL     1       6.023   4.310  15.539  0.00  0.00    +0.000 C 
BRANCH  23  24
ATOM     24  C   UNL     1       6.851   4.729  14.370  0.00  0.00    +0.000 A 
ATOM     25  N   UNL     1       7.889   5.540  14.411  0.00  0.00    +0.000 NA
ATOM     26  N   UNL     1       8.385   5.672  13.136  0.00  0.00    +0.000 NA
ATOM     27  C   UNL     1       7.647   4.933  12.344  0.00  0.00    +0.000 A 
ATOM     28  N   UNL     1       6.678   4.313  13.073  0.00  0.00    +0.000 N 
ATOM     29  C   UNL     1       5.699   3.398  12.551  0.00  0.00    +0.000 C 
ENDBRANCH  23  24
ENDBRANCH  21  23
ENDBRANCH   5  21
TORSDOF 5
ENDMDL
MODEL 4
REMARK VINA RESULT:      -8.2      1.788      2.729
REMARK  Name = 
REMARK  8 active torsions:
REMARK  status: ('A' for Active; 'I' for Inactive)
REMARK    1  A    between atoms: C_1  and  C_2
REMARK    2  A    between atoms: C_4  and  C_5
REMARK    3  A    between atoms: N_7  and  C_8
REMARK    4  A    between atoms: C_12  and  C_13
REMARK    5  A    between atoms: C_13  and  C_14
REMARK    6  A    between atoms: C_13  and  C_15
REMARK    7  A    between atoms: C_15  and  C_16
REMARK    8  A    between atoms: N_20  and  C_21
REMARK                            x       y       z     vdW  Elec       q    Type
REMARK                         _______ _______ _______ _____ _____    ______ ____
ROOT
ATOM      1  C   UNL     1       3.404   5.563  19.613  0.00  0.00    +0.000 A 
ATOM      2  C   UNL     1       2.966   4.236  19.570  0.00  0.00    +0.000 A 
ATOM      3  C   UNL     1       3.815   3.213  19.151  0.00  0.00    +0.000 A 
ATOM      4  C   UNL     1       5.130   3.497  18.801  0.00  0.00    +0.000 A 
ATOM      5  C   UNL     1       5.614   4.811  18.858  0.00  0.00    +0.000 A 
ATOM      6  C   UNL     1       4.722   5.848  19.216  0.00  0.00    +0.000 A 
ENDROOT
BRANCH   1   9
ATOM      7  C   UNL     1       2.150   7.688  19.307  0.00  0.00    +0.000 C 
ATOM      8  O   UNL     1       2.383   7.895  18.120  0.00  0.00    +0.000 OA
ATOM      9  N   UNL     1       2.573   6.614  20.072  0.00  0.00    +0.000 N 
ATOM     10  H   UNL     1       2.160   6.543  20.998  0.00  0.00    +0.000 HD
BRANCH   7  14
ATOM     11  C   UNL     1      -0.659  11.892  19.077  0.00  0.00    +0.000 C 
ATOM     12  C   UNL     1      -0.064  10.719  19.795  0.00  0.00    +0.000 A 
ATOM     13  C   UNL     1       0.723   9.814  19.186  0.00  0.00    +0.000 A 
ATOM     14  C   UNL     1       1.248   8.692  20.033  0.00  0.00    +0.000 A 
ATOM     15  N   UNL     1       0.992   8.521  21.304  0.00  0.00    +0.000 NA
ATOM     16  C   UNL     1       0.187   9.475  21.878  0.00  0.00    +0.000 A 
ATOM     17  C   UNL     1      -0.272   9.622  23.166  0.00  0.00    +0.000 A 
ATOM     18  C   UNL     1      -1.054  10.785  23.151  0.00  0.00    +0.000 A 
ATOM     19  N   UNL     1      -1.104  11.357  21.951  0.00  0.00    +0.000 NA
ATOM     20  N   UNL     1      -0.342  10.560  21.159  0.00  0.00    +0.000 N 
ENDBRANCH   7  14
ENDBRANCH   1   9
BRANCH   5  21
ATOM     21  C   UNL     1       7.105   5.094  18.660  0.00  0.00    +0.000 C 
ATOM     22  C   UNL     1       7.741   5.721  19.910  0.00  0.00    +0.000 C 
BRANCH  21  23
ATOM     23  C   UNL     1       7.296   5.994  17.411  0.00  0.00    +0.000 C 
BRANCH  23  24
ATOM     24  C   UNL     1       6.809   5.361  16.149  0.00  0.00    +0.000 A 
ATOM     25  N   UNL     1       7.346   4.315  15.553  0.00  0.00    +0.000 NA
ATOM     26  N   UNL     1       6.609   4.032  14.429  0.00  0.00    +0.000 NA
ATOM     27  C   UNL     1       5.632   4.904  14.364  0.00  0.00    +0.000 A 
ATOM     28  N   UNL     1       5.708   5.751  15.427  0.00  0.00    +0.000 N 
ATOM     29  C   UNL     1       4.788   6.820  15.710  0.00  0.00    +0.000 C 
ENDBRANCH  23  24
ENDBRANCH  21  23
ENDBRANCH   5  21
TORSDOF 5
ENDMDL
MODEL 5
REMARK VINA RESULT:      -8.2      4.430      7.090
REMARK  Name = 
REMARK  8 active torsions:
REMARK  status: ('A' for Active; 'I' for Inactive)
REMARK    1  A    between atoms: C_1  and  C_2
REMARK    2  A    between atoms: C_4  and  C_5
REMARK    3  A    between atoms: N_7  and  C_8
REMARK    4  A    between atoms: C_12  and  C_13
REMARK    5  A    between atoms: C_13  and  C_14
REMARK    6  A    between atoms: C_13  and  C_15
REMARK    7  A    between atoms: C_15  and  C_16
REMARK    8  A    between atoms: N_20  and  C_21
REMARK                            x       y       z     vdW  Elec       q    Type
REMARK                         _______ _______ _______ _____ _____    ______ ____
ROOT
ATOM      1  C   UNL     1       6.493   6.678  16.966  0.00  0.00    +0.000 A 
ATOM      2  C   UNL     1       7.171   5.750  16.171  0.00  0.00    +0.000 A 
ATOM      3  C   UNL     1       6.606   4.511  15.875  0.00  0.00    +0.000 A 
ATOM      4  C   UNL     1       5.336   4.194  16.342  0.00  0.00    +0.000 A 
ATOM      5  C   UNL     1       4.613   5.110  17.119  0.00  0.00    +0.000 A 
ATOM      6  C   UNL     1       5.228   6.334  17.471  0.00  0.00    +0.000 A 
ENDROOT
BRANCH   1   9
ATOM      7  C   UNL     1       8.010   8.223  18.192  0.00  0.00    +0.000 C 
ATOM      8  O   UNL     1       8.595   7.413  18.903  0.00  0.00    +0.000 OA
ATOM      9  N   UNL     1       7.030   7.959  17.248  0.00  0.00    +0.000 N 
ATOM     10  H   UNL     1       6.766   8.742  16.657  0.00  0.00    +0.000 HD
BRANCH   7  14
ATOM     11  C   UNL     1      10.976  11.690  20.379  0.00  0.00    +0.000 C 
ATOM     12  C   UNL     1       9.903  11.258  19.428  0.00  0.00    +0.000 A 
ATOM     13  C   UNL     1       9.518   9.976  19.296  0.00  0.00    +0.000 A 
ATOM     14  C   UNL     1       8.429   9.693  18.305  0.00  0.00    +0.000 A 
ATOM     15  N   UNL     1       7.837  10.587  17.556  0.00  0.00    +0.000 NA
ATOM     16  C   UNL     1       8.264  11.880  17.732  0.00  0.00    +0.000 A 
ATOM     17  C   UNL     1       7.869  13.057  17.139  0.00  0.00    +0.000 A 
ATOM     18  C   UNL     1       8.665  14.053  17.723  0.00  0.00    +0.000 A 
ATOM     19  N   UNL     1       9.512  13.570  18.627  0.00  0.00    +0.000 NA
ATOM     20  N   UNL     1       9.274  12.233  18.643  0.00  0.00    +0.000 N 
ENDBRANCH   7  14
ENDBRANCH   1   9
BRANCH   5  21
ATOM     21  C   UNL     1       3.148   4.840  17.469  0.00  0.00    +0.000 C 
ATOM     22  C   UNL     1       2.682   5.674  18.671  0.00  0.00    +0.000 C 
BRANCH  21  23
ATOM     23  C   UNL     1       2.951   3.321  17.718  0.00  0.00    +0.000 C 
BRANCH  23  24
ATOM     24  C   UNL     1       3.150   2.928  19.144  0.00  0.00    +0.000 A 
ATOM     25  N   UNL     1       4.311   2.711  19.730  0.00  0.00    +0.000 NA
ATOM     26  N   UNL     1       4.077   2.379  21.043  0.00  0.00    +0.000 NA
ATOM     27  C   UNL     1       2.780   2.408  21.235  0.00  0.00    +0.000 A 
ATOM     28  N   UNL     1       2.157   2.758  20.076  0.00  0.00    +0.000 N 
ATOM     29  C   UNL     1       0.738   2.923  19.910  0.00  0.00    +0.000 C 
ENDBRANCH  23  24
ENDBRANCH  21  23
ENDBRANCH   5  21
TORSDOF 5
ENDMDL
MODEL 6
REMARK VINA RESULT:      -8.2      1.041      1.924
REMARK  Name = 
REMARK  8 active torsions:
REMARK  status: ('A' for Active; 'I' for Inactive)
REMARK    1  A    between atoms: C_1  and  C_2
REMARK    2  A    between atoms: C_4  and  C_5
REMARK    3  A    between atoms: N_7  and  C_8
REMARK    4  A    between atoms: C_12  and  C_13
REMARK    5  A    between atoms: C_13  and  C_14
REMARK    6  A    between atoms: C_13  and  C_15
REMARK    7  A    between atoms: C_15  and  C_16
REMARK    8  A    between atoms: N_20  and  C_21
REMARK                            x       y       z     vdW  Elec       q    Type
REMARK                         _______ _______ _______ _____ _____    ______ ____
ROOT
ATOM      1  C   UNL     1       2.667   5.897  18.055  0.00  0.00    +0.000 A 
ATOM      2  C   UNL     1       2.102   4.649  18.334  0.00  0.00    +0.000 A 
ATOM      3  C   UNL     1       2.651   3.479  17.811  0.00  0.00    +0.000 A 
ATOM      4  C   UNL     1       3.798   3.537  17.027  0.00  0.00    +0.000 A 
ATOM      5  C   UNL     1       4.409   4.768  16.749  0.00  0.00    +0.000 A 
ATOM      6  C   UNL     1       3.800   5.951  17.227  0.00  0.00    +0.000 A 
ENDROOT
BRANCH   1   9
ATOM      7  C   UNL     1       1.770   7.264  19.929  0.00  0.00    +0.000 C 
ATOM      8  O   UNL     1       1.846   6.443  20.837  0.00  0.00    +0.000 OA
ATOM      9  N   UNL     1       2.150   7.095  18.607  0.00  0.00    +0.000 N 
ATOM     10  H   UNL     1       2.146   7.935  18.037  0.00  0.00    +0.000 HD
BRANCH   7  14
ATOM     11  C   UNL     1      -0.689  10.227  23.213  0.00  0.00    +0.000 C 
ATOM     12  C   UNL     1       0.049   9.974  21.935  0.00  0.00    +0.000 A 
ATOM     13  C   UNL     1       0.530   8.764  21.597  0.00  0.00    +0.000 A 
ATOM     14  C   UNL     1       1.247   8.661  20.284  0.00  0.00    +0.000 A 
ATOM     15  N   UNL     1       1.450   9.651  19.454  0.00  0.00    +0.000 NA
ATOM     16  C   UNL     1       0.936  10.864  19.843  0.00  0.00    +0.000 A 
ATOM     17  C   UNL     1       0.947  12.095  19.232  0.00  0.00    +0.000 A 
ATOM     18  C   UNL     1       0.266  12.952  20.108  0.00  0.00    +0.000 A 
ATOM     19  N   UNL     1      -0.159  12.333  21.206  0.00  0.00    +0.000 NA
ATOM     20  N   UNL     1       0.246  11.046  21.054  0.00  0.00    +0.000 N 
ENDBRANCH   7  14
ENDBRANCH   1   9
BRANCH   5  21
ATOM     21  C   UNL     1       5.771   4.813  16.054  0.00  0.00    +0.000 C 
ATOM     22  C   UNL     1       5.933   3.677  15.033  0.00  0.00    +0.000 C 
BRANCH  21  23
ATOM     23  C   UNL     1       6.896   4.782  17.123  0.00  0.00    +0.000 C 
BRANCH  23  24
ATOM     24  C   UNL     1       7.395   6.140  17.492  0.00  0.00    +0.000 A 
ATOM     25  N   UNL     1       7.359   7.210  16.722  0.00  0.00    +0.000 NA
ATOM     26  N   UNL     1       7.903   8.262  17.420  0.00  0.00    +0.000 NA
ATOM     27  C   UNL     1       8.251   7.817  18.603  0.00  0.00    +0.000 A 
ATOM     28  N   UNL     1       7.942   6.494  18.700  0.00  0.00    +0.000 N 
ATOM     29  C   UNL     1       8.149   5.673  19.862  0.00  0.00    +0.000 C 
ENDBRANCH  23  24
ENDBRANCH  21  23
ENDBRANCH   5  21
TORSDOF 5
ENDMDL
MODEL 7
REMARK VINA RESULT:      -8.2      1.804      2.749
REMARK  Name = 
REMARK  8 active torsions:
REMARK  status: ('A' for Active; 'I' for Inactive)
REMARK    1  A    between atoms: C_1  and  C_2
REMARK    2  A    between atoms: C_4  and  C_5
REMARK    3  A    between atoms: N_7  and  C_8
REMARK    4  A    between atoms: C_12  and  C_13
REMARK    5  A    between atoms: C_13  and  C_14
REMARK    6  A    between atoms: C_13  and  C_15
REMARK    7  A    between atoms: C_15  and  C_16
REMARK    8  A    between atoms: N_20  and  C_21
REMARK                            x       y       z     vdW  Elec       q    Type
REMARK                         _______ _______ _______ _____ _____    ______ ____
ROOT
ATOM      1  C   UNL     1       1.822   5.011  20.544  0.00  0.00    +0.000 A 
ATOM      2  C   UNL     1       2.101   4.115  21.580  0.00  0.00    +0.000 A 
ATOM      3  C   UNL     1       2.642   2.858  21.316  0.00  0.00    +0.000 A 
ATOM      4  C   UNL     1       2.947   2.491  20.011  0.00  0.00    +0.000 A 
ATOM      5  C   UNL     1       2.709   3.373  18.947  0.00  0.00    +0.000 A 
ATOM      6  C   UNL     1       2.093   4.616  19.223  0.00  0.00    +0.000 A 
ENDROOT
BRANCH   1   9
ATOM      7  C   UNL     1       1.735   7.467  20.161  0.00  0.00    +0.000 C 
ATOM      8  O   UNL     1       2.581   7.567  19.278  0.00  0.00    +0.000 OA
ATOM      9  N   UNL     1       1.309   6.309  20.790  0.00  0.00    +0.000 N 
ATOM     10  H   UNL     1       0.498   6.408  21.394  0.00  0.00    +0.000 HD
BRANCH   7  14
ATOM     11  C   UNL     1       0.431  12.239  19.093  0.00  0.00    +0.000 C 
ATOM     12  C   UNL     1       0.459  11.026  19.971  0.00  0.00    +0.000 A 
ATOM     13  C   UNL     1       1.070   9.882  19.615  0.00  0.00    +0.000 A 
ATOM     14  C   UNL     1       1.017   8.749  20.597  0.00  0.00    +0.000 A 
ATOM     15  N   UNL     1       0.417   8.784  21.758  0.00  0.00    +0.000 NA
ATOM     16  C   UNL     1      -0.189   9.975  22.076  0.00  0.00    +0.000 A 
ATOM     17  C   UNL     1      -0.888  10.372  23.191  0.00  0.00    +0.000 A 
ATOM     18  C   UNL     1      -1.265  11.698  22.941  0.00  0.00    +0.000 A 
ATOM     19  N   UNL     1      -0.847  12.139  21.758  0.00  0.00    +0.000 NA
ATOM     20  N   UNL     1      -0.181  11.087  21.216  0.00  0.00    +0.000 N 
ENDBRANCH   7  14
ENDBRANCH   1   9
BRANCH   5  21
ATOM     21  C   UNL     1       3.220   3.046  17.543  0.00  0.00    +0.000 C 
ATOM     22  C   UNL     1       4.112   1.795  17.534  0.00  0.00    +0.000 C 
BRANCH  21  23
ATOM     23  C   UNL     1       3.964   4.281  16.967  0.00  0.00    +0.000 C 
BRANCH  23  24
ATOM     24  C   UNL     1       5.378   4.386  17.433  0.00  0.00    +0.000 A 
ATOM     25  N   UNL     1       5.774   4.454  18.688  0.00  0.00    +0.000 NA
ATOM     26  N   UNL     1       7.146   4.534  18.706  0.00  0.00    +0.000 NA
ATOM     27  C   UNL     1       7.561   4.504  17.463  0.00  0.00    +0.000 A 
ATOM     28  N   UNL     1       6.490   4.401  16.628  0.00  0.00    +0.000 N 
ATOM     29  C   UNL     1       6.556   4.311  15.194  0.00  0.00    +0.000 C 
ENDBRANCH  23  24
ENDBRANCH  21  23
ENDBRANCH   5  21
TORSDOF 5
ENDMDL
MODEL 8
REMARK VINA RESULT:      -8.1      2.087      2.984
REMARK  Name = 
REMARK  8 active torsions:
REMARK  status: ('A' for Active; 'I' for Inactive)
REMARK    1  A    between atoms: C_1  and  C_2
REMARK    2  A    between atoms: C_4  and  C_5
REMARK    3  A    between atoms: N_7  and  C_8
REMARK    4  A    between atoms: C_12  and  C_13
REMARK    5  A    between atoms: C_13  and  C_14
REMARK    6  A    between atoms: C_13  and  C_15
REMARK    7  A    between atoms: C_15  and  C_16
REMARK    8  A    between atoms: N_20  and  C_21
REMARK                            x       y       z     vdW  Elec       q    Type
REMARK                         _______ _______ _______ _____ _____    ______ ____
ROOT
ATOM      1  C   UNL     1       2.966   6.063  19.203  0.00  0.00    +0.000 A 
ATOM      2  C   UNL     1       3.115   4.819  19.823  0.00  0.00    +0.000 A 
ATOM      3  C   UNL     1       3.962   3.849  19.292  0.00  0.00    +0.000 A 
ATOM      4  C   UNL     1       4.704   4.121  18.149  0.00  0.00    +0.000 A 
ATOM      5  C   UNL     1       4.603   5.367  17.514  0.00  0.00    +0.000 A 
ATOM      6  C   UNL     1       3.685   6.315  18.023  0.00  0.00    +0.000 A 
ENDROOT
BRANCH   1   9
ATOM      7  C   UNL     1       1.843   8.281  19.123  0.00  0.00    +0.000 C 
ATOM      8  O   UNL     1       2.201   8.651  18.010  0.00  0.00    +0.000 OA
ATOM      9  N   UNL     1       2.141   7.079  19.745  0.00  0.00    +0.000 N 
ATOM     10  H   UNL     1       1.636   6.892  20.607  0.00  0.00    +0.000 HD
BRANCH   7  14
ATOM     11  C   UNL     1      -1.188  12.333  19.130  0.00  0.00    +0.000 C 
ATOM     12  C   UNL     1      -0.505  11.174  19.788  0.00  0.00    +0.000 A 
ATOM     13  C   UNL     1       0.303  10.329  19.122  0.00  0.00    +0.000 A 
ATOM     14  C   UNL     1       0.919   9.214  19.913  0.00  0.00    +0.000 A 
ATOM     15  N   UNL     1       0.724   8.993  21.187  0.00  0.00    +0.000 NA
ATOM     16  C   UNL     1      -0.106   9.885  21.821  0.00  0.00    +0.000 A 
ATOM     17  C   UNL     1      -0.521   9.971  23.129  0.00  0.00    +0.000 A 
ATOM     18  C   UNL     1      -1.363  11.091  23.180  0.00  0.00    +0.000 A 
ATOM     19  N   UNL     1      -1.490  11.693  22.001  0.00  0.00    +0.000 NA
ATOM     20  N   UNL     1      -0.719  10.961  21.156  0.00  0.00    +0.000 N 
ENDBRANCH   7  14
ENDBRANCH   1   9
BRANCH   5  21
ATOM     21  C   UNL     1       5.557   5.733  16.375  0.00  0.00    +0.000 C 
ATOM     22  C   UNL     1       5.048   6.933  15.562  0.00  0.00    +0.000 C 
BRANCH  21  23
ATOM     23  C   UNL     1       5.783   4.489  15.474  0.00  0.00    +0.000 C 
BRANCH  23  24
ATOM     24  C   UNL     1       6.705   4.751  14.330  0.00  0.00    +0.000 A 
ATOM     25  N   UNL     1       7.783   5.509  14.365  0.00  0.00    +0.000 NA
ATOM     26  N   UNL     1       8.365   5.491  13.121  0.00  0.00    +0.000 NA
ATOM     27  C   UNL     1       7.638   4.717  12.353  0.00  0.00    +0.000 A 
ATOM     28  N   UNL     1       6.592   4.220  13.069  0.00  0.00    +0.000 N 
ATOM     29  C   UNL     1       5.597   3.309  12.570  0.00  0.00    +0.000 C 
ENDBRANCH  23  24
ENDBRANCH  21  23
ENDBRANCH   5  21
TORSDOF 5
ENDMDL
MODEL 9
REMARK VINA RESULT:      -8.1      4.474      7.058
REMARK  Name = 
REMARK  8 active torsions:
REMARK  status: ('A' for Active; 'I' for Inactive)
REMARK    1  A    between atoms: C_1  and  C_2
REMARK    2  A    between atoms: C_4  and  C_5
REMARK    3  A    between atoms: N_7  and  C_8
REMARK    4  A    between atoms: C_12  and  C_13
REMARK    5  A    between atoms: C_13  and  C_14
REMARK    6  A    between atoms: C_13  and  C_15
REMARK    7  A    between atoms: C_15  and  C_16
REMARK    8  A    between atoms: N_20  and  C_21
REMARK                            x       y       z     vdW  Elec       q    Type
REMARK                         _______ _______ _______ _____ _____    ______ ____
ROOT
ATOM      1  C   UNL     1       6.547   6.705  16.909  0.00  0.00    +0.000 A 
ATOM      2  C   UNL     1       7.111   5.853  15.955  0.00  0.00    +0.000 A 
ATOM      3  C   UNL     1       6.478   4.668  15.587  0.00  0.00    +0.000 A 
ATOM      4  C   UNL     1       5.250   4.331  16.143  0.00  0.00    +0.000 A 
ATOM      5  C   UNL     1       4.638   5.174  17.083  0.00  0.00    +0.000 A 
ATOM      6  C   UNL     1       5.326   6.337  17.499  0.00  0.00    +0.000 A 
ENDROOT
BRANCH   1   9
ATOM      7  C   UNL     1       8.086   8.097  18.280  0.00  0.00    +0.000 C 
ATOM      8  O   UNL     1       8.569   7.225  18.994  0.00  0.00    +0.000 OA
ATOM      9  N   UNL     1       7.151   7.934  17.270  0.00  0.00    +0.000 N 
ATOM     10  H   UNL     1       6.980   8.753  16.693  0.00  0.00    +0.000 HD
BRANCH   7  14
ATOM     11  C   UNL     1       7.780  12.980  16.986  0.00  0.00    +0.000 C 
ATOM     12  C   UNL     1       8.356  11.837  17.764  0.00  0.00    +0.000 A 
ATOM     13  C   UNL     1       7.924  10.570  17.628  0.00  0.00    +0.000 A 
ATOM     14  C   UNL     1       8.597   9.529  18.472  0.00  0.00    +0.000 A 
ATOM     15  N   UNL     1       9.556   9.757  19.332  0.00  0.00    +0.000 NA
ATOM     16  C   UNL     1       9.963  11.065  19.430  0.00  0.00    +0.000 A 
ATOM     17  C   UNL     1      10.931  11.661  20.203  0.00  0.00    +0.000 A 
ATOM     18  C   UNL     1      10.887  13.022  19.871  0.00  0.00    +0.000 A 
ATOM     19  N   UNL     1       9.965  13.298  18.953  0.00  0.00    +0.000 NA
ATOM     20  N   UNL     1       9.390  12.101  18.672  0.00  0.00    +0.000 N 
ENDBRANCH   7  14
ENDBRANCH   1   9
BRANCH   5  21
ATOM     21  C   UNL     1       3.206   4.901  17.547  0.00  0.00    +0.000 C 
ATOM     22  C   UNL     1       2.854   5.691  18.817  0.00  0.00    +0.000 C 
BRANCH  21  23
ATOM     23  C   UNL     1       3.014   3.375  17.753  0.00  0.00    +0.000 C 
BRANCH  23  24
ATOM     24  C   UNL     1       3.400   2.913  19.119  0.00  0.00    +0.000 A 
ATOM     25  N   UNL     1       4.627   2.667  19.533  0.00  0.00    +0.000 NA
ATOM     26  N   UNL     1       4.569   2.271  20.847  0.00  0.00    +0.000 NA
ATOM     27  C   UNL     1       3.311   2.291  21.213  0.00  0.00    +0.000 A 
ATOM     28  N   UNL     1       2.540   2.697  20.167  0.00  0.00    +0.000 N 
ATOM     29  C   UNL     1       1.112   2.870  20.201  0.00  0.00    +0.000 C 
ENDBRANCH  23  24
ENDBRANCH  21  23
ENDBRANCH   5  21
TORSDOF 5
ENDMDL
