MODEL 1
REMARK VINA RESULT:     -10.6      0.000      0.000
REMARK  Name = 
REMARK  7 active torsions:
REMARK  status: ('A' for Active; 'I' for Inactive)
REMARK    1  A    between atoms: C_1  and  N_2
REMARK    2  A    between atoms: C_6  and  C_7
REMARK    3  A    between atoms: C_7  and  C_8
REMARK    4  A    between atoms: C_8  and  C_9
REMARK    5  A    between atoms: C_13  and  N_14
REMARK    6  A    between atoms: C_19  and  C_20
REMARK    7  A    between atoms: C_27  and  C_28
REMARK                            x       y       z     vdW  Elec       q    Type
REMARK                         _______ _______ _______ _____ _____    ______ ____
ROOT
ATOM      1  N   UNL     1       1.294   8.385  20.337  0.00  0.00    +0.000 N 
ATOM      2  C   UNL     1       1.387   7.012  20.809  0.00  0.00    +0.000 C 
ATOM      3  C   UNL     1       2.215   6.334  19.802  0.00  0.00    +0.000 A 
ATOM      4  C   UNL     1       2.610   7.253  18.845  0.00  0.00    +0.000 A 
ATOM      5  C   UNL     1       3.399   6.874  17.786  0.00  0.00    +0.000 A 
ATOM      6  C   UNL     1       3.828   5.531  17.702  0.00  0.00    +0.000 A 
ATOM      7  C   UNL     1       3.402   4.613  18.697  0.00  0.00    +0.000 A 
ATOM      8  C   UNL     1       2.561   4.994  19.746  0.00  0.00    +0.000 A 
ATOM      9  C   UNL     1       2.011   8.572  19.160  0.00  0.00    +0.000 C 
ATOM     10  O   UNL     1       2.143   9.557  18.459  0.00  0.00    +0.000 OA
ENDROOT
BRANCH   1  15
ATOM     11  C   UNL     1      -0.991  11.288  20.699  0.00  0.00    +0.000 A 
ATOM     12  C   UNL     1      -1.194  11.287  22.085  0.00  0.00    +0.000 A 
ATOM     13  C   UNL     1      -0.636  10.292  22.906  0.00  0.00    +0.000 A 
ATOM     14  C   UNL     1       0.178   9.283  22.369  0.00  0.00    +0.000 A 
ATOM     15  C   UNL     1       0.422   9.268  21.005  0.00  0.00    +0.000 A 
ATOM     16  C   UNL     1      -0.209  10.242  20.216  0.00  0.00    +0.000 A 
BRANCH  11  17
ATOM     17  C   UNL     1      -1.546  12.366  19.647  0.00  0.00    +0.000 C 
ATOM     18  C   UNL     1      -0.556  12.763  18.527  0.00  0.00    +0.000 C 
ATOM     19  O   UNL     1      -0.539  14.146  18.927  0.00  0.00    +0.000 OA
ATOM     20  C   UNL     1      -1.444  13.883  20.018  0.00  0.00    +0.000 C 
BRANCH  17  21
ATOM     21  C   UNL     1      -2.961  11.969  19.164  0.00  0.00    +0.000 C 
BRANCH  21  27
ATOM     22  C   UNL     1      -5.314  12.134  17.039  0.00  0.00    +0.000 C 
ATOM     23  N   UNL     1      -4.055  11.463  16.893  0.00  0.00    +0.000 N 
ATOM     24  C   UNL     1      -3.679  10.733  15.801  0.00  0.00    +0.000 A 
ATOM     25  N   UNL     1      -2.468  10.268  15.975  0.00  0.00    +0.000 NA
ATOM     26  N   UNL     1      -2.046  10.678  17.215  0.00  0.00    +0.000 NA
ATOM     27  C   UNL     1      -3.009  11.404  17.771  0.00  0.00    +0.000 A 
ENDBRANCH  21  27
ENDBRANCH  17  21
ENDBRANCH  11  17
ENDBRANCH   1  15
BRANCH   6  28
ATOM     28  C   UNL     1       4.717   5.050  16.603  0.00  0.00    +0.000 C 
ATOM     29  C   UNL     1       5.572   4.040  16.899  0.00  0.00    +0.000 C 
ATOM     30  C   UNL     1       7.029   4.446  17.079  0.00  0.00    +0.000 C 
ATOM     31  C   UNL     1       7.126   5.972  17.104  0.00  0.00    +0.000 C 
ATOM     32  O   UNL     1       6.584   6.502  15.887  0.00  0.00    +0.000 OA
ATOM     33  C   UNL     1       5.234   6.085  15.619  0.00  0.00    +0.000 C 
ENDBRANCH   6  28
BRANCH   8  34
ATOM     34  C   UNL     1       2.036   3.979  20.729  0.00  0.00    +0.000 C 
ATOM     35  F   UNL     1       0.680   3.893  20.754  0.00  0.00    +0.000 F 
ATOM     36  F   UNL     1       2.485   2.725  20.452  0.00  0.00    +0.000 F 
ATOM     37  F   UNL     1       2.412   4.247  22.007  0.00  0.00    +0.000 F 
ENDBRANCH   8  34
TORSDOF 6
ENDMDL
MODEL 2
REMARK VINA RESULT:     -10.4      1.767      2.901
REMARK  Name = 
REMARK  7 active torsions:
REMARK  status: ('A' for Active; 'I' for Inactive)
REMARK    1  A    between atoms: C_1  and  N_2
REMARK    2  A    between atoms: C_6  and  C_7
REMARK    3  A    between atoms: C_7  and  C_8
REMARK    4  A    between atoms: C_8  and  C_9
REMARK    5  A    between atoms: C_13  and  N_14
REMARK    6  A    between atoms: C_19  and  C_20
REMARK    7  A    between atoms: C_27  and  C_28
REMARK                            x       y       z     vdW  Elec       q    Type
REMARK                         _______ _______ _______ _____ _____    ______ ____
ROOT
ATOM      1  N   UNL     1       1.301   8.406  20.316  0.00  0.00    +0.000 N 
ATOM      2  C   UNL     1       1.386   7.037  20.797  0.00  0.00    +0.000 C 
ATOM      3  C   UNL     1       2.215   6.348  19.795  0.00  0.00    +0.000 A 
ATOM      4  C   UNL     1       2.616   7.259  18.834  0.00  0.00    +0.000 A 
ATOM      5  C   UNL     1       3.405   6.870  17.779  0.00  0.00    +0.000 A 
ATOM      6  C   UNL     1       3.829   5.525  17.705  0.00  0.00    +0.000 A 
ATOM      7  C   UNL     1       3.397   4.615  18.705  0.00  0.00    +0.000 A 
ATOM      8  C   UNL     1       2.554   5.006  19.750  0.00  0.00    +0.000 A 
ATOM      9  C   UNL     1       2.021   8.583  19.139  0.00  0.00    +0.000 C 
ATOM     10  O   UNL     1       2.159   9.563  18.432  0.00  0.00    +0.000 OA
ENDROOT
BRANCH   1  15
ATOM     11  C   UNL     1      -1.091  11.229  20.622  0.00  0.00    +0.000 A 
ATOM     12  C   UNL     1      -1.209  11.319  22.015  0.00  0.00    +0.000 A 
ATOM     13  C   UNL     1      -0.556  10.410  22.865  0.00  0.00    +0.000 A 
ATOM     14  C   UNL     1       0.270   9.401  22.348  0.00  0.00    +0.000 A 
ATOM     15  C   UNL     1       0.430   9.297  20.975  0.00  0.00    +0.000 A 
ATOM     16  C   UNL     1      -0.292  10.185  20.163  0.00  0.00    +0.000 A 
BRANCH  11  17
ATOM     17  C   UNL     1      -1.759  12.204  19.536  0.00  0.00    +0.000 C 
ATOM     18  C   UNL     1      -3.302  12.299  19.597  0.00  0.00    +0.000 C 
ATOM     19  O   UNL     1      -3.463  11.787  18.261  0.00  0.00    +0.000 OA
ATOM     20  C   UNL     1      -2.038  11.636  18.105  0.00  0.00    +0.000 C 
BRANCH  17  21
ATOM     21  C   UNL     1      -1.017  13.561  19.500  0.00  0.00    +0.000 C 
BRANCH  21  27
ATOM     22  C   UNL     1       1.071  14.367  21.751  0.00  0.00    +0.000 C 
ATOM     23  N   UNL     1       1.357  13.842  20.447  0.00  0.00    +0.000 N 
ATOM     24  C   UNL     1       2.609  13.642  19.941  0.00  0.00    +0.000 A 
ATOM     25  N   UNL     1       2.524  13.136  18.737  0.00  0.00    +0.000 NA
ATOM     26  N   UNL     1       1.191  13.023  18.433  0.00  0.00    +0.000 NA
ATOM     27  C   UNL     1       0.483  13.451  19.472  0.00  0.00    +0.000 A 
ENDBRANCH  21  27
ENDBRANCH  17  21
ENDBRANCH  11  17
ENDBRANCH   1  15
BRANCH   6  28
ATOM     28  C   UNL     1       4.719   5.033  16.612  0.00  0.00    +0.000 C 
ATOM     29  C   UNL     1       5.556   4.009  16.911  0.00  0.00    +0.000 C 
ATOM     30  C   UNL     1       7.017   4.393  17.103  0.00  0.00    +0.000 C 
ATOM     31  C   UNL     1       7.138   5.917  17.133  0.00  0.00    +0.000 C 
ATOM     32  O   UNL     1       6.612   6.458  15.912  0.00  0.00    +0.000 OA
ATOM     33  C   UNL     1       5.258   6.062  15.634  0.00  0.00    +0.000 C 
ENDBRANCH   6  28
BRANCH   8  34
ATOM     34  C   UNL     1       2.023   4.000  20.737  0.00  0.00    +0.000 C 
ATOM     35  F   UNL     1       2.434   2.728  20.496  0.00  0.00    +0.000 F 
ATOM     36  F   UNL     1       2.411   4.284  22.011  0.00  0.00    +0.000 F 
ATOM     37  F   UNL     1       0.665   3.952  20.753  0.00  0.00    +0.000 F 
ENDBRANCH   8  34
TORSDOF 6
ENDMDL
MODEL 3
REMARK VINA RESULT:     -10.2      1.993      2.963
REMARK  Name = 
REMARK  7 active torsions:
REMARK  status: ('A' for Active; 'I' for Inactive)
REMARK    1  A    between atoms: C_1  and  N_2
REMARK    2  A    between atoms: C_6  and  C_7
REMARK    3  A    between atoms: C_7  and  C_8
REMARK    4  A    between atoms: C_8  and  C_9
REMARK    5  A    between atoms: C_13  and  N_14
REMARK    6  A    between atoms: C_19  and  C_20
REMARK    7  A    between atoms: C_27  and  C_28
REMARK                            x       y       z     vdW  Elec       q    Type
REMARK                         _______ _______ _______ _____ _____    ______ ____
ROOT
ATOM      1  N   UNL     1       1.284   8.366  20.444  0.00  0.00    +0.000 N 
ATOM      2  C   UNL     1       1.380   6.984  20.886  0.00  0.00    +0.000 C 
ATOM      3  C   UNL     1       2.200   6.326  19.856  0.00  0.00    +0.000 A 
ATOM      4  C   UNL     1       2.586   7.265  18.916  0.00  0.00    +0.000 A 
ATOM      5  C   UNL     1       3.365   6.908  17.842  0.00  0.00    +0.000 A 
ATOM      6  C   UNL     1       3.793   5.568  17.726  0.00  0.00    +0.000 A 
ATOM      7  C   UNL     1       3.376   4.629  18.705  0.00  0.00    +0.000 A 
ATOM      8  C   UNL     1       2.544   4.988  19.770  0.00  0.00    +0.000 A 
ATOM      9  C   UNL     1       1.990   8.577  19.264  0.00  0.00    +0.000 C 
ATOM     10  O   UNL     1       2.117   9.577  18.583  0.00  0.00    +0.000 OA
ENDROOT
BRANCH   1  15
ATOM     11  C   UNL     1      -1.019  11.244  20.880  0.00  0.00    +0.000 A 
ATOM     12  C   UNL     1      -1.193  11.229  22.269  0.00  0.00    +0.000 A 
ATOM     13  C   UNL     1      -0.608  10.233  23.069  0.00  0.00    +0.000 A 
ATOM     14  C   UNL     1       0.204   9.237  22.506  0.00  0.00    +0.000 A 
ATOM     15  C   UNL     1       0.418   9.235  21.137  0.00  0.00    +0.000 A 
ATOM     16  C   UNL     1      -0.238  10.210  20.370  0.00  0.00    +0.000 A 
BRANCH  11  17
ATOM     17  C   UNL     1      -1.607  12.325  19.849  0.00  0.00    +0.000 C 
ATOM     18  C   UNL     1      -3.142  12.292  19.663  0.00  0.00    +0.000 C 
ATOM     19  O   UNL     1      -3.043  11.988  18.260  0.00  0.00    +0.000 OA
ATOM     20  C   UNL     1      -1.603  11.974  18.324  0.00  0.00    +0.000 C 
BRANCH  17  21
ATOM     21  C   UNL     1      -1.010  13.724  20.135  0.00  0.00    +0.000 C 
BRANCH  21  27
ATOM     22  C   UNL     1       1.477  13.304  18.206  0.00  0.00    +0.000 C 
ATOM     23  N   UNL     1       1.501  13.497  19.627  0.00  0.00    +0.000 N 
ATOM     24  C   UNL     1       2.627  13.487  20.399  0.00  0.00    +0.000 A 
ATOM     25  N   UNL     1       2.308  13.710  21.650  0.00  0.00    +0.000 NA
ATOM     26  N   UNL     1       0.944  13.845  21.707  0.00  0.00    +0.000 NA
ATOM     27  C   UNL     1       0.454  13.717  20.480  0.00  0.00    +0.000 A 
ENDBRANCH  21  27
ENDBRANCH  17  21
ENDBRANCH  11  17
ENDBRANCH   1  15
BRANCH   6  28
ATOM     28  C   UNL     1       4.672   5.109  16.610  0.00  0.00    +0.000 C 
ATOM     29  C   UNL     1       5.484   4.052  16.858  0.00  0.00    +0.000 C 
ATOM     30  C   UNL     1       6.954   4.392  17.068  0.00  0.00    +0.000 C 
ATOM     31  C   UNL     1       7.110   5.909  17.173  0.00  0.00    +0.000 C 
ATOM     32  O   UNL     1       6.600   6.522  15.982  0.00  0.00    +0.000 OA
ATOM     33  C   UNL     1       5.237   6.173  15.684  0.00  0.00    +0.000 C 
ENDBRANCH   6  28
BRANCH   8  34
ATOM     34  C   UNL     1       2.027   3.953  20.736  0.00  0.00    +0.000 C 
ATOM     35  F   UNL     1       0.672   3.864  20.768  0.00  0.00    +0.000 F 
ATOM     36  F   UNL     1       2.477   2.705  20.431  0.00  0.00    +0.000 F 
ATOM     37  F   UNL     1       2.412   4.196  22.016  0.00  0.00    +0.000 F 
ENDBRANCH   8  34
TORSDOF 6
ENDMDL
MODEL 4
REMARK VINA RESULT:     -10.2      1.929      2.881
REMARK  Name = 
REMARK  7 active torsions:
REMARK  status: ('A' for Active; 'I' for Inactive)
REMARK    1  A    between atoms: C_1  and  N_2
REMARK    2  A    between atoms: C_6  and  C_7
REMARK    3  A    between atoms: C_7  and  C_8
REMARK    4  A    between atoms: C_8  and  C_9
REMARK    5  A    between atoms: C_13  and  N_14
REMARK    6  A    between atoms: C_19  and  C_20
REMARK    7  A    between atoms: C_27  and  C_28
REMARK                            x       y       z     vdW  Elec       q    Type
REMARK                         _______ _______ _______ _____ _____    ______ ____
ROOT
ATOM      1  N   UNL     1       1.319   8.302  20.412  0.00  0.00    +0.000 N 
ATOM      2  C   UNL     1       1.399   6.924  20.870  0.00  0.00    +0.000 C 
ATOM      3  C   UNL     1       2.223   6.249  19.856  0.00  0.00    +0.000 A 
ATOM      4  C   UNL     1       2.627   7.175  18.910  0.00  0.00    +0.000 A 
ATOM      5  C   UNL     1       3.414   6.800  17.848  0.00  0.00    +0.000 A 
ATOM      6  C   UNL     1       3.832   5.454  17.750  0.00  0.00    +0.000 A 
ATOM      7  C   UNL     1       3.397   4.529  18.734  0.00  0.00    +0.000 A 
ATOM      8  C   UNL     1       2.557   4.907  19.787  0.00  0.00    +0.000 A 
ATOM      9  C   UNL     1       2.038   8.495  19.238  0.00  0.00    +0.000 C 
ATOM     10  O   UNL     1       2.180   9.487  18.547  0.00  0.00    +0.000 OA
ENDROOT
BRANCH   1  15
ATOM     11  C   UNL     1      -0.937  11.224  20.804  0.00  0.00    +0.000 A 
ATOM     12  C   UNL     1      -1.145  11.207  22.188  0.00  0.00    +0.000 A 
ATOM     13  C   UNL     1      -0.600  10.197  22.998  0.00  0.00    +0.000 A 
ATOM     14  C   UNL     1       0.205   9.186  22.451  0.00  0.00    +0.000 A 
ATOM     15  C   UNL     1       0.453   9.186  21.088  0.00  0.00    +0.000 A 
ATOM     16  C   UNL     1      -0.164  10.176  20.309  0.00  0.00    +0.000 A 
BRANCH  11  17
ATOM     17  C   UNL     1      -1.478  12.321  19.763  0.00  0.00    +0.000 C 
ATOM     18  C   UNL     1      -2.854  12.007  19.131  0.00  0.00    +0.000 C 
ATOM     19  O   UNL     1      -2.318  11.970  17.795  0.00  0.00    +0.000 OA
ATOM     20  C   UNL     1      -0.987  12.239  18.280  0.00  0.00    +0.000 C 
BRANCH  17  21
ATOM     21  C   UNL     1      -1.335  13.743  20.356  0.00  0.00    +0.000 C 
BRANCH  21  27
ATOM     22  C   UNL     1       1.804  13.541  20.789  0.00  0.00    +0.000 C 
ATOM     23  N   UNL     1       1.097  14.482  19.968  0.00  0.00    +0.000 N 
ATOM     24  C   UNL     1       1.679  15.493  19.259  0.00  0.00    +0.000 A 
ATOM     25  N   UNL     1       0.762  16.158  18.602  0.00  0.00    +0.000 NA
ATOM     26  N   UNL     1      -0.450  15.590  18.903  0.00  0.00    +0.000 NA
ATOM     27  C   UNL     1      -0.246  14.572  19.731  0.00  0.00    +0.000 A 
ENDBRANCH  21  27
ENDBRANCH  17  21
ENDBRANCH  11  17
ENDBRANCH   1  15
BRANCH   6  28
ATOM     28  C   UNL     1       4.718   4.977  16.647  0.00  0.00    +0.000 C 
ATOM     29  C   UNL     1       5.609   4.001  16.950  0.00  0.00    +0.000 C 
ATOM     30  C   UNL     1       7.054   4.457  17.097  0.00  0.00    +0.000 C 
ATOM     31  C   UNL     1       7.104   5.985  17.088  0.00  0.00    +0.000 C 
ATOM     32  O   UNL     1       6.526   6.471  15.869  0.00  0.00    +0.000 OA
ATOM     33  C   UNL     1       5.186   6.006  15.633  0.00  0.00    +0.000 C 
ENDBRANCH   6  28
BRANCH   8  34
ATOM     34  C   UNL     1       2.023   3.886  20.758  0.00  0.00    +0.000 C 
ATOM     35  F   UNL     1       0.666   3.804  20.773  0.00  0.00    +0.000 F 
ATOM     36  F   UNL     1       2.470   2.633  20.476  0.00  0.00    +0.000 F 
ATOM     37  F   UNL     1       2.391   4.144  22.041  0.00  0.00    +0.000 F 
ENDBRANCH   8  34
TORSDOF 6
ENDMDL
MODEL 5
REMARK VINA RESULT:     -10.2      1.566      2.308
REMARK  Name = 
REMARK  7 active torsions:
REMARK  status: ('A' for Active; 'I' for Inactive)
REMARK    1  A    between atoms: C_1  and  N_2
REMARK    2  A    between atoms: C_6  and  C_7
REMARK    3  A    between atoms: C_7  and  C_8
REMARK    4  A    between atoms: C_8  and  C_9
REMARK    5  A    between atoms: C_13  and  N_14
REMARK    6  A    between atoms: C_19  and  C_20
REMARK    7  A    between atoms: C_27  and  C_28
REMARK                            x       y       z     vdW  Elec       q    Type
REMARK                         _______ _______ _______ _____ _____    ______ ____
ROOT
ATOM      1  N   UNL     1       1.329   8.289  20.375  0.00  0.00    +0.000 N 
ATOM      2  C   UNL     1       1.411   6.910  20.827  0.00  0.00    +0.000 C 
ATOM      3  C   UNL     1       2.234   6.239  19.810  0.00  0.00    +0.000 A 
ATOM      4  C   UNL     1       2.636   7.168  18.867  0.00  0.00    +0.000 A 
ATOM      5  C   UNL     1       3.422   6.798  17.802  0.00  0.00    +0.000 A 
ATOM      6  C   UNL     1       3.841   5.453  17.700  0.00  0.00    +0.000 A 
ATOM      7  C   UNL     1       3.408   4.524  18.681  0.00  0.00    +0.000 A 
ATOM      8  C   UNL     1       2.569   4.898  19.736  0.00  0.00    +0.000 A 
ATOM      9  C   UNL     1       2.047   8.487  19.200  0.00  0.00    +0.000 C 
ATOM     10  O   UNL     1       2.187   9.481  18.513  0.00  0.00    +0.000 OA
ENDROOT
BRANCH   1  15
ATOM     11  C   UNL     1      -1.081  11.090  20.739  0.00  0.00    +0.000 A 
ATOM     12  C   UNL     1      -1.173  11.173  22.134  0.00  0.00    +0.000 A 
ATOM     13  C   UNL     1      -0.496  10.266  22.968  0.00  0.00    +0.000 A 
ATOM     14  C   UNL     1       0.328   9.266  22.430  0.00  0.00    +0.000 A 
ATOM     15  C   UNL     1       0.464   9.170  21.054  0.00  0.00    +0.000 A 
ATOM     16  C   UNL     1      -0.281  10.055  20.260  0.00  0.00    +0.000 A 
BRANCH  11  17
ATOM     17  C   UNL     1      -1.778  12.063  19.670  0.00  0.00    +0.000 C 
ATOM     18  C   UNL     1      -2.518  11.351  18.514  0.00  0.00    +0.000 C 
ATOM     19  O   UNL     1      -1.673  11.938  17.508  0.00  0.00    +0.000 OA
ATOM     20  C   UNL     1      -0.901  12.634  18.507  0.00  0.00    +0.000 C 
BRANCH  17  21
ATOM     21  C   UNL     1      -2.591  13.164  20.393  0.00  0.00    +0.000 C 
BRANCH  21  27
ATOM     22  C   UNL     1      -4.355  12.851  23.014  0.00  0.00    +0.000 C 
ATOM     23  N   UNL     1      -4.787  12.713  21.653  0.00  0.00    +0.000 N 
ATOM     24  C   UNL     1      -6.051  12.375  21.263  0.00  0.00    +0.000 A 
ATOM     25  N   UNL     1      -6.120  12.353  19.956  0.00  0.00    +0.000 NA
ATOM     26  N   UNL     1      -4.872  12.658  19.474  0.00  0.00    +0.000 NA
ATOM     27  C   UNL     1      -4.064  12.879  20.504  0.00  0.00    +0.000 A 
ENDBRANCH  21  27
ENDBRANCH  17  21
ENDBRANCH  11  17
ENDBRANCH   1  15
BRANCH   6  28
ATOM     28  C   UNL     1       4.725   4.980  16.594  0.00  0.00    +0.000 C 
ATOM     29  C   UNL     1       5.582   3.968  16.879  0.00  0.00    +0.000 C 
ATOM     30  C   UNL     1       7.039   4.375  17.056  0.00  0.00    +0.000 C 
ATOM     31  C   UNL     1       7.136   5.901  17.092  0.00  0.00    +0.000 C 
ATOM     32  O   UNL     1       6.589   6.439  15.881  0.00  0.00    +0.000 OA
ATOM     33  C   UNL     1       5.238   6.023  15.615  0.00  0.00    +0.000 C 
ENDBRANCH   6  28
BRANCH   8  34
ATOM     34  C   UNL     1       2.036   3.873  20.704  0.00  0.00    +0.000 C 
ATOM     35  F   UNL     1       2.452   2.606  20.443  0.00  0.00    +0.000 F 
ATOM     36  F   UNL     1       2.418   4.136  21.984  0.00  0.00    +0.000 F 
ATOM     37  F   UNL     1       0.678   3.821  20.713  0.00  0.00    +0.000 F 
ENDBRANCH   8  34
TORSDOF 6
ENDMDL
MODEL 6
REMARK VINA RESULT:     -10.2      2.080      3.218
REMARK  Name = 
REMARK  7 active torsions:
REMARK  status: ('A' for Active; 'I' for Inactive)
REMARK    1  A    between atoms: C_1  and  N_2
REMARK    2  A    between atoms: C_6  and  C_7
REMARK    3  A    between atoms: C_7  and  C_8
REMARK    4  A    between atoms: C_8  and  C_9
REMARK    5  A    between atoms: C_13  and  N_14
REMARK    6  A    between atoms: C_19  and  C_20
REMARK    7  A    between atoms: C_27  and  C_28
REMARK                            x       y       z     vdW  Elec       q    Type
REMARK                         _______ _______ _______ _____ _____    ______ ____
ROOT
ATOM      1  N   UNL     1       1.308   8.255  20.487  0.00  0.00    +0.000 N 
ATOM      2  C   UNL     1       1.409   6.870  20.919  0.00  0.00    +0.000 C 
ATOM      3  C   UNL     1       2.227   6.223  19.882  0.00  0.00    +0.000 A 
ATOM      4  C   UNL     1       2.607   7.170  18.947  0.00  0.00    +0.000 A 
ATOM      5  C   UNL     1       3.383   6.823  17.868  0.00  0.00    +0.000 A 
ATOM      6  C   UNL     1       3.815   5.484  17.741  0.00  0.00    +0.000 A 
ATOM      7  C   UNL     1       3.403   4.537  18.714  0.00  0.00    +0.000 A 
ATOM      8  C   UNL     1       2.574   4.886  19.785  0.00  0.00    +0.000 A 
ATOM      9  C   UNL     1       2.009   8.477  19.307  0.00  0.00    +0.000 C 
ATOM     10  O   UNL     1       2.130   9.483  18.632  0.00  0.00    +0.000 OA
ENDROOT
BRANCH   1  15
ATOM     11  C   UNL     1      -0.781  11.274  21.042  0.00  0.00    +0.000 A 
ATOM     12  C   UNL     1      -1.118  11.111  22.391  0.00  0.00    +0.000 A 
ATOM     13  C   UNL     1      -0.718   9.975  23.114  0.00  0.00    +0.000 A 
ATOM     14  C   UNL     1       0.067   8.977  22.517  0.00  0.00    +0.000 A 
ATOM     15  C   UNL     1       0.442   9.117  21.191  0.00  0.00    +0.000 A 
ATOM     16  C   UNL     1      -0.034  10.236  20.490  0.00  0.00    +0.000 A 
BRANCH  11  17
ATOM     17  C   UNL     1      -1.149  12.523  20.103  0.00  0.00    +0.000 C 
ATOM     18  C   UNL     1      -2.278  12.266  19.078  0.00  0.00    +0.000 C 
ATOM     19  O   UNL     1      -1.419  12.520  17.951  0.00  0.00    +0.000 OA
ATOM     20  C   UNL     1      -0.290  12.759  18.816  0.00  0.00    +0.000 C 
BRANCH  17  21
ATOM     21  C   UNL     1      -1.310  13.807  20.951  0.00  0.00    +0.000 C 
BRANCH  21  27
ATOM     22  C   UNL     1      -0.039  16.435  19.703  0.00  0.00    +0.000 C 
ATOM     23  N   UNL     1       0.521  15.598  20.724  0.00  0.00    +0.000 N 
ATOM     24  C   UNL     1       1.743  15.782  21.305  0.00  0.00    +0.000 A 
ATOM     25  N   UNL     1       1.948  14.859  22.210  0.00  0.00    +0.000 NA
ATOM     26  N   UNL     1       0.851  14.034  22.209  0.00  0.00    +0.000 NA
ATOM     27  C   UNL     1      -0.015  14.484  21.309  0.00  0.00    +0.000 A 
ENDBRANCH  21  27
ENDBRANCH  17  21
ENDBRANCH  11  17
ENDBRANCH   1  15
BRANCH   6  28
ATOM     28  C   UNL     1       4.690   5.037  16.617  0.00  0.00    +0.000 C 
ATOM     29  C   UNL     1       5.535   4.005  16.866  0.00  0.00    +0.000 C 
ATOM     30  C   UNL     1       6.997   4.387  17.053  0.00  0.00    +0.000 C 
ATOM     31  C   UNL     1       7.113   5.909  17.138  0.00  0.00    +0.000 C 
ATOM     32  O   UNL     1       6.570   6.494  15.946  0.00  0.00    +0.000 OA
ATOM     33  C   UNL     1       5.214   6.104  15.672  0.00  0.00    +0.000 C 
ENDBRANCH   6  28
BRANCH   8  34
ATOM     34  C   UNL     1       2.064   3.842  20.744  0.00  0.00    +0.000 C 
ATOM     35  F   UNL     1       2.521   2.590  20.483  0.00  0.00    +0.000 F 
ATOM     36  F   UNL     1       2.426   4.112  22.028  0.00  0.00    +0.000 F 
ATOM     37  F   UNL     1       0.709   3.749  20.741  0.00  0.00    +0.000 F 
ENDBRANCH   8  34
TORSDOF 6
ENDMDL
MODEL 7
REMARK VINA RESULT:     -10.2      1.800      2.380
REMARK  Name = 
REMARK  7 active torsions:
REMARK  status: ('A' for Active; 'I' for Inactive)
REMARK    1  A    between atoms: C_1  and  N_2
REMARK    2  A    between atoms: C_6  and  C_7
REMARK    3  A    between atoms: C_7  and  C_8
REMARK    4  A    between atoms: C_8  and  C_9
REMARK    5  A    between atoms: C_13  and  N_14
REMARK    6  A    between atoms: C_19  and  C_20
REMARK    7  A    between atoms: C_27  and  C_28
REMARK                            x       y       z     vdW  Elec       q    Type
REMARK                         _______ _______ _______ _____ _____    ______ ____
ROOT
ATOM      1  N   UNL     1       1.323   8.952  19.551  0.00  0.00    +0.000 N 
ATOM      2  C   UNL     1       1.369   7.666  20.228  0.00  0.00    +0.000 C 
ATOM      3  C   UNL     1       2.243   6.838  19.383  0.00  0.00    +0.000 A 
ATOM      4  C   UNL     1       2.704   7.600  18.324  0.00  0.00    +0.000 A 
ATOM      5  C   UNL     1       3.546   7.061  17.382  0.00  0.00    +0.000 A 
ATOM      6  C   UNL     1       3.959   5.718  17.525  0.00  0.00    +0.000 A 
ATOM      7  C   UNL     1       3.464   4.963  18.620  0.00  0.00    +0.000 A 
ATOM      8  C   UNL     1       2.571   5.503  19.550  0.00  0.00    +0.000 A 
ATOM      9  C   UNL     1       2.108   8.955  18.403  0.00  0.00    +0.000 C 
ATOM     10  O   UNL     1       2.294   9.823  17.570  0.00  0.00    +0.000 OA
ENDROOT
BRANCH   1  15
ATOM     11  C   UNL     1      -1.654  11.169  19.474  0.00  0.00    +0.000 A 
ATOM     12  C   UNL     1      -1.419  11.958  20.607  0.00  0.00    +0.000 A 
ATOM     13  C   UNL     1      -0.314  11.726  21.444  0.00  0.00    +0.000 A 
ATOM     14  C   UNL     1       0.615  10.716  21.153  0.00  0.00    +0.000 A 
ATOM     15  C   UNL     1       0.428   9.931  20.026  0.00  0.00    +0.000 A 
ATOM     16  C   UNL     1      -0.723  10.157  19.255  0.00  0.00    +0.000 A 
BRANCH  11  17
ATOM     17  C   UNL     1      -2.855  11.331  18.422  0.00  0.00    +0.000 C 
ATOM     18  C   UNL     1      -3.587  10.020  18.050  0.00  0.00    +0.000 C 
ATOM     19  O   UNL     1      -3.235  10.128  16.658  0.00  0.00    +0.000 OA
ATOM     20  C   UNL     1      -2.506  11.349  16.897  0.00  0.00    +0.000 C 
BRANCH  17  21
ATOM     21  C   UNL     1      -3.776  12.505  18.831  0.00  0.00    +0.000 C 
BRANCH  21  27
ATOM     22  C   UNL     1      -6.665  11.990  17.619  0.00  0.00    +0.000 C 
ATOM     23  N   UNL     1      -6.273  11.912  18.997  0.00  0.00    +0.000 N 
ATOM     24  C   UNL     1      -7.115  11.639  20.036  0.00  0.00    +0.000 A 
ATOM     25  N   UNL     1      -6.442  11.623  21.159  0.00  0.00    +0.000 NA
ATOM     26  N   UNL     1      -5.136  11.917  20.858  0.00  0.00    +0.000 NA
ATOM     27  C   UNL     1      -5.033  12.091  19.546  0.00  0.00    +0.000 A 
ENDBRANCH  21  27
ENDBRANCH  17  21
ENDBRANCH  11  17
ENDBRANCH   1  15
BRANCH   6  28
ATOM     28  C   UNL     1       4.901   5.072  16.564  0.00  0.00    +0.000 C 
ATOM     29  C   UNL     1       5.726   4.115  17.058  0.00  0.00    +0.000 C 
ATOM     30  C   UNL     1       7.175   4.539  17.256  0.00  0.00    +0.000 C 
ATOM     31  C   UNL     1       7.290   6.050  17.054  0.00  0.00    +0.000 C 
ATOM     32  O   UNL     1       6.823   6.390  15.742  0.00  0.00    +0.000 OA
ATOM     33  C   UNL     1       5.485   5.942  15.465  0.00  0.00    +0.000 C 
ENDBRANCH   6  28
BRANCH   8  34
ATOM     34  C   UNL     1       1.976   4.651  20.641  0.00  0.00    +0.000 C 
ATOM     35  F   UNL     1       0.619   4.694  20.690  0.00  0.00    +0.000 F 
ATOM     36  F   UNL     1       2.304   3.338  20.496  0.00  0.00    +0.000 F 
ATOM     37  F   UNL     1       2.401   5.017  21.879  0.00  0.00    +0.000 F 
ENDBRANCH   8  34
TORSDOF 6
ENDMDL
MODEL 8
REMARK VINA RESULT:     -10.1      1.885      2.937
REMARK  Name = 
REMARK  7 active torsions:
REMARK  status: ('A' for Active; 'I' for Inactive)
REMARK    1  A    between atoms: C_1  and  N_2
REMARK    2  A    between atoms: C_6  and  C_7
REMARK    3  A    between atoms: C_7  and  C_8
REMARK    4  A    between atoms: C_8  and  C_9
REMARK    5  A    between atoms: C_13  and  N_14
REMARK    6  A    between atoms: C_19  and  C_20
REMARK    7  A    between atoms: C_27  and  C_28
REMARK                            x       y       z     vdW  Elec       q    Type
REMARK                         _______ _______ _______ _____ _____    ______ ____
ROOT
ATOM      1  N   UNL     1       1.304   8.299  20.429  0.00  0.00    +0.000 N 
ATOM      2  C   UNL     1       1.394   6.912  20.856  0.00  0.00    +0.000 C 
ATOM      3  C   UNL     1       2.206   6.261  19.817  0.00  0.00    +0.000 A 
ATOM      4  C   UNL     1       2.595   7.208  18.886  0.00  0.00    +0.000 A 
ATOM      5  C   UNL     1       3.368   6.859  17.805  0.00  0.00    +0.000 A 
ATOM      6  C   UNL     1       3.789   5.517  17.674  0.00  0.00    +0.000 A 
ATOM      7  C   UNL     1       3.369   4.570  18.643  0.00  0.00    +0.000 A 
ATOM      8  C   UNL     1       2.543   4.922  19.715  0.00  0.00    +0.000 A 
ATOM      9  C   UNL     1       2.007   8.520  19.250  0.00  0.00    +0.000 C 
ATOM     10  O   UNL     1       2.137   9.526  18.579  0.00  0.00    +0.000 OA
ENDROOT
BRANCH   1  15
ATOM     11  C   UNL     1      -1.011  11.164  20.896  0.00  0.00    +0.000 A 
ATOM     12  C   UNL     1      -1.159  11.154  22.288  0.00  0.00    +0.000 A 
ATOM     13  C   UNL     1      -0.552  10.165  23.082  0.00  0.00    +0.000 A 
ATOM     14  C   UNL     1       0.256   9.172  22.508  0.00  0.00    +0.000 A 
ATOM     15  C   UNL     1       0.445   9.165  21.135  0.00  0.00    +0.000 A 
ATOM     16  C   UNL     1      -0.232  10.133  20.376  0.00  0.00    +0.000 A 
BRANCH  11  17
ATOM     17  C   UNL     1      -1.625  12.236  19.871  0.00  0.00    +0.000 C 
ATOM     18  C   UNL     1      -2.358  13.430  20.528  0.00  0.00    +0.000 C 
ATOM     19  O   UNL     1      -3.613  13.102  19.903  0.00  0.00    +0.000 OA
ATOM     20  C   UNL     1      -3.036  11.950  19.257  0.00  0.00    +0.000 C 
BRANCH  17  21
ATOM     21  C   UNL     1      -0.578  12.618  18.797  0.00  0.00    +0.000 C 
BRANCH  21  27
ATOM     22  C   UNL     1       2.026  13.076  20.554  0.00  0.00    +0.000 C 
ATOM     23  N   UNL     1       1.256  14.070  19.864  0.00  0.00    +0.000 N 
ATOM     24  C   UNL     1       1.507  15.412  19.891  0.00  0.00    +0.000 A 
ATOM     25  N   UNL     1       0.634  16.040  19.144  0.00  0.00    +0.000 NA
ATOM     26  N   UNL     1      -0.224  15.098  18.635  0.00  0.00    +0.000 NA
ATOM     27  C   UNL     1       0.155  13.902  19.071  0.00  0.00    +0.000 A 
ENDBRANCH  21  27
ENDBRANCH  17  21
ENDBRANCH  11  17
ENDBRANCH   1  15
BRANCH   6  28
ATOM     28  C   UNL     1       4.661   5.066  16.549  0.00  0.00    +0.000 C 
ATOM     29  C   UNL     1       5.476   4.008  16.786  0.00  0.00    +0.000 C 
ATOM     30  C   UNL     1       6.947   4.347  16.990  0.00  0.00    +0.000 C 
ATOM     31  C   UNL     1       7.103   5.864  17.104  0.00  0.00    +0.000 C 
ATOM     32  O   UNL     1       6.585   6.484  15.919  0.00  0.00    +0.000 OA
ATOM     33  C   UNL     1       5.221   6.136  15.627  0.00  0.00    +0.000 C 
ENDBRANCH   6  28
BRANCH   8  34
ATOM     34  C   UNL     1       2.024   3.879  20.671  0.00  0.00    +0.000 C 
ATOM     35  F   UNL     1       2.448   2.620  20.388  0.00  0.00    +0.000 F 
ATOM     36  F   UNL     1       2.411   4.126  21.952  0.00  0.00    +0.000 F 
ATOM     37  F   UNL     1       0.666   3.816  20.687  0.00  0.00    +0.000 F 
ENDBRANCH   8  34
TORSDOF 6
ENDMDL
MODEL 9
REMARK VINA RESULT:     -10.1      2.040      3.146
REMARK  Name = 
REMARK  7 active torsions:
REMARK  status: ('A' for Active; 'I' for Inactive)
REMARK    1  A    between atoms: C_1  and  N_2
REMARK    2  A    between atoms: C_6  and  C_7
REMARK    3  A    between atoms: C_7  and  C_8
REMARK    4  A    between atoms: C_8  and  C_9
REMARK    5  A    between atoms: C_13  and  N_14
REMARK    6  A    between atoms: C_19  and  C_20
REMARK    7  A    between atoms: C_27  and  C_28
REMARK                            x       y       z     vdW  Elec       q    Type
REMARK                         _______ _______ _______ _____ _____    ______ ____
ROOT
ATOM      1  N   UNL     1       1.262   8.400  20.386  0.00  0.00    +0.000 N 
ATOM      2  C   UNL     1       1.370   7.024  20.844  0.00  0.00    +0.000 C 
ATOM      3  C   UNL     1       2.196   6.362  19.823  0.00  0.00    +0.000 A 
ATOM      4  C   UNL     1       2.576   7.294  18.873  0.00  0.00    +0.000 A 
ATOM      5  C   UNL     1       3.360   6.932  17.805  0.00  0.00    +0.000 A 
ATOM      6  C   UNL     1       3.800   5.594  17.704  0.00  0.00    +0.000 A 
ATOM      7  C   UNL     1       3.389   4.662  18.693  0.00  0.00    +0.000 A 
ATOM      8  C   UNL     1       2.552   5.026  19.753  0.00  0.00    +0.000 A 
ATOM      9  C   UNL     1       1.968   8.605  19.206  0.00  0.00    +0.000 C 
ATOM     10  O   UNL     1       2.087   9.598  18.513  0.00  0.00    +0.000 OA
ENDROOT
BRANCH   1  15
ATOM     11  C   UNL     1      -1.174  11.177  20.759  0.00  0.00    +0.000 A 
ATOM     12  C   UNL     1      -1.270  11.252  22.154  0.00  0.00    +0.000 A 
ATOM     13  C   UNL     1      -0.586  10.347  22.985  0.00  0.00    +0.000 A 
ATOM     14  C   UNL     1       0.248   9.357  22.444  0.00  0.00    +0.000 A 
ATOM     15  C   UNL     1       0.387   9.270  21.068  0.00  0.00    +0.000 A 
ATOM     16  C   UNL     1      -0.364  10.152  20.277  0.00  0.00    +0.000 A 
BRANCH  11  17
ATOM     17  C   UNL     1      -1.878  12.149  19.694  0.00  0.00    +0.000 C 
ATOM     18  C   UNL     1      -3.256  12.708  20.121  0.00  0.00    +0.000 C 
ATOM     19  O   UNL     1      -3.936  12.090  19.012  0.00  0.00    +0.000 OA
ATOM     20  C   UNL     1      -2.709  11.502  18.536  0.00  0.00    +0.000 C 
BRANCH  17  21
ATOM     21  C   UNL     1      -0.870  13.205  19.179  0.00  0.00    +0.000 C 
BRANCH  21  27
ATOM     22  C   UNL     1       2.225  13.033  19.863  0.00  0.00    +0.000 C 
ATOM     23  N   UNL     1       1.222  13.792  20.553  0.00  0.00    +0.000 N 
ATOM     24  C   UNL     1       1.443  14.547  21.669  0.00  0.00    +0.000 A 
ATOM     25  N   UNL     1       0.328  15.127  22.039  0.00  0.00    +0.000 NA
ATOM     26  N   UNL     1      -0.651  14.726  21.165  0.00  0.00    +0.000 NA
ATOM     27  C   UNL     1      -0.108  13.918  20.262  0.00  0.00    +0.000 A 
ENDBRANCH  21  27
ENDBRANCH  17  21
ENDBRANCH  11  17
ENDBRANCH   1  15
BRANCH   6  28
ATOM     28  C   UNL     1       4.685   5.131  16.595  0.00  0.00    +0.000 C 
ATOM     29  C   UNL     1       5.482   4.062  16.845  0.00  0.00    +0.000 C 
ATOM     30  C   UNL     1       6.953   4.383  17.073  0.00  0.00    +0.000 C 
ATOM     31  C   UNL     1       7.127   5.898  17.188  0.00  0.00    +0.000 C 
ATOM     32  O   UNL     1       6.636   6.523  15.994  0.00  0.00    +0.000 OA
ATOM     33  C   UNL     1       5.272   6.192  15.681  0.00  0.00    +0.000 C 
ENDBRANCH   6  28
BRANCH   8  34
ATOM     34  C   UNL     1       2.043   3.997  20.729  0.00  0.00    +0.000 C 
ATOM     35  F   UNL     1       2.435   4.220  22.011  0.00  0.00    +0.000 F 
ATOM     36  F   UNL     1       0.683   3.951  20.755  0.00  0.00    +0.000 F 
ATOM     37  F   UNL     1       2.463   2.740  20.428  0.00  0.00    +0.000 F 
ENDBRANCH   8  34
TORSDOF 6
ENDMDL
