MODEL 1
REMARK VINA RESULT:      -8.4      0.000      0.000
REMARK  Name = 
REMARK  7 active torsions:
REMARK  status: ('A' for Active; 'I' for Inactive)
REMARK    1  A    between atoms: C_1  and  C_2
REMARK    2  A    between atoms: C_2  and  C_3
REMARK    3  A    between atoms: C_2  and  C_10
REMARK    4  A    between atoms: C_3  and  C_4
REMARK    5  A    between atoms: N_8  and  C_9
REMARK    6  A    between atoms: C_14  and  N_15
REMARK    7  A    between atoms: C_16  and  C_18
REMARK                            x       y       z     vdW  Elec       q    Type
REMARK                         _______ _______ _______ _____ _____    ______ ____
ROOT
ATOM      1  C   UNL     1       4.350   4.699  16.956  0.00  0.00    +0.000 A 
ATOM      2  C   UNL     1       3.746   3.460  17.210  0.00  0.00    +0.000 A 
ATOM      3  C   UNL     1       2.561   3.379  17.936  0.00  0.00    +0.000 A 
ATOM      4  C   UNL     1       1.974   4.533  18.450  0.00  0.00    +0.000 A 
ATOM      5  C   UNL     1       2.553   5.786  18.238  0.00  0.00    +0.000 A 
ATOM      6  C   UNL     1       3.717   5.862  17.456  0.00  0.00    +0.000 A 
ENDROOT
BRANCH   5   7
ATOM      7  N   UNL     1       2.014   6.977  18.784  0.00  0.00    +0.000 N 
ATOM      8  C   UNL     1       2.112   8.235  18.211  0.00  0.00    +0.000 C 
ATOM      9  O   UNL     1       2.636   8.483  17.129  0.00  0.00    +0.000 OA
ATOM     10  H   UNL     1       1.431   6.904  19.613  0.00  0.00    +0.000 HD
BRANCH   8  11
ATOM     11  C   UNL     1       1.503   9.323  18.954  0.00  0.00    +0.000 A 
ATOM     12  C   UNL     1       1.404  10.656  18.497  0.00  0.00    +0.000 A 
ATOM     13  N   UNL     1       0.817  11.474  19.367  0.00  0.00    +0.000 NA
ATOM     14  N   UNL     1       0.539  10.683  20.426  0.00  0.00    +0.000 N 
ATOM     15  C   UNL     1      -0.040  11.071  21.628  0.00  0.00    +0.000 A 
ATOM     16  C   UNL     1      -0.246  10.172  22.600  0.00  0.00    +0.000 A 
ATOM     17  C   UNL     1       0.172   8.779  22.268  0.00  0.00    +0.000 A 
ATOM     18  N   UNL     1       0.712   8.376  21.154  0.00  0.00    +0.000 NA
ATOM     19  C   UNL     1       0.920   9.349  20.208  0.00  0.00    +0.000 A 
ENDBRANCH   8  11
ENDBRANCH   5   7
BRANCH   1  21
ATOM     20  C   UNL     1       5.839   3.756  15.076  0.00  0.00    +0.000 C 
ATOM     21  C   UNL     1       5.665   4.823  16.175  0.00  0.00    +0.000 C 
BRANCH  21  22
ATOM     22  C   UNL     1       6.866   4.806  17.154  0.00  0.00    +0.000 C 
BRANCH  22  23
ATOM     23  C   UNL     1       7.358   6.172  17.501  0.00  0.00    +0.000 A 
ATOM     24  N   UNL     1       7.323   7.236  16.724  0.00  0.00    +0.000 NA
ATOM     25  N   UNL     1       7.919   8.278  17.395  0.00  0.00    +0.000 NA
ATOM     26  C   UNL     1       8.293   7.833  18.569  0.00  0.00    +0.000 A 
ATOM     27  N   UNL     1       7.944   6.523  18.690  0.00  0.00    +0.000 N 
ATOM     28  C   UNL     1       8.151   5.694  19.845  0.00  0.00    +0.000 C 
ENDBRANCH  22  23
ENDBRANCH  21  22
ENDBRANCH   1  21
TORSDOF 5
ENDMDL
MODEL 2
REMARK VINA RESULT:      -8.0      0.984      1.025
REMARK  Name = 
REMARK  7 active torsions:
REMARK  status: ('A' for Active; 'I' for Inactive)
REMARK    1  A    between atoms: C_1  and  C_2
REMARK    2  A    between atoms: C_2  and  C_3
REMARK    3  A    between atoms: C_2  and  C_10
REMARK    4  A    between atoms: C_3  and  C_4
REMARK    5  A    between atoms: N_8  and  C_9
REMARK    6  A    between atoms: C_14  and  N_15
REMARK    7  A    between atoms: C_16  and  C_18
REMARK                            x       y       z     vdW  Elec       q    Type
REMARK                         _______ _______ _______ _____ _____    ______ ____
ROOT
ATOM      1  C   UNL     1       4.444   4.786  16.910  0.00  0.00    +0.000 A 
ATOM      2  C   UNL     1       3.821   3.583  17.275  0.00  0.00    +0.000 A 
ATOM      3  C   UNL     1       2.625   3.587  17.986  0.00  0.00    +0.000 A 
ATOM      4  C   UNL     1       2.044   4.792  18.375  0.00  0.00    +0.000 A 
ATOM      5  C   UNL     1       2.640   6.011  18.050  0.00  0.00    +0.000 A 
ATOM      6  C   UNL     1       3.817   5.999  17.283  0.00  0.00    +0.000 A 
ENDROOT
BRANCH   5   7
ATOM      7  N   UNL     1       2.107   7.256  18.467  0.00  0.00    +0.000 N 
ATOM      8  C   UNL     1       1.804   7.598  19.775  0.00  0.00    +0.000 C 
ATOM      9  O   UNL     1       2.001   6.889  20.757  0.00  0.00    +0.000 OA
ATOM     10  H   UNL     1       2.019   7.997  17.776  0.00  0.00    +0.000 HD
BRANCH   8  11
ATOM     11  C   UNL     1       1.246   8.923  19.975  0.00  0.00    +0.000 A 
ATOM     12  C   UNL     1       1.353   9.991  19.055  0.00  0.00    +0.000 A 
ATOM     13  N   UNL     1       0.772  11.112  19.472  0.00  0.00    +0.000 NA
ATOM     14  N   UNL     1       0.288  10.797  20.693  0.00  0.00    +0.000 N 
ATOM     15  C   UNL     1      -0.373  11.645  21.573  0.00  0.00    +0.000 A 
ATOM     16  C   UNL     1      -0.788  11.193  22.764  0.00  0.00    +0.000 A 
ATOM     17  C   UNL     1      -0.500   9.754  23.026  0.00  0.00    +0.000 A 
ATOM     18  N   UNL     1       0.110   8.926  22.226  0.00  0.00    +0.000 NA
ATOM     19  C   UNL     1       0.533   9.456  21.033  0.00  0.00    +0.000 A 
ENDBRANCH   8  11
ENDBRANCH   5   7
BRANCH   1  21
ATOM     20  C   UNL     1       5.921   3.685  15.108  0.00  0.00    +0.000 C 
ATOM     21  C   UNL     1       5.772   4.819  16.142  0.00  0.00    +0.000 C 
BRANCH  21  22
ATOM     22  C   UNL     1       6.960   4.815  17.138  0.00  0.00    +0.000 C 
BRANCH  22  23
ATOM     23  C   UNL     1       7.415   6.188  17.510  0.00  0.00    +0.000 A 
ATOM     24  N   UNL     1       7.381   7.258  16.741  0.00  0.00    +0.000 NA
ATOM     25  N   UNL     1       7.938   8.305  17.437  0.00  0.00    +0.000 NA
ATOM     26  C   UNL     1       8.289   7.856  18.617  0.00  0.00    +0.000 A 
ATOM     27  N   UNL     1       7.961   6.539  18.717  0.00  0.00    +0.000 N 
ATOM     28  C   UNL     1       8.153   5.704  19.870  0.00  0.00    +0.000 C 
ENDBRANCH  22  23
ENDBRANCH  21  22
ENDBRANCH   1  21
TORSDOF 5
ENDMDL
MODEL 3
REMARK VINA RESULT:      -8.0      0.841      1.645
REMARK  Name = 
REMARK  7 active torsions:
REMARK  status: ('A' for Active; 'I' for Inactive)
REMARK    1  A    between atoms: C_1  and  C_2
REMARK    2  A    between atoms: C_2  and  C_3
REMARK    3  A    between atoms: C_2  and  C_10
REMARK    4  A    between atoms: C_3  and  C_4
REMARK    5  A    between atoms: N_8  and  C_9
REMARK    6  A    between atoms: C_14  and  N_15
REMARK    7  A    between atoms: C_16  and  C_18
REMARK                            x       y       z     vdW  Elec       q    Type
REMARK                         _______ _______ _______ _____ _____    ______ ____
ROOT
ATOM      1  C   UNL     1       4.257   4.736  16.927  0.00  0.00    +0.000 A 
ATOM      2  C   UNL     1       3.557   3.521  16.911  0.00  0.00    +0.000 A 
ATOM      3  C   UNL     1       2.386   3.363  17.647  0.00  0.00    +0.000 A 
ATOM      4  C   UNL     1       1.909   4.404  18.439  0.00  0.00    +0.000 A 
ATOM      5  C   UNL     1       2.585   5.624  18.500  0.00  0.00    +0.000 A 
ATOM      6  C   UNL     1       3.734   5.794  17.710  0.00  0.00    +0.000 A 
ENDROOT
BRANCH   5   7
ATOM      7  N   UNL     1       2.160   6.691  19.329  0.00  0.00    +0.000 N 
ATOM      8  C   UNL     1       1.818   7.960  18.888  0.00  0.00    +0.000 C 
ATOM      9  O   UNL     1       1.789   8.318  17.714  0.00  0.00    +0.000 OA
ATOM     10  H   UNL     1       2.004   6.500  20.315  0.00  0.00    +0.000 HD
BRANCH   8  11
ATOM     11  C   UNL     1       1.429   8.909  19.915  0.00  0.00    +0.000 A 
ATOM     12  C   UNL     1       1.532   8.679  21.306  0.00  0.00    +0.000 A 
ATOM     13  N   UNL     1       1.096   9.695  22.046  0.00  0.00    +0.000 NA
ATOM     14  N   UNL     1       0.679  10.606  21.140  0.00  0.00    +0.000 N 
ATOM     15  C   UNL     1       0.091  11.837  21.405  0.00  0.00    +0.000 A 
ATOM     16  C   UNL     1      -0.285  12.637  20.397  0.00  0.00    +0.000 A 
ATOM     17  C   UNL     1      -0.005  12.104  19.033  0.00  0.00    +0.000 A 
ATOM     18  N   UNL     1       0.547  10.961  18.744  0.00  0.00    +0.000 NA
ATOM     19  C   UNL     1       0.888  10.177  19.819  0.00  0.00    +0.000 A 
ENDBRANCH   8  11
ENDBRANCH   5   7
BRANCH   1  21
ATOM     20  C   UNL     1       5.731   3.968  14.958  0.00  0.00    +0.000 C 
ATOM     21  C   UNL     1       5.560   4.939  16.143  0.00  0.00    +0.000 C 
BRANCH  21  22
ATOM     22  C   UNL     1       6.774   4.856  17.102  0.00  0.00    +0.000 C 
BRANCH  22  23
ATOM     23  C   UNL     1       7.309   6.196  17.487  0.00  0.00    +0.000 A 
ATOM     24  N   UNL     1       7.304   7.282  16.741  0.00  0.00    +0.000 NA
ATOM     25  N   UNL     1       7.934   8.286  17.440  0.00  0.00    +0.000 NA
ATOM     26  C   UNL     1       8.299   7.795  18.599  0.00  0.00    +0.000 A 
ATOM     27  N   UNL     1       7.909   6.494  18.683  0.00  0.00    +0.000 N 
ATOM     28  C   UNL     1       8.095   5.625  19.812  0.00  0.00    +0.000 C 
ENDBRANCH  22  23
ENDBRANCH  21  22
ENDBRANCH   1  21
TORSDOF 5
ENDMDL
MODEL 4
REMARK VINA RESULT:      -8.0      1.530      2.334
REMARK  Name = 
REMARK  7 active torsions:
REMARK  status: ('A' for Active; 'I' for Inactive)
REMARK    1  A    between atoms: C_1  and  C_2
REMARK    2  A    between atoms: C_2  and  C_3
REMARK    3  A    between atoms: C_2  and  C_10
REMARK    4  A    between atoms: C_3  and  C_4
REMARK    5  A    between atoms: N_8  and  C_9
REMARK    6  A    between atoms: C_14  and  N_15
REMARK    7  A    between atoms: C_16  and  C_18
REMARK                            x       y       z     vdW  Elec       q    Type
REMARK                         _______ _______ _______ _____ _____    ______ ____
ROOT
ATOM      1  C   UNL     1       4.722   4.973  16.650  0.00  0.00    +0.000 A 
ATOM      2  C   UNL     1       4.339   3.683  17.048  0.00  0.00    +0.000 A 
ATOM      3  C   UNL     1       3.383   3.499  18.044  0.00  0.00    +0.000 A 
ATOM      4  C   UNL     1       2.815   4.597  18.683  0.00  0.00    +0.000 A 
ATOM      5  C   UNL     1       3.182   5.898  18.332  0.00  0.00    +0.000 A 
ATOM      6  C   UNL     1       4.105   6.075  17.288  0.00  0.00    +0.000 A 
ENDROOT
BRANCH   5   7
ATOM      7  N   UNL     1       2.664   7.040  18.990  0.00  0.00    +0.000 N 
ATOM      8  C   UNL     1       1.933   7.023  20.168  0.00  0.00    +0.000 C 
ATOM      9  O   UNL     1       1.676   6.020  20.827  0.00  0.00    +0.000 OA
ATOM     10  H   UNL     1       2.917   7.957  18.631  0.00  0.00    +0.000 HD
BRANCH   8  11
ATOM     11  C   UNL     1       1.481   8.312  20.657  0.00  0.00    +0.000 A 
ATOM     12  C   UNL     1       1.453   8.694  22.017  0.00  0.00    +0.000 A 
ATOM     13  N   UNL     1       0.982   9.923  22.214  0.00  0.00    +0.000 NA
ATOM     14  N   UNL     1       0.672  10.359  20.974  0.00  0.00    +0.000 N 
ATOM     15  C   UNL     1       0.098  11.579  20.638  0.00  0.00    +0.000 A 
ATOM     16  C   UNL     1      -0.164  11.872  19.357  0.00  0.00    +0.000 A 
ATOM     17  C   UNL     1       0.221  10.816  18.378  0.00  0.00    +0.000 A 
ATOM     18  N   UNL     1       0.764   9.664  18.652  0.00  0.00    +0.000 NA
ATOM     19  C   UNL     1       0.986   9.414  19.984  0.00  0.00    +0.000 A 
ENDBRANCH   8  11
ENDBRANCH   5   7
BRANCH   1  21
ATOM     20  C   UNL     1       5.479   4.515  14.230  0.00  0.00    +0.000 C 
ATOM     21  C   UNL     1       5.785   5.213  15.570  0.00  0.00    +0.000 C 
BRANCH  21  22
ATOM     22  C   UNL     1       7.181   4.800  16.100  0.00  0.00    +0.000 C 
BRANCH  22  23
ATOM     23  C   UNL     1       7.428   5.242  17.505  0.00  0.00    +0.000 A 
ATOM     24  N   UNL     1       7.506   4.465  18.566  0.00  0.00    +0.000 NA
ATOM     25  N   UNL     1       7.690   5.263  19.671  0.00  0.00    +0.000 NA
ATOM     26  C   UNL     1       7.733   6.507  19.260  0.00  0.00    +0.000 A 
ATOM     27  N   UNL     1       7.595   6.542  17.906  0.00  0.00    +0.000 N 
ATOM     28  C   UNL     1       7.626   7.718  17.082  0.00  0.00    +0.000 C 
ENDBRANCH  22  23
ENDBRANCH  21  22
ENDBRANCH   1  21
TORSDOF 5
ENDMDL
MODEL 5
REMARK VINA RESULT:      -8.0      2.083      3.264
REMARK  Name = 
REMARK  7 active torsions:
REMARK  status: ('A' for Active; 'I' for Inactive)
REMARK    1  A    between atoms: C_1  and  C_2
REMARK    2  A    between atoms: C_2  and  C_3
REMARK    3  A    between atoms: C_2  and  C_10
REMARK    4  A    between atoms: C_3  and  C_4
REMARK    5  A    between atoms: N_8  and  C_9
REMARK    6  A    between atoms: C_14  and  N_15
REMARK    7  A    between atoms: C_16  and  C_18
REMARK                            x       y       z     vdW  Elec       q    Type
REMARK                         _______ _______ _______ _____ _____    ______ ____
ROOT
ATOM      1  C   UNL     1       4.395   5.213  17.550  0.00  0.00    +0.000 A 
ATOM      2  C   UNL     1       4.079   3.870  17.799  0.00  0.00    +0.000 A 
ATOM      3  C   UNL     1       3.138   3.527  18.767  0.00  0.00    +0.000 A 
ATOM      4  C   UNL     1       2.519   4.517  19.525  0.00  0.00    +0.000 A 
ATOM      5  C   UNL     1       2.819   5.865  19.323  0.00  0.00    +0.000 A 
ATOM      6  C   UNL     1       3.727   6.205  18.307  0.00  0.00    +0.000 A 
ENDROOT
BRANCH   5   7
ATOM      7  N   UNL     1       2.248   6.899  20.106  0.00  0.00    +0.000 N 
ATOM      8  C   UNL     1       1.753   8.096  19.612  0.00  0.00    +0.000 C 
ATOM      9  O   UNL     1       1.698   8.404  18.426  0.00  0.00    +0.000 OA
ATOM     10  H   UNL     1       2.101   6.726  21.097  0.00  0.00    +0.000 HD
BRANCH   8  11
ATOM     11  C   UNL     1       1.230   9.024  20.598  0.00  0.00    +0.000 A 
ATOM     12  C   UNL     1       1.303   8.842  21.997  0.00  0.00    +0.000 A 
ATOM     13  N   UNL     1       0.737   9.825  22.691  0.00  0.00    +0.000 NA
ATOM     14  N   UNL     1       0.262  10.664  21.746  0.00  0.00    +0.000 N 
ATOM     15  C   UNL     1      -0.460  11.833  21.954  0.00  0.00    +0.000 A 
ATOM     16  C   UNL     1      -0.878  12.564  20.911  0.00  0.00    +0.000 A 
ATOM     17  C   UNL     1      -0.493  12.030  19.574  0.00  0.00    +0.000 A 
ATOM     18  N   UNL     1       0.185  10.943  19.338  0.00  0.00    +0.000 NA
ATOM     19  C   UNL     1       0.564  10.226  20.446  0.00  0.00    +0.000 A 
ENDBRANCH   8  11
ENDBRANCH   5   7
BRANCH   1  21
ATOM     20  C   UNL     1       5.013   6.830  15.641  0.00  0.00    +0.000 C 
ATOM     21  C   UNL     1       5.439   5.627  16.505  0.00  0.00    +0.000 C 
BRANCH  21  22
ATOM     22  C   UNL     1       5.807   4.413  15.614  0.00  0.00    +0.000 C 
BRANCH  22  23
ATOM     23  C   UNL     1       6.748   4.762  14.509  0.00  0.00    +0.000 A 
ATOM     24  N   UNL     1       7.807   5.540  14.601  0.00  0.00    +0.000 NA
ATOM     25  N   UNL     1       8.371   5.648  13.351  0.00  0.00    +0.000 NA
ATOM     26  C   UNL     1       7.653   4.925  12.527  0.00  0.00    +0.000 A 
ATOM     27  N   UNL     1       6.636   4.334  13.211  0.00  0.00    +0.000 N 
ATOM     28  C   UNL     1       5.656   3.437  12.664  0.00  0.00    +0.000 C 
ENDBRANCH  22  23
ENDBRANCH  21  22
ENDBRANCH   1  21
TORSDOF 5
ENDMDL
MODEL 6
REMARK VINA RESULT:      -8.0      1.645      2.761
REMARK  Name = 
REMARK  7 active torsions:
REMARK  status: ('A' for Active; 'I' for Inactive)
REMARK    1  A    between atoms: C_1  and  C_2
REMARK    2  A    between atoms: C_2  and  C_3
REMARK    3  A    between atoms: C_2  and  C_10
REMARK    4  A    between atoms: C_3  and  C_4
REMARK    5  A    between atoms: N_8  and  C_9
REMARK    6  A    between atoms: C_14  and  N_15
REMARK    7  A    between atoms: C_16  and  C_18
REMARK                            x       y       z     vdW  Elec       q    Type
REMARK                         _______ _______ _______ _____ _____    ______ ____
ROOT
ATOM      1  C   UNL     1       4.323   4.803  17.340  0.00  0.00    +0.000 A 
ATOM      2  C   UNL     1       3.572   3.620  17.397  0.00  0.00    +0.000 A 
ATOM      3  C   UNL     1       2.289   3.615  17.937  0.00  0.00    +0.000 A 
ATOM      4  C   UNL     1       1.743   4.785  18.458  0.00  0.00    +0.000 A 
ATOM      5  C   UNL     1       2.463   5.981  18.439  0.00  0.00    +0.000 A 
ATOM      6  C   UNL     1       3.734   5.988  17.842  0.00  0.00    +0.000 A 
ENDROOT
BRANCH   5   7
ATOM      7  N   UNL     1       1.964   7.181  19.003  0.00  0.00    +0.000 N 
ATOM      8  C   UNL     1       1.947   8.415  18.372  0.00  0.00    +0.000 C 
ATOM      9  O   UNL     1       2.318   8.627  17.222  0.00  0.00    +0.000 OA
ATOM     10  H   UNL     1       1.496   7.130  19.904  0.00  0.00    +0.000 HD
BRANCH   8  11
ATOM     11  C   UNL     1       1.407   9.518  19.144  0.00  0.00    +0.000 A 
ATOM     12  C   UNL     1       1.512  10.881  18.786  0.00  0.00    +0.000 A 
ATOM     13  N   UNL     1       0.949  11.706  19.665  0.00  0.00    +0.000 NA
ATOM     14  N   UNL     1       0.480  10.887  20.631  0.00  0.00    +0.000 N 
ATOM     15  C   UNL     1      -0.159  11.263  21.807  0.00  0.00    +0.000 A 
ATOM     16  C   UNL     1      -0.562  10.334  22.684  0.00  0.00    +0.000 A 
ATOM     17  C   UNL     1      -0.285   8.926  22.280  0.00  0.00    +0.000 A 
ATOM     18  N   UNL     1       0.305   8.533  21.187  0.00  0.00    +0.000 NA
ATOM     19  C   UNL     1       0.716   9.533  20.341  0.00  0.00    +0.000 A 
ENDBRANCH   8  11
ENDBRANCH   5   7
BRANCH   1  21
ATOM     20  C   UNL     1       6.274   6.266  16.506  0.00  0.00    +0.000 C 
ATOM     21  C   UNL     1       5.746   4.841  16.769  0.00  0.00    +0.000 C 
BRANCH  21  22
ATOM     22  C   UNL     1       5.825   3.979  15.483  0.00  0.00    +0.000 C 
BRANCH  22  23
ATOM     23  C   UNL     1       6.758   4.538  14.460  0.00  0.00    +0.000 A 
ATOM     24  N   UNL     1       7.731   5.400  14.678  0.00  0.00    +0.000 NA
ATOM     25  N   UNL     1       8.318   5.700  13.471  0.00  0.00    +0.000 NA
ATOM     26  C   UNL     1       7.700   5.008  12.545  0.00  0.00    +0.000 A 
ATOM     27  N   UNL     1       6.727   4.250  13.120  0.00  0.00    +0.000 N 
ATOM     28  C   UNL     1       5.858   3.330  12.440  0.00  0.00    +0.000 C 
ENDBRANCH  22  23
ENDBRANCH  21  22
ENDBRANCH   1  21
TORSDOF 5
ENDMDL
MODEL 7
REMARK VINA RESULT:      -7.9      1.645      2.667
REMARK  Name = 
REMARK  7 active torsions:
REMARK  status: ('A' for Active; 'I' for Inactive)
REMARK    1  A    between atoms: C_1  and  C_2
REMARK    2  A    between atoms: C_2  and  C_3
REMARK    3  A    between atoms: C_2  and  C_10
REMARK    4  A    between atoms: C_3  and  C_4
REMARK    5  A    between atoms: N_8  and  C_9
REMARK    6  A    between atoms: C_14  and  N_15
REMARK    7  A    between atoms: C_16  and  C_18
REMARK                            x       y       z     vdW  Elec       q    Type
REMARK                         _______ _______ _______ _____ _____    ______ ____
ROOT
ATOM      1  C   UNL     1       5.232   4.982  18.976  0.00  0.00    +0.000 A 
ATOM      2  C   UNL     1       4.754   3.730  19.391  0.00  0.00    +0.000 A 
ATOM      3  C   UNL     1       3.493   3.604  19.967  0.00  0.00    +0.000 A 
ATOM      4  C   UNL     1       2.698   4.729  20.169  0.00  0.00    +0.000 A 
ATOM      5  C   UNL     1       3.142   5.996  19.789  0.00  0.00    +0.000 A 
ATOM      6  C   UNL     1       4.391   6.107  19.157  0.00  0.00    +0.000 A 
ENDROOT
BRANCH   5   7
ATOM      7  N   UNL     1       2.385   7.171  20.020  0.00  0.00    +0.000 N 
ATOM      8  C   UNL     1       1.945   8.046  19.039  0.00  0.00    +0.000 C 
ATOM      9  O   UNL     1       2.110   7.897  17.832  0.00  0.00    +0.000 OA
ATOM     10  H   UNL     1       2.055   7.351  20.965  0.00  0.00    +0.000 HD
BRANCH   8  11
ATOM     11  C   UNL     1       1.200   9.202  19.503  0.00  0.00    +0.000 A 
ATOM     12  C   UNL     1       0.982  10.377  18.749  0.00  0.00    +0.000 A 
ATOM     13  N   UNL     1       0.281  11.303  19.399  0.00  0.00    +0.000 NA
ATOM     14  N   UNL     1       0.046  10.748  20.608  0.00  0.00    +0.000 N 
ATOM     15  C   UNL     1      -0.616  11.334  21.681  0.00  0.00    +0.000 A 
ATOM     16  C   UNL     1      -0.765  10.663  22.831  0.00  0.00    +0.000 A 
ATOM     17  C   UNL     1      -0.194   9.286  22.835  0.00  0.00    +0.000 A 
ATOM     18  N   UNL     1       0.427   8.700  21.851  0.00  0.00    +0.000 NA
ATOM     19  C   UNL     1       0.569   9.449  20.708  0.00  0.00    +0.000 A 
ENDBRANCH   8  11
ENDBRANCH   5   7
BRANCH   1  21
ATOM     20  C   UNL     1       7.694   5.641  19.354  0.00  0.00    +0.000 C 
ATOM     21  C   UNL     1       6.623   5.161  18.355  0.00  0.00    +0.000 C 
BRANCH  21  22
ATOM     22  C   UNL     1       6.540   6.114  17.136  0.00  0.00    +0.000 C 
BRANCH  22  23
ATOM     23  C   UNL     1       6.649   5.403  15.828  0.00  0.00    +0.000 A 
ATOM     24  N   UNL     1       7.668   5.454  14.993  0.00  0.00    +0.000 NA
ATOM     25  N   UNL     1       7.354   4.702  13.885  0.00  0.00    +0.000 NA
ATOM     26  C   UNL     1       6.157   4.200  14.071  0.00  0.00    +0.000 A 
ATOM     27  N   UNL     1       5.684   4.594  15.284  0.00  0.00    +0.000 N 
ATOM     28  C   UNL     1       4.424   4.221  15.864  0.00  0.00    +0.000 C 
ENDBRANCH  22  23
ENDBRANCH  21  22
ENDBRANCH   1  21
TORSDOF 5
ENDMDL
MODEL 8
REMARK VINA RESULT:      -7.9      0.788      1.326
REMARK  Name = 
REMARK  7 active torsions:
REMARK  status: ('A' for Active; 'I' for Inactive)
REMARK    1  A    between atoms: C_1  and  C_2
REMARK    2  A    between atoms: C_2  and  C_3
REMARK    3  A    between atoms: C_2  and  C_10
REMARK    4  A    between atoms: C_3  and  C_4
REMARK    5  A    between atoms: N_8  and  C_9
REMARK    6  A    between atoms: C_14  and  N_15
REMARK    7  A    between atoms: C_16  and  C_18
REMARK                            x       y       z     vdW  Elec       q    Type
REMARK                         _______ _______ _______ _____ _____    ______ ____
ROOT
ATOM      1  C   UNL     1       4.605   5.006  16.756  0.00  0.00    +0.000 A 
ATOM      2  C   UNL     1       4.224   3.721  17.171  0.00  0.00    +0.000 A 
ATOM      3  C   UNL     1       3.203   3.546  18.101  0.00  0.00    +0.000 A 
ATOM      4  C   UNL     1       2.565   4.650  18.658  0.00  0.00    +0.000 A 
ATOM      5  C   UNL     1       2.926   5.947  18.289  0.00  0.00    +0.000 A 
ATOM      6  C   UNL     1       3.917   6.113  17.309  0.00  0.00    +0.000 A 
ENDROOT
BRANCH   5   7
ATOM      7  N   UNL     1       2.335   7.098  18.868  0.00  0.00    +0.000 N 
ATOM      8  C   UNL     1       2.142   8.309  18.222  0.00  0.00    +0.000 C 
ATOM      9  O   UNL     1       2.411   8.536  17.046  0.00  0.00    +0.000 OA
ATOM     10  H   UNL     1       1.936   7.016  19.799  0.00  0.00    +0.000 HD
BRANCH   8  11
ATOM     11  C   UNL     1       1.535   9.363  19.013  0.00  0.00    +0.000 A 
ATOM     12  C   UNL     1       1.433  10.715  18.614  0.00  0.00    +0.000 A 
ATOM     13  N   UNL     1       0.848  11.494  19.520  0.00  0.00    +0.000 NA
ATOM     14  N   UNL     1       0.575  10.658  20.545  0.00  0.00    +0.000 N 
ATOM     15  C   UNL     1      -0.000  10.994  21.765  0.00  0.00    +0.000 A 
ATOM     16  C   UNL     1      -0.202  10.054  22.698  0.00  0.00    +0.000 A 
ATOM     17  C   UNL     1       0.215   8.677  22.305  0.00  0.00    +0.000 A 
ATOM     18  N   UNL     1       0.752   8.322  21.173  0.00  0.00    +0.000 NA
ATOM     19  C   UNL     1       0.956   9.335  20.268  0.00  0.00    +0.000 A 
ENDBRANCH   8  11
ENDBRANCH   5   7
BRANCH   1  21
ATOM     20  C   UNL     1       5.481   4.600  14.367  0.00  0.00    +0.000 C 
ATOM     21  C   UNL     1       5.738   5.237  15.748  0.00  0.00    +0.000 C 
BRANCH  21  22
ATOM     22  C   UNL     1       7.083   4.745  16.339  0.00  0.00    +0.000 C 
BRANCH  22  23
ATOM     23  C   UNL     1       7.307   5.203  17.743  0.00  0.00    +0.000 A 
ATOM     24  N   UNL     1       7.288   4.449  18.823  0.00  0.00    +0.000 NA
ATOM     25  N   UNL     1       7.487   5.260  19.916  0.00  0.00    +0.000 NA
ATOM     26  C   UNL     1       7.634   6.487  19.480  0.00  0.00    +0.000 A 
ATOM     27  N   UNL     1       7.550   6.498  18.122  0.00  0.00    +0.000 N 
ATOM     28  C   UNL     1       7.697   7.648  17.273  0.00  0.00    +0.000 C 
ENDBRANCH  22  23
ENDBRANCH  21  22
ENDBRANCH   1  21
TORSDOF 5
ENDMDL
MODEL 9
REMARK VINA RESULT:      -7.9      1.955      2.836
REMARK  Name = 
REMARK  7 active torsions:
REMARK  status: ('A' for Active; 'I' for Inactive)
REMARK    1  A    between atoms: C_1  and  C_2
REMARK    2  A    between atoms: C_2  and  C_3
REMARK    3  A    between atoms: C_2  and  C_10
REMARK    4  A    between atoms: C_3  and  C_4
REMARK    5  A    between atoms: N_8  and  C_9
REMARK    6  A    between atoms: C_14  and  N_15
REMARK    7  A    between atoms: C_16  and  C_18
REMARK                            x       y       z     vdW  Elec       q    Type
REMARK                         _______ _______ _______ _____ _____    ______ ____
ROOT
ATOM      1  C   UNL     1       2.869   3.720  18.861  0.00  0.00    +0.000 A 
ATOM      2  C   UNL     1       3.019   2.671  19.781  0.00  0.00    +0.000 A 
ATOM      3  C   UNL     1       2.606   2.817  21.102  0.00  0.00    +0.000 A 
ATOM      4  C   UNL     1       2.064   4.023  21.538  0.00  0.00    +0.000 A 
ATOM      5  C   UNL     1       1.915   5.099  20.662  0.00  0.00    +0.000 A 
ATOM      6  C   UNL     1       2.282   4.925  19.318  0.00  0.00    +0.000 A 
ENDROOT
BRANCH   5   7
ATOM      7  N   UNL     1       1.414   6.358  21.077  0.00  0.00    +0.000 N 
ATOM      8  C   UNL     1       1.689   7.571  20.465  0.00  0.00    +0.000 C 
ATOM      9  O   UNL     1       2.365   7.715  19.451  0.00  0.00    +0.000 OA
ATOM     10  H   UNL     1       0.727   6.377  21.826  0.00  0.00    +0.000 HD
BRANCH   8  11
ATOM     11  C   UNL     1       1.085   8.742  21.071  0.00  0.00    +0.000 A 
ATOM     12  C   UNL     1       1.222   9.110  22.429  0.00  0.00    +0.000 A 
ATOM     13  N   UNL     1       0.559  10.218  22.749  0.00  0.00    +0.000 NA
ATOM     14  N   UNL     1      -0.044  10.584  21.597  0.00  0.00    +0.000 N 
ATOM     15  C   UNL     1      -0.899  11.664  21.410  0.00  0.00    +0.000 A 
ATOM     16  C   UNL     1      -1.436  11.899  20.205  0.00  0.00    +0.000 A 
ATOM     17  C   UNL     1      -1.028  10.943  19.136  0.00  0.00    +0.000 A 
ATOM     18  N   UNL     1      -0.228   9.924  19.271  0.00  0.00    +0.000 NA
ATOM     19  C   UNL     1       0.270   9.722  20.534  0.00  0.00    +0.000 A 
ENDBRANCH   8  11
ENDBRANCH   5   7
BRANCH   1  21
ATOM     20  C   UNL     1       4.195   2.355  17.123  0.00  0.00    +0.000 C 
ATOM     21  C   UNL     1       3.330   3.600  17.403  0.00  0.00    +0.000 C 
BRANCH  21  22
ATOM     22  C   UNL     1       4.070   4.892  16.974  0.00  0.00    +0.000 C 
BRANCH  22  23
ATOM     23  C   UNL     1       5.556   4.743  16.973  0.00  0.00    +0.000 A 
ATOM     24  N   UNL     1       6.307   4.409  15.943  0.00  0.00    +0.000 NA
ATOM     25  N   UNL     1       7.612   4.329  16.371  0.00  0.00    +0.000 NA
ATOM     26  C   UNL     1       7.631   4.626  17.647  0.00  0.00    +0.000 A 
ATOM     27  N   UNL     1       6.368   4.913  18.065  0.00  0.00    +0.000 N 
ATOM     28  C   UNL     1       5.985   5.318  19.389  0.00  0.00    +0.000 C 
ENDBRANCH  22  23
ENDBRANCH  21  22
ENDBRANCH   1  21
TORSDOF 5
ENDMDL
