MODEL 1
REMARK VINA RESULT:      -8.1      0.000      0.000
REMARK  Name = 
REMARK  7 active torsions:
REMARK  status: ('A' for Active; 'I' for Inactive)
REMARK    1  A    between atoms: C_1  and  C_2
REMARK    2  A    between atoms: C_2  and  S_3
REMARK    3  A    between atoms: C_2  and  C_10
REMARK    4  A    between atoms: S_3  and  C_4
REMARK    5  A    between atoms: N_8  and  C_9
REMARK    6  A    between atoms: C_14  and  N_15
REMARK    7  A    between atoms: C_17  and  C_18
REMARK                            x       y       z     vdW  Elec       q    Type
REMARK                         _______ _______ _______ _____ _____    ______ ____
ROOT
ATOM      1  C   UNL     1      -0.947  11.180  21.727  0.00  0.00    +0.000 A 
ATOM      2  C   UNL     1      -0.812  10.574  22.987  0.00  0.00    +0.000 A 
ATOM      3  C   UNL     1       0.036   9.483  23.180  0.00  0.00    +0.000 A 
ATOM      4  C   UNL     1       0.761   8.963  22.113  0.00  0.00    +0.000 A 
ATOM      5  C   UNL     1       0.664   9.552  20.847  0.00  0.00    +0.000 A 
ATOM      6  C   UNL     1      -0.170  10.669  20.664  0.00  0.00    +0.000 A 
ENDROOT
BRANCH   5   7
ATOM      7  N   UNL     1       1.370   9.006  19.745  0.00  0.00    +0.000 N 
ATOM      8  C   UNL     1       2.037   7.805  19.676  0.00  0.00    +0.000 A 
ATOM      9  C   UNL     1       2.478   7.717  18.377  0.00  0.00    +0.000 A 
ATOM     10  N   UNL     1       2.103   8.842  17.700  0.00  0.00    +0.000 NA
ATOM     11  N   UNL     1       1.440   9.628  18.541  0.00  0.00    +0.000 NA
BRANCH   9  12
ATOM     12  C   UNL     1       3.162   6.583  17.787  0.00  0.00    +0.000 A 
ATOM     13  C   UNL     1       2.631   5.296  17.936  0.00  0.00    +0.000 A 
ATOM     14  C   UNL     1       3.312   4.184  17.433  0.00  0.00    +0.000 A 
ATOM     15  C   UNL     1       4.525   4.350  16.768  0.00  0.00    +0.000 A 
ATOM     16  C   UNL     1       5.054   5.627  16.594  0.00  0.00    +0.000 A 
ATOM     17  C   UNL     1       4.375   6.738  17.098  0.00  0.00    +0.000 A 
ENDBRANCH   9  12
ENDBRANCH   5   7
BRANCH   1  19
ATOM     18  C   UNL     1      -1.525  13.220  20.274  0.00  0.00    +0.000 C 
ATOM     19  C   UNL     1      -1.924  12.335  21.465  0.00  0.00    +0.000 C 
BRANCH  19  20
ATOM     20  S   UNL     1      -2.037  13.367  22.991  0.00  0.00    +0.000 S 
BRANCH  20  21
ATOM     21  C   UNL     1      -3.617  13.014  23.576  0.00  0.00    +0.000 A 
ATOM     22  N   UNL     1      -3.993  12.002  24.324  0.00  0.00    +0.000 NA
ATOM     23  N   UNL     1      -5.363  12.069  24.461  0.00  0.00    +0.000 NA
ATOM     24  C   UNL     1      -5.775  13.135  23.810  0.00  0.00    +0.000 A 
ATOM     25  N   UNL     1      -4.705  13.779  23.263  0.00  0.00    +0.000 N 
ATOM     26  C   UNL     1      -4.742  14.997  22.505  0.00  0.00    +0.000 C 
ENDBRANCH  20  21
ENDBRANCH  19  20
ENDBRANCH   1  19
TORSDOF 5
ENDMDL
MODEL 2
REMARK VINA RESULT:      -8.0      3.208     10.096
REMARK  Name = 
REMARK  7 active torsions:
REMARK  status: ('A' for Active; 'I' for Inactive)
REMARK    1  A    between atoms: C_1  and  C_2
REMARK    2  A    between atoms: C_2  and  S_3
REMARK    3  A    between atoms: C_2  and  C_10
REMARK    4  A    between atoms: S_3  and  C_4
REMARK    5  A    between atoms: N_8  and  C_9
REMARK    6  A    between atoms: C_14  and  N_15
REMARK    7  A    between atoms: C_17  and  C_18
REMARK                            x       y       z     vdW  Elec       q    Type
REMARK                         _______ _______ _______ _____ _____    ______ ____
ROOT
ATOM      1  C   UNL     1       2.152   7.423  19.083  0.00  0.00    +0.000 A 
ATOM      2  C   UNL     1       2.272   8.158  17.892  0.00  0.00    +0.000 A 
ATOM      3  C   UNL     1       1.847   9.485  17.814  0.00  0.00    +0.000 A 
ATOM      4  C   UNL     1       1.281  10.106  18.923  0.00  0.00    +0.000 A 
ATOM      5  C   UNL     1       1.162   9.409  20.130  0.00  0.00    +0.000 A 
ATOM      6  C   UNL     1       1.617   8.080  20.213  0.00  0.00    +0.000 A 
ENDROOT
BRANCH   5   7
ATOM      7  N   UNL     1       0.552  10.020  21.255  0.00  0.00    +0.000 N 
ATOM      8  C   UNL     1      -0.259  11.130  21.282  0.00  0.00    +0.000 A 
ATOM      9  C   UNL     1      -0.645  11.259  22.594  0.00  0.00    +0.000 A 
ATOM     10  N   UNL     1      -0.063  10.266  23.330  0.00  0.00    +0.000 NA
ATOM     11  N   UNL     1       0.673   9.523  22.512  0.00  0.00    +0.000 NA
BRANCH   9  12
ATOM     12  C   UNL     1      -1.581  12.237  23.113  0.00  0.00    +0.000 A 
ATOM     13  C   UNL     1      -1.174  13.566  23.283  0.00  0.00    +0.000 A 
ATOM     14  C   UNL     1      -2.041  14.507  23.845  0.00  0.00    +0.000 A 
ATOM     15  C   UNL     1      -3.326  14.130  24.233  0.00  0.00    +0.000 A 
ATOM     16  C   UNL     1      -3.750  12.816  24.049  0.00  0.00    +0.000 A 
ATOM     17  C   UNL     1      -2.884  11.875  23.490  0.00  0.00    +0.000 A 
ENDBRANCH   9  12
ENDBRANCH   5   7
BRANCH   1  19
ATOM     18  C   UNL     1       1.876   5.208  20.357  0.00  0.00    +0.000 C 
ATOM     19  C   UNL     1       2.542   5.941  19.183  0.00  0.00    +0.000 C 
BRANCH  19  20
ATOM     20  S   UNL     1       4.377   5.826  19.344  0.00  0.00    +0.000 S 
BRANCH  20  21
ATOM     21  C   UNL     1       4.905   5.808  17.705  0.00  0.00    +0.000 A 
ATOM     22  N   UNL     1       5.444   6.791  17.020  0.00  0.00    +0.000 NA
ATOM     23  N   UNL     1       5.613   6.353  15.724  0.00  0.00    +0.000 NA
ATOM     24  C   UNL     1       5.191   5.108  15.667  0.00  0.00    +0.000 A 
ATOM     25  N   UNL     1       4.766   4.713  16.900  0.00  0.00    +0.000 N 
ATOM     26  C   UNL     1       4.264   3.415  17.251  0.00  0.00    +0.000 C 
ENDBRANCH  20  21
ENDBRANCH  19  20
ENDBRANCH   1  19
TORSDOF 5
ENDMDL
MODEL 3
REMARK VINA RESULT:      -8.0      7.352      9.785
REMARK  Name = 
REMARK  7 active torsions:
REMARK  status: ('A' for Active; 'I' for Inactive)
REMARK    1  A    between atoms: C_1  and  C_2
REMARK    2  A    between atoms: C_2  and  S_3
REMARK    3  A    between atoms: C_2  and  C_10
REMARK    4  A    between atoms: S_3  and  C_4
REMARK    5  A    between atoms: N_8  and  C_9
REMARK    6  A    between atoms: C_14  and  N_15
REMARK    7  A    between atoms: C_17  and  C_18
REMARK                            x       y       z     vdW  Elec       q    Type
REMARK                         _______ _______ _______ _____ _____    ______ ____
ROOT
ATOM      1  C   UNL     1       4.204   5.184  17.316  0.00  0.00    +0.000 A 
ATOM      2  C   UNL     1       4.647   4.259  16.357  0.00  0.00    +0.000 A 
ATOM      3  C   UNL     1       5.961   4.276  15.887  0.00  0.00    +0.000 A 
ATOM      4  C   UNL     1       6.861   5.228  16.357  0.00  0.00    +0.000 A 
ATOM      5  C   UNL     1       6.458   6.154  17.325  0.00  0.00    +0.000 A 
ATOM      6  C   UNL     1       5.140   6.115  17.817  0.00  0.00    +0.000 A 
ENDROOT
BRANCH   5   7
ATOM      7  N   UNL     1       7.356   7.152  17.782  0.00  0.00    +0.000 N 
ATOM      8  C   UNL     1       7.488   8.445  17.332  0.00  0.00    +0.000 A 
ATOM      9  C   UNL     1       8.434   9.013  18.150  0.00  0.00    +0.000 A 
ATOM     10  N   UNL     1       8.867   8.078  19.048  0.00  0.00    +0.000 NA
ATOM     11  N   UNL     1       8.216   6.945  18.810  0.00  0.00    +0.000 NA
BRANCH   9  12
ATOM     12  C   UNL     1       8.856  10.400  18.128  0.00  0.00    +0.000 A 
ATOM     13  C   UNL     1      10.099  10.757  18.665  0.00  0.00    +0.000 A 
ATOM     14  C   UNL     1      10.492  12.097  18.714  0.00  0.00    +0.000 A 
ATOM     15  C   UNL     1       9.650  13.091  18.217  0.00  0.00    +0.000 A 
ATOM     16  C   UNL     1       8.420  12.746  17.660  0.00  0.00    +0.000 A 
ATOM     17  C   UNL     1       8.026  11.408  17.613  0.00  0.00    +0.000 A 
ENDBRANCH   9  12
ENDBRANCH   5   7
BRANCH   1  19
ATOM     18  C   UNL     1       2.586   5.869  19.193  0.00  0.00    +0.000 C 
ATOM     19  C   UNL     1       2.748   5.240  17.801  0.00  0.00    +0.000 C 
BRANCH  19  20
ATOM     20  S   UNL     1       2.068   3.523  17.816  0.00  0.00    +0.000 S 
BRANCH  20  21
ATOM     21  C   UNL     1       1.929   3.182  19.499  0.00  0.00    +0.000 A 
ATOM     22  N   UNL     1       0.864   3.290  20.258  0.00  0.00    +0.000 NA
ATOM     23  N   UNL     1       1.244   3.008  21.553  0.00  0.00    +0.000 NA
ATOM     24  C   UNL     1       2.525   2.715  21.536  0.00  0.00    +0.000 A 
ATOM     25  N   UNL     1       2.992   2.781  20.258  0.00  0.00    +0.000 N 
ATOM     26  C   UNL     1       4.332   2.499  19.825  0.00  0.00    +0.000 C 
ENDBRANCH  20  21
ENDBRANCH  19  20
ENDBRANCH   1  19
TORSDOF 5
ENDMDL
MODEL 4
REMARK VINA RESULT:      -8.0      4.904     10.087
REMARK  Name = 
REMARK  7 active torsions:
REMARK  status: ('A' for Active; 'I' for Inactive)
REMARK    1  A    between atoms: C_1  and  C_2
REMARK    2  A    between atoms: C_2  and  S_3
REMARK    3  A    between atoms: C_2  and  C_10
REMARK    4  A    between atoms: S_3  and  C_4
REMARK    5  A    between atoms: N_8  and  C_9
REMARK    6  A    between atoms: C_14  and  N_15
REMARK    7  A    between atoms: C_17  and  C_18
REMARK                            x       y       z     vdW  Elec       q    Type
REMARK                         _______ _______ _______ _____ _____    ______ ____
ROOT
ATOM      1  C   UNL     1       4.289   4.981  16.779  0.00  0.00    +0.000 A 
ATOM      2  C   UNL     1       3.677   3.776  17.161  0.00  0.00    +0.000 A 
ATOM      3  C   UNL     1       2.584   3.762  18.028  0.00  0.00    +0.000 A 
ATOM      4  C   UNL     1       2.083   4.953  18.544  0.00  0.00    +0.000 A 
ATOM      5  C   UNL     1       2.658   6.174  18.171  0.00  0.00    +0.000 A 
ATOM      6  C   UNL     1       3.741   6.185  17.274  0.00  0.00    +0.000 A 
ENDROOT
BRANCH   5   7
ATOM      7  N   UNL     1       2.179   7.390  18.720  0.00  0.00    +0.000 N 
ATOM      8  C   UNL     1       1.766   8.518  18.050  0.00  0.00    +0.000 A 
ATOM      9  C   UNL     1       1.329   9.376  19.031  0.00  0.00    +0.000 A 
ATOM     10  N   UNL     1       1.498   8.782  20.250  0.00  0.00    +0.000 NA
ATOM     11  N   UNL     1       2.027   7.580  20.055  0.00  0.00    +0.000 NA
BRANCH   9  12
ATOM     12  C   UNL     1       0.712  10.670  18.816  0.00  0.00    +0.000 A 
ATOM     13  C   UNL     1      -0.651  10.747  18.503  0.00  0.00    +0.000 A 
ATOM     14  C   UNL     1      -1.246  11.981  18.226  0.00  0.00    +0.000 A 
ATOM     15  C   UNL     1      -0.487  13.149  18.269  0.00  0.00    +0.000 A 
ATOM     16  C   UNL     1       0.865  13.088  18.601  0.00  0.00    +0.000 A 
ATOM     17  C   UNL     1       1.461  11.856  18.876  0.00  0.00    +0.000 A 
ENDBRANCH   9  12
ENDBRANCH   5   7
BRANCH   1  19
ATOM     18  C   UNL     1       5.507   4.010  14.734  0.00  0.00    +0.000 C 
ATOM     19  C   UNL     1       5.537   5.028  15.885  0.00  0.00    +0.000 C 
BRANCH  19  20
ATOM     20  S   UNL     1       7.024   4.728  16.937  0.00  0.00    +0.000 S 
BRANCH  20  21
ATOM     21  C   UNL     1       7.459   6.315  17.446  0.00  0.00    +0.000 A 
ATOM     22  N   UNL     1       7.405   7.428  16.751  0.00  0.00    +0.000 NA
ATOM     23  N   UNL     1       7.945   8.431  17.527  0.00  0.00    +0.000 NA
ATOM     24  C   UNL     1       8.289   7.900  18.679  0.00  0.00    +0.000 A 
ATOM     25  N   UNL     1       7.973   6.575  18.685  0.00  0.00    +0.000 N 
ATOM     26  C   UNL     1       8.165   5.658  19.773  0.00  0.00    +0.000 C 
ENDBRANCH  20  21
ENDBRANCH  19  20
ENDBRANCH   1  19
TORSDOF 5
ENDMDL
MODEL 5
REMARK VINA RESULT:      -8.0      3.295     10.135
REMARK  Name = 
REMARK  7 active torsions:
REMARK  status: ('A' for Active; 'I' for Inactive)
REMARK    1  A    between atoms: C_1  and  C_2
REMARK    2  A    between atoms: C_2  and  S_3
REMARK    3  A    between atoms: C_2  and  C_10
REMARK    4  A    between atoms: S_3  and  C_4
REMARK    5  A    between atoms: N_8  and  C_9
REMARK    6  A    between atoms: C_14  and  N_15
REMARK    7  A    between atoms: C_17  and  C_18
REMARK                            x       y       z     vdW  Elec       q    Type
REMARK                         _______ _______ _______ _____ _____    ______ ____
ROOT
ATOM      1  C   UNL     1       2.251   7.096  19.202  0.00  0.00    +0.000 A 
ATOM      2  C   UNL     1       2.344   7.760  17.968  0.00  0.00    +0.000 A 
ATOM      3  C   UNL     1       1.908   9.077  17.818  0.00  0.00    +0.000 A 
ATOM      4  C   UNL     1       1.357   9.759  18.899  0.00  0.00    +0.000 A 
ATOM      5  C   UNL     1       1.264   9.134  20.147  0.00  0.00    +0.000 A 
ATOM      6  C   UNL     1       1.731   7.816  20.300  0.00  0.00    +0.000 A 
ENDROOT
BRANCH   5   7
ATOM      7  N   UNL     1       0.669   9.807  21.245  0.00  0.00    +0.000 N 
ATOM      8  C   UNL     1      -0.143  10.917  21.220  0.00  0.00    +0.000 A 
ATOM      9  C   UNL     1      -0.511  11.119  22.528  0.00  0.00    +0.000 A 
ATOM     10  N   UNL     1       0.082  10.169  23.311  0.00  0.00    +0.000 NA
ATOM     11  N   UNL     1       0.808   9.381  22.525  0.00  0.00    +0.000 NA
BRANCH   9  12
ATOM     12  C   UNL     1      -1.440  12.125  23.004  0.00  0.00    +0.000 A 
ATOM     13  C   UNL     1      -1.020  13.455  23.133  0.00  0.00    +0.000 A 
ATOM     14  C   UNL     1      -1.881  14.423  23.655  0.00  0.00    +0.000 A 
ATOM     15  C   UNL     1      -3.173  14.074  24.043  0.00  0.00    +0.000 A 
ATOM     16  C   UNL     1      -3.611  12.760  23.899  0.00  0.00    +0.000 A 
ATOM     17  C   UNL     1      -2.750  11.790  23.381  0.00  0.00    +0.000 A 
ENDBRANCH   9  12
ENDBRANCH   5   7
BRANCH   1  19
ATOM     18  C   UNL     1       2.118   4.996  20.678  0.00  0.00    +0.000 C 
ATOM     19  C   UNL     1       2.654   5.626  19.383  0.00  0.00    +0.000 C 
BRANCH  19  20
ATOM     20  S   UNL     1       4.497   5.515  19.359  0.00  0.00    +0.000 S 
BRANCH  20  21
ATOM     21  C   UNL     1       4.836   5.137  17.713  0.00  0.00    +0.000 A 
ATOM     22  N   UNL     1       4.224   4.268  16.942  0.00  0.00    +0.000 NA
ATOM     23  N   UNL     1       4.897   4.230  15.740  0.00  0.00    +0.000 NA
ATOM     24  C   UNL     1       5.885   5.095  15.810  0.00  0.00    +0.000 A 
ATOM     25  N   UNL     1       5.866   5.714  17.024  0.00  0.00    +0.000 N 
ATOM     26  C   UNL     1       6.763   6.742  17.470  0.00  0.00    +0.000 C 
ENDBRANCH  20  21
ENDBRANCH  19  20
ENDBRANCH   1  19
TORSDOF 5
ENDMDL
MODEL 6
REMARK VINA RESULT:      -7.9      3.383     10.198
REMARK  Name = 
REMARK  7 active torsions:
REMARK  status: ('A' for Active; 'I' for Inactive)
REMARK    1  A    between atoms: C_1  and  C_2
REMARK    2  A    between atoms: C_2  and  S_3
REMARK    3  A    between atoms: C_2  and  C_10
REMARK    4  A    between atoms: S_3  and  C_4
REMARK    5  A    between atoms: N_8  and  C_9
REMARK    6  A    between atoms: C_14  and  N_15
REMARK    7  A    between atoms: C_17  and  C_18
REMARK                            x       y       z     vdW  Elec       q    Type
REMARK                         _______ _______ _______ _____ _____    ______ ____
ROOT
ATOM      1  C   UNL     1       2.429   6.684  19.183  0.00  0.00    +0.000 A 
ATOM      2  C   UNL     1       2.464   7.274  17.909  0.00  0.00    +0.000 A 
ATOM      3  C   UNL     1       1.993   8.570  17.697  0.00  0.00    +0.000 A 
ATOM      4  C   UNL     1       1.463   9.304  18.754  0.00  0.00    +0.000 A 
ATOM      5  C   UNL     1       1.428   8.753  20.040  0.00  0.00    +0.000 A 
ATOM      6  C   UNL     1       1.931   7.457  20.254  0.00  0.00    +0.000 A 
ENDROOT
BRANCH   5   7
ATOM      7  N   UNL     1       0.856   9.478  21.116  0.00  0.00    +0.000 N 
ATOM      8  C   UNL     1       0.119  10.638  21.060  0.00  0.00    +0.000 A 
ATOM      9  C   UNL     1      -0.262  10.881  22.358  0.00  0.00    +0.000 A 
ATOM     10  N   UNL     1       0.252   9.906  23.165  0.00  0.00    +0.000 NA
ATOM     11  N   UNL     1       0.941   9.062  22.405  0.00  0.00    +0.000 NA
BRANCH   9  12
ATOM     12  C   UNL     1      -1.134  11.951  22.802  0.00  0.00    +0.000 A 
ATOM     13  C   UNL     1      -2.393  11.646  23.334  0.00  0.00    +0.000 A 
ATOM     14  C   UNL     1      -3.273  12.667  23.703  0.00  0.00    +0.000 A 
ATOM     15  C   UNL     1      -2.899  14.001  23.554  0.00  0.00    +0.000 A 
ATOM     16  C   UNL     1      -1.641  14.318  23.047  0.00  0.00    +0.000 A 
ATOM     17  C   UNL     1      -0.761  13.299  22.675  0.00  0.00    +0.000 A 
ENDBRANCH   9  12
ENDBRANCH   5   7
BRANCH   1  19
ATOM     18  C   UNL     1       2.286   4.629  20.720  0.00  0.00    +0.000 C 
ATOM     19  C   UNL     1       2.872   5.235  19.436  0.00  0.00    +0.000 C 
BRANCH  19  20
ATOM     20  S   UNL     1       4.716   5.191  19.517  0.00  0.00    +0.000 S 
BRANCH  20  21
ATOM     21  C   UNL     1       5.160   4.780  17.905  0.00  0.00    +0.000 A 
ATOM     22  N   UNL     1       4.433   4.167  16.999  0.00  0.00    +0.000 NA
ATOM     23  N   UNL     1       5.230   3.961  15.893  0.00  0.00    +0.000 NA
ATOM     24  C   UNL     1       6.411   4.476  16.154  0.00  0.00    +0.000 A 
ATOM     25  N   UNL     1       6.404   5.031  17.398  0.00  0.00    +0.000 N 
ATOM     26  C   UNL     1       7.495   5.717  18.031  0.00  0.00    +0.000 C 
ENDBRANCH  20  21
ENDBRANCH  19  20
ENDBRANCH   1  19
TORSDOF 5
ENDMDL
MODEL 7
REMARK VINA RESULT:      -7.9      3.461      9.464
REMARK  Name = 
REMARK  7 active torsions:
REMARK  status: ('A' for Active; 'I' for Inactive)
REMARK    1  A    between atoms: C_1  and  C_2
REMARK    2  A    between atoms: C_2  and  S_3
REMARK    3  A    between atoms: C_2  and  C_10
REMARK    4  A    between atoms: S_3  and  C_4
REMARK    5  A    between atoms: N_8  and  C_9
REMARK    6  A    between atoms: C_14  and  N_15
REMARK    7  A    between atoms: C_17  and  C_18
REMARK                            x       y       z     vdW  Elec       q    Type
REMARK                         _______ _______ _______ _____ _____    ______ ____
ROOT
ATOM      1  C   UNL     1       2.263   7.728  19.041  0.00  0.00    +0.000 A 
ATOM      2  C   UNL     1       2.115   8.394  17.813  0.00  0.00    +0.000 A 
ATOM      3  C   UNL     1       1.398   9.587  17.718  0.00  0.00    +0.000 A 
ATOM      4  C   UNL     1       0.801  10.138  18.848  0.00  0.00    +0.000 A 
ATOM      5  C   UNL     1       0.942   9.510  20.090  0.00  0.00    +0.000 A 
ATOM      6  C   UNL     1       1.690   8.323  20.187  0.00  0.00    +0.000 A 
ENDROOT
BRANCH   5   7
ATOM      7  N   UNL     1       0.306  10.042  21.241  0.00  0.00    +0.000 N 
ATOM      8  C   UNL     1      -0.340  11.250  21.370  0.00  0.00    +0.000 A 
ATOM      9  C   UNL     1      -0.843  11.249  22.649  0.00  0.00    +0.000 A 
ATOM     10  N   UNL     1      -0.488  10.084  23.268  0.00  0.00    +0.000 NA
ATOM     11  N   UNL     1       0.221   9.360  22.410  0.00  0.00    +0.000 NA
BRANCH   9  12
ATOM     12  C   UNL     1      -1.683  12.277  23.232  0.00  0.00    +0.000 A 
ATOM     13  C   UNL     1      -2.995  11.969  23.614  0.00  0.00    +0.000 A 
ATOM     14  C   UNL     1      -3.841  12.962  24.113  0.00  0.00    +0.000 A 
ATOM     15  C   UNL     1      -3.380  14.271  24.247  0.00  0.00    +0.000 A 
ATOM     16  C   UNL     1      -2.070  14.586  23.892  0.00  0.00    +0.000 A 
ATOM     17  C   UNL     1      -1.225  13.594  23.390  0.00  0.00    +0.000 A 
ENDBRANCH   9  12
ENDBRANCH   5   7
BRANCH   1  19
ATOM     18  C   UNL     1       4.222   6.255  18.266  0.00  0.00    +0.000 C 
ATOM     19  C   UNL     1       2.983   6.378  19.168  0.00  0.00    +0.000 C 
BRANCH  19  20
ATOM     20  S   UNL     1       1.786   5.033  18.761  0.00  0.00    +0.000 S 
BRANCH  20  21
ATOM     21  C   UNL     1       1.851   4.027  20.157  0.00  0.00    +0.000 A 
ATOM     22  N   UNL     1       2.128   4.379  21.392  0.00  0.00    +0.000 NA
ATOM     23  N   UNL     1       2.163   3.231  22.155  0.00  0.00    +0.000 NA
ATOM     24  C   UNL     1       1.885   2.219  21.362  0.00  0.00    +0.000 A 
ATOM     25  N   UNL     1       1.649   2.677  20.101  0.00  0.00    +0.000 N 
ATOM     26  C   UNL     1       1.284   1.884  18.961  0.00  0.00    +0.000 C 
ENDBRANCH  20  21
ENDBRANCH  19  20
ENDBRANCH   1  19
TORSDOF 5
ENDMDL
MODEL 8
REMARK VINA RESULT:      -7.9      3.416      9.938
REMARK  Name = 
REMARK  7 active torsions:
REMARK  status: ('A' for Active; 'I' for Inactive)
REMARK    1  A    between atoms: C_1  and  C_2
REMARK    2  A    between atoms: C_2  and  S_3
REMARK    3  A    between atoms: C_2  and  C_10
REMARK    4  A    between atoms: S_3  and  C_4
REMARK    5  A    between atoms: N_8  and  C_9
REMARK    6  A    between atoms: C_14  and  N_15
REMARK    7  A    between atoms: C_17  and  C_18
REMARK                            x       y       z     vdW  Elec       q    Type
REMARK                         _______ _______ _______ _____ _____    ______ ____
ROOT
ATOM      1  C   UNL     1       2.310   7.432  19.348  0.00  0.00    +0.000 A 
ATOM      2  C   UNL     1       2.191   7.981  18.061  0.00  0.00    +0.000 A 
ATOM      3  C   UNL     1       1.538   9.195  17.848  0.00  0.00    +0.000 A 
ATOM      4  C   UNL     1       0.975   9.885  18.918  0.00  0.00    +0.000 A 
ATOM      5  C   UNL     1       1.089   9.375  20.217  0.00  0.00    +0.000 A 
ATOM      6  C   UNL     1       1.774   8.165  20.430  0.00  0.00    +0.000 A 
ENDROOT
BRANCH   5   7
ATOM      7  N   UNL     1       0.487  10.050  21.309  0.00  0.00    +0.000 N 
ATOM      8  C   UNL     1      -0.306  11.174  21.278  0.00  0.00    +0.000 A 
ATOM      9  C   UNL     1      -0.692  11.373  22.582  0.00  0.00    +0.000 A 
ATOM     10  N   UNL     1      -0.128  10.409  23.367  0.00  0.00    +0.000 NA
ATOM     11  N   UNL     1       0.599   9.615  22.589  0.00  0.00    +0.000 NA
BRANCH   9  12
ATOM     12  C   UNL     1      -1.613  12.390  23.049  0.00  0.00    +0.000 A 
ATOM     13  C   UNL     1      -2.986  12.116  23.097  0.00  0.00    +0.000 A 
ATOM     14  C   UNL     1      -3.894  13.106  23.480  0.00  0.00    +0.000 A 
ATOM     15  C   UNL     1      -3.438  14.377  23.828  0.00  0.00    +0.000 A 
ATOM     16  C   UNL     1      -2.074  14.656  23.805  0.00  0.00    +0.000 A 
ATOM     17  C   UNL     1      -1.165  13.668  23.420  0.00  0.00    +0.000 A 
ENDBRANCH   9  12
ENDBRANCH   5   7
BRANCH   1  19
ATOM     18  C   UNL     1       3.945   5.634  18.511  0.00  0.00    +0.000 C 
ATOM     19  C   UNL     1       2.959   6.065  19.608  0.00  0.00    +0.000 C 
BRANCH  19  20
ATOM     20  S   UNL     1       1.623   4.801  19.768  0.00  0.00    +0.000 S 
BRANCH  20  21
ATOM     21  C   UNL     1       2.180   3.524  18.756  0.00  0.00    +0.000 A 
ATOM     22  N   UNL     1       1.814   3.252  17.525  0.00  0.00    +0.000 NA
ATOM     23  N   UNL     1       2.444   2.085  17.150  0.00  0.00    +0.000 NA
ATOM     24  C   UNL     1       3.191   1.695  18.159  0.00  0.00    +0.000 A 
ATOM     25  N   UNL     1       3.081   2.589  19.182  0.00  0.00    +0.000 N 
ATOM     26  C   UNL     1       3.765   2.529  20.443  0.00  0.00    +0.000 C 
ENDBRANCH  20  21
ENDBRANCH  19  20
ENDBRANCH   1  19
TORSDOF 5
ENDMDL
MODEL 9
REMARK VINA RESULT:      -7.9      4.574     10.163
REMARK  Name = 
REMARK  7 active torsions:
REMARK  status: ('A' for Active; 'I' for Inactive)
REMARK    1  A    between atoms: C_1  and  C_2
REMARK    2  A    between atoms: C_2  and  S_3
REMARK    3  A    between atoms: C_2  and  C_10
REMARK    4  A    between atoms: S_3  and  C_4
REMARK    5  A    between atoms: N_8  and  C_9
REMARK    6  A    between atoms: C_14  and  N_15
REMARK    7  A    between atoms: C_17  and  C_18
REMARK                            x       y       z     vdW  Elec       q    Type
REMARK                         _______ _______ _______ _____ _____    ______ ____
ROOT
ATOM      1  C   UNL     1       4.462   4.822  16.711  0.00  0.00    +0.000 A 
ATOM      2  C   UNL     1       3.856   3.611  17.085  0.00  0.00    +0.000 A 
ATOM      3  C   UNL     1       2.728   3.589  17.905  0.00  0.00    +0.000 A 
ATOM      4  C   UNL     1       2.185   4.778  18.383  0.00  0.00    +0.000 A 
ATOM      5  C   UNL     1       2.754   6.003  18.016  0.00  0.00    +0.000 A 
ATOM      6  C   UNL     1       3.874   6.022  17.165  0.00  0.00    +0.000 A 
ENDROOT
BRANCH   5   7
ATOM      7  N   UNL     1       2.232   7.219  18.527  0.00  0.00    +0.000 N 
ATOM      8  C   UNL     1       1.504   7.412  19.679  0.00  0.00    +0.000 A 
ATOM      9  C   UNL     1       1.312   8.770  19.756  0.00  0.00    +0.000 A 
ATOM     10  N   UNL     1       1.891   9.365  18.670  0.00  0.00    +0.000 NA
ATOM     11  N   UNL     1       2.437   8.415  17.921  0.00  0.00    +0.000 NA
BRANCH   9  12
ATOM     12  C   UNL     1       0.671   9.477  20.847  0.00  0.00    +0.000 A 
ATOM     13  C   UNL     1       0.647   8.907  22.126  0.00  0.00    +0.000 A 
ATOM     14  C   UNL     1      -0.025   9.543  23.173  0.00  0.00    +0.000 A 
ATOM     15  C   UNL     1      -0.670  10.758  22.954  0.00  0.00    +0.000 A 
ATOM     16  C   UNL     1      -0.635  11.347  21.692  0.00  0.00    +0.000 A 
ATOM     17  C   UNL     1       0.034  10.712  20.644  0.00  0.00    +0.000 A 
ENDBRANCH   9  12
ENDBRANCH   5   7
BRANCH   1  19
ATOM     18  C   UNL     1       5.799   3.820  14.756  0.00  0.00    +0.000 C 
ATOM     19  C   UNL     1       5.745   4.879  15.869  0.00  0.00    +0.000 C 
BRANCH  19  20
ATOM     20  S   UNL     1       7.195   4.667  16.992  0.00  0.00    +0.000 S 
BRANCH  20  21
ATOM     21  C   UNL     1       7.549   6.284  17.469  0.00  0.00    +0.000 A 
ATOM     22  N   UNL     1       7.477   7.374  16.740  0.00  0.00    +0.000 NA
ATOM     23  N   UNL     1       7.949   8.420  17.504  0.00  0.00    +0.000 NA
ATOM     24  C   UNL     1       8.271   7.935  18.684  0.00  0.00    +0.000 A 
ATOM     25  N   UNL     1       8.006   6.599  18.717  0.00  0.00    +0.000 N 
ATOM     26  C   UNL     1       8.194   5.722  19.838  0.00  0.00    +0.000 C 
ENDBRANCH  20  21
ENDBRANCH  19  20
ENDBRANCH   1  19
TORSDOF 5
ENDMDL
