MODEL 1
REMARK VINA RESULT:     -10.0      0.000      0.000
REMARK  Name = 
REMARK  9 active torsions:
REMARK  status: ('A' for Active; 'I' for Inactive)
REMARK    1  A    between atoms: C_1  and  C_2
REMARK    2  A    between atoms: C_6  and  C_7
REMARK    3  A    between atoms: C_11  and  C_12
REMARK    4  A    between atoms: N_18  and  C_19
REMARK    5  A    between atoms: C_23  and  C_24
REMARK    6  A    between atoms: C_24  and  C_25
REMARK    7  A    between atoms: C_24  and  C_26
REMARK    8  A    between atoms: C_26  and  C_27
REMARK    9  A    between atoms: N_31  and  C_32
REMARK                            x       y       z     vdW  Elec       q    Type
REMARK                         _______ _______ _______ _____ _____    ______ ____
ROOT
ATOM      1  C   UNL     1       4.113   5.252  17.823  0.00  0.00    +0.000 A 
ATOM      2  C   UNL     1       3.643   6.565  17.800  0.00  0.00    +0.000 A 
ATOM      3  C   UNL     1       2.752   6.949  18.774  0.00  0.00    +0.000 A 
ATOM      4  C   UNL     1       2.284   6.084  19.754  0.00  0.00    +0.000 A 
ATOM      5  C   UNL     1       2.671   4.750  19.764  0.00  0.00    +0.000 A 
ATOM      6  C   UNL     1       3.598   4.348  18.783  0.00  0.00    +0.000 A 
ATOM      7  C   UNL     1       1.382   6.832  20.674  0.00  0.00    +0.000 C 
ATOM      8  N   UNL     1       1.376   8.180  20.127  0.00  0.00    +0.000 N 
ATOM      9  C   UNL     1       2.163   8.273  18.972  0.00  0.00    +0.000 C 
ATOM     10  O   UNL     1       2.395   9.199  18.223  0.00  0.00    +0.000 OA
ENDROOT
BRANCH   1  16
ATOM     11  C   UNL     1       7.312   5.905  17.909  0.00  0.00    +0.000 C 
ATOM     12  C   UNL     1       6.546   5.115  16.910  0.00  0.00    +0.000 A 
ATOM     13  C   UNL     1       7.054   4.464  15.807  0.00  0.00    +0.000 A 
ATOM     14  N   UNL     1       6.005   3.833  15.216  0.00  0.00    +0.000 N 
ATOM     15  N   UNL     1       4.841   4.016  15.853  0.00  0.00    +0.000 NA
ATOM     16  C   UNL     1       5.144   4.822  16.883  0.00  0.00    +0.000 A 
ATOM     17  H   UNL     1       6.011   3.251  14.385  0.00  0.00    +0.000 HD
ENDBRANCH   1  16
BRANCH   8  18
ATOM     18  C   UNL     1       0.573   9.200  20.677  0.00  0.00    +0.000 A 
ATOM     19  C   UNL     1       0.356   9.280  22.055  0.00  0.00    +0.000 A 
ATOM     20  C   UNL     1      -0.404  10.310  22.597  0.00  0.00    +0.000 A 
ATOM     21  C   UNL     1      -0.982  11.266  21.766  0.00  0.00    +0.000 A 
ATOM     22  C   UNL     1      -0.798  11.215  20.377  0.00  0.00    +0.000 A 
ATOM     23  C   UNL     1      -0.008  10.182  19.850  0.00  0.00    +0.000 A 
BRANCH  22  24
ATOM     24  C   UNL     1      -1.416  12.266  19.462  0.00  0.00    +0.000 C 
ATOM     25  C   UNL     1      -1.276  13.653  20.105  0.00  0.00    +0.000 C 
BRANCH  24  26
ATOM     26  C   UNL     1      -2.891  11.942  19.136  0.00  0.00    +0.000 C 
BRANCH  26  27
ATOM     27  C   UNL     1      -3.082  11.510  17.719  0.00  0.00    +0.000 A 
ATOM     28  N   UNL     1      -2.131  11.264  16.841  0.00  0.00    +0.000 NA
ATOM     29  N   UNL     1      -2.724  10.880  15.660  0.00  0.00    +0.000 NA
ATOM     30  C   UNL     1      -4.022  10.902  15.843  0.00  0.00    +0.000 A 
ATOM     31  N   UNL     1      -4.294  11.322  17.107  0.00  0.00    +0.000 N 
ATOM     32  C   UNL     1      -5.602  11.546  17.661  0.00  0.00    +0.000 C 
ENDBRANCH  26  27
ENDBRANCH  24  26
ENDBRANCH  22  24
ENDBRANCH   8  18
BRANCH   5  33
ATOM     33  C   UNL     1       2.137   3.761  20.763  0.00  0.00    +0.000 C 
ATOM     34  F   UNL     1       2.595   2.494  20.568  0.00  0.00    +0.000 F 
ATOM     35  F   UNL     1       2.474   4.083  22.041  0.00  0.00    +0.000 F 
ATOM     36  F   UNL     1       0.781   3.672  20.735  0.00  0.00    +0.000 F 
ENDBRANCH   5  33
TORSDOF 6
ENDMDL
MODEL 2
REMARK VINA RESULT:      -9.6      1.851      2.913
REMARK  Name = 
REMARK  9 active torsions:
REMARK  status: ('A' for Active; 'I' for Inactive)
REMARK    1  A    between atoms: C_1  and  C_2
REMARK    2  A    between atoms: C_6  and  C_7
REMARK    3  A    between atoms: C_11  and  C_12
REMARK    4  A    between atoms: N_18  and  C_19
REMARK    5  A    between atoms: C_23  and  C_24
REMARK    6  A    between atoms: C_24  and  C_25
REMARK    7  A    between atoms: C_24  and  C_26
REMARK    8  A    between atoms: C_26  and  C_27
REMARK    9  A    between atoms: N_31  and  C_32
REMARK                            x       y       z     vdW  Elec       q    Type
REMARK                         _______ _______ _______ _____ _____    ______ ____
ROOT
ATOM      1  C   UNL     1       4.167   5.464  17.749  0.00  0.00    +0.000 A 
ATOM      2  C   UNL     1       3.657   6.760  17.673  0.00  0.00    +0.000 A 
ATOM      3  C   UNL     1       2.768   7.161  18.641  0.00  0.00    +0.000 A 
ATOM      4  C   UNL     1       2.337   6.328  19.665  0.00  0.00    +0.000 A 
ATOM      5  C   UNL     1       2.763   5.008  19.729  0.00  0.00    +0.000 A 
ATOM      6  C   UNL     1       3.690   4.589  18.755  0.00  0.00    +0.000 A 
ATOM      7  C   UNL     1       1.425   7.091  20.562  0.00  0.00    +0.000 C 
ATOM      8  N   UNL     1       1.372   8.412  19.956  0.00  0.00    +0.000 N 
ATOM      9  C   UNL     1       2.142   8.475  18.787  0.00  0.00    +0.000 C 
ATOM     10  O   UNL     1       2.337   9.373  17.995  0.00  0.00    +0.000 OA
ENDROOT
BRANCH   1  16
ATOM     11  C   UNL     1       7.240   6.538  17.492  0.00  0.00    +0.000 C 
ATOM     12  C   UNL     1       6.544   5.498  16.691  0.00  0.00    +0.000 A 
ATOM     13  C   UNL     1       7.083   4.743  15.672  0.00  0.00    +0.000 A 
ATOM     14  N   UNL     1       6.105   3.889  15.268  0.00  0.00    +0.000 N 
ATOM     15  N   UNL     1       4.961   4.022  15.952  0.00  0.00    +0.000 NA
ATOM     16  C   UNL     1       5.198   5.022  16.815  0.00  0.00    +0.000 A 
ATOM     17  H   UNL     1       6.151   3.182  14.542  0.00  0.00    +0.000 HD
ENDBRANCH   1  16
BRANCH   8  18
ATOM     18  C   UNL     1       0.546   9.432  20.470  0.00  0.00    +0.000 A 
ATOM     19  C   UNL     1       0.441   9.647  21.847  0.00  0.00    +0.000 A 
ATOM     20  C   UNL     1      -0.344  10.678  22.348  0.00  0.00    +0.000 A 
ATOM     21  C   UNL     1      -1.059  11.500  21.480  0.00  0.00    +0.000 A 
ATOM     22  C   UNL     1      -0.991  11.310  20.093  0.00  0.00    +0.000 A 
ATOM     23  C   UNL     1      -0.175  10.279  19.604  0.00  0.00    +0.000 A 
BRANCH  22  24
ATOM     24  C   UNL     1      -1.760  12.214  19.136  0.00  0.00    +0.000 C 
ATOM     25  C   UNL     1      -2.862  11.404  18.439  0.00  0.00    +0.000 C 
BRANCH  24  26
ATOM     26  C   UNL     1      -0.822  12.887  18.110  0.00  0.00    +0.000 C 
BRANCH  26  27
ATOM     27  C   UNL     1       0.037  13.942  18.728  0.00  0.00    +0.000 A 
ATOM     28  N   UNL     1      -0.374  15.080  19.251  0.00  0.00    +0.000 NA
ATOM     29  N   UNL     1       0.726  15.758  19.723  0.00  0.00    +0.000 NA
ATOM     30  C   UNL     1       1.783  15.023  19.477  0.00  0.00    +0.000 A 
ATOM     31  N   UNL     1       1.404  13.890  18.826  0.00  0.00    +0.000 N 
ATOM     32  C   UNL     1       2.283  12.870  18.323  0.00  0.00    +0.000 C 
ENDBRANCH  26  27
ENDBRANCH  24  26
ENDBRANCH  22  24
ENDBRANCH   8  18
BRANCH   5  33
ATOM     33  C   UNL     1       2.271   4.050  20.779  0.00  0.00    +0.000 C 
ATOM     34  F   UNL     1       2.575   4.437  22.048  0.00  0.00    +0.000 F 
ATOM     35  F   UNL     1       0.919   3.901  20.751  0.00  0.00    +0.000 F 
ATOM     36  F   UNL     1       2.797   2.805  20.636  0.00  0.00    +0.000 F 
ENDBRANCH   5  33
TORSDOF 6
ENDMDL
MODEL 3
REMARK VINA RESULT:      -9.6      1.381      1.852
REMARK  Name = 
REMARK  9 active torsions:
REMARK  status: ('A' for Active; 'I' for Inactive)
REMARK    1  A    between atoms: C_1  and  C_2
REMARK    2  A    between atoms: C_6  and  C_7
REMARK    3  A    between atoms: C_11  and  C_12
REMARK    4  A    between atoms: N_18  and  C_19
REMARK    5  A    between atoms: C_23  and  C_24
REMARK    6  A    between atoms: C_24  and  C_25
REMARK    7  A    between atoms: C_24  and  C_26
REMARK    8  A    between atoms: C_26  and  C_27
REMARK    9  A    between atoms: N_31  and  C_32
REMARK                            x       y       z     vdW  Elec       q    Type
REMARK                         _______ _______ _______ _____ _____    ______ ____
ROOT
ATOM      1  C   UNL     1       5.046   5.427  16.398  0.00  0.00    +0.000 A 
ATOM      2  C   UNL     1       4.474   6.682  16.606  0.00  0.00    +0.000 A 
ATOM      3  C   UNL     1       3.587   6.821  17.647  0.00  0.00    +0.000 A 
ATOM      4  C   UNL     1       3.218   5.768  18.472  0.00  0.00    +0.000 A 
ATOM      5  C   UNL     1       3.708   4.488  18.249  0.00  0.00    +0.000 A 
ATOM      6  C   UNL     1       4.633   4.334  17.198  0.00  0.00    +0.000 A 
ATOM      7  C   UNL     1       2.289   6.275  19.521  0.00  0.00    +0.000 C 
ATOM      8  N   UNL     1       2.160   7.690  19.212  0.00  0.00    +0.000 N 
ATOM      9  C   UNL     1       2.902   8.040  18.077  0.00  0.00    +0.000 C 
ATOM     10  O   UNL     1       3.037   9.095  17.493  0.00  0.00    +0.000 OA
ENDROOT
BRANCH   1  16
ATOM     11  C   UNL     1       4.828   3.794  13.578  0.00  0.00    +0.000 C 
ATOM     12  C   UNL     1       5.991   4.523  14.147  0.00  0.00    +0.000 A 
ATOM     13  C   UNL     1       7.231   4.680  13.568  0.00  0.00    +0.000 A 
ATOM     14  N   UNL     1       7.955   5.459  14.416  0.00  0.00    +0.000 N 
ATOM     15  N   UNL     1       7.280   5.831  15.511  0.00  0.00    +0.000 NA
ATOM     16  C   UNL     1       6.078   5.248  15.381  0.00  0.00    +0.000 A 
ATOM     17  H   UNL     1       8.910   5.784  14.307  0.00  0.00    +0.000 HD
ENDBRANCH   1  16
BRANCH   8  18
ATOM     18  C   UNL     1       1.297   8.533  19.941  0.00  0.00    +0.000 A 
ATOM     19  C   UNL     1       0.945   8.235  21.260  0.00  0.00    +0.000 A 
ATOM     20  C   UNL     1       0.125   9.089  21.988  0.00  0.00    +0.000 A 
ATOM     21  C   UNL     1      -0.377  10.247  21.400  0.00  0.00    +0.000 A 
ATOM     22  C   UNL     1      -0.058  10.576  20.076  0.00  0.00    +0.000 A 
ATOM     23  C   UNL     1       0.790   9.715  19.364  0.00  0.00    +0.000 A 
BRANCH  22  24
ATOM     24  C   UNL     1      -0.594  11.850  19.430  0.00  0.00    +0.000 C 
ATOM     25  C   UNL     1      -0.013  13.075  20.151  0.00  0.00    +0.000 C 
BRANCH  24  26
ATOM     26  C   UNL     1      -2.138  11.879  19.425  0.00  0.00    +0.000 C 
BRANCH  26  27
ATOM     27  C   UNL     1      -2.712  11.523  18.093  0.00  0.00    +0.000 A 
ATOM     28  N   UNL     1      -2.037  11.310  16.981  0.00  0.00    +0.000 NA
ATOM     29  N   UNL     1      -2.935  10.996  15.987  0.00  0.00    +0.000 NA
ATOM     30  C   UNL     1      -4.136  11.026  16.511  0.00  0.00    +0.000 A 
ATOM     31  N   UNL     1      -4.048  11.383  17.820  0.00  0.00    +0.000 N 
ATOM     32  C   UNL     1      -5.155  11.595  18.714  0.00  0.00    +0.000 C 
ENDBRANCH  26  27
ENDBRANCH  24  26
ENDBRANCH  22  24
ENDBRANCH   8  18
BRANCH   5  33
ATOM     33  C   UNL     1       3.284   3.305  19.074  0.00  0.00    +0.000 C 
ATOM     34  F   UNL     1       3.861   2.136  18.680  0.00  0.00    +0.000 F 
ATOM     35  F   UNL     1       3.603   3.449  20.389  0.00  0.00    +0.000 F 
ATOM     36  F   UNL     1       1.943   3.089  19.026  0.00  0.00    +0.000 F 
ENDBRANCH   5  33
TORSDOF 6
ENDMDL
MODEL 4
REMARK VINA RESULT:      -9.4      1.646      2.232
REMARK  Name = 
REMARK  9 active torsions:
REMARK  status: ('A' for Active; 'I' for Inactive)
REMARK    1  A    between atoms: C_1  and  C_2
REMARK    2  A    between atoms: C_6  and  C_7
REMARK    3  A    between atoms: C_11  and  C_12
REMARK    4  A    between atoms: N_18  and  C_19
REMARK    5  A    between atoms: C_23  and  C_24
REMARK    6  A    between atoms: C_24  and  C_25
REMARK    7  A    between atoms: C_24  and  C_26
REMARK    8  A    between atoms: C_26  and  C_27
REMARK    9  A    between atoms: N_31  and  C_32
REMARK                            x       y       z     vdW  Elec       q    Type
REMARK                         _______ _______ _______ _____ _____    ______ ____
ROOT
ATOM      1  C   UNL     1       4.167   5.767  17.574  0.00  0.00    +0.000 A 
ATOM      2  C   UNL     1       3.674   7.059  17.387  0.00  0.00    +0.000 A 
ATOM      3  C   UNL     1       2.765   7.541  18.299  0.00  0.00    +0.000 A 
ATOM      4  C   UNL     1       2.300   6.792  19.371  0.00  0.00    +0.000 A 
ATOM      5  C   UNL     1       2.710   5.476  19.546  0.00  0.00    +0.000 A 
ATOM      6  C   UNL     1       3.656   4.976  18.631  0.00  0.00    +0.000 A 
ATOM      7  C   UNL     1       1.374   7.629  20.184  0.00  0.00    +0.000 C 
ATOM      8  N   UNL     1       1.351   8.901  19.479  0.00  0.00    +0.000 N 
ATOM      9  C   UNL     1       2.151   8.868  18.329  0.00  0.00    +0.000 C 
ATOM     10  O   UNL     1       2.376   9.701  17.476  0.00  0.00    +0.000 OA
ENDROOT
BRANCH   1  16
ATOM     11  C   UNL     1       7.319   6.618  17.493  0.00  0.00    +0.000 C 
ATOM     12  C   UNL     1       6.598   5.624  16.657  0.00  0.00    +0.000 A 
ATOM     13  C   UNL     1       7.139   4.826  15.673  0.00  0.00    +0.000 A 
ATOM     14  N   UNL     1       6.128   4.040  15.216  0.00  0.00    +0.000 N 
ATOM     15  N   UNL     1       4.959   4.259  15.831  0.00  0.00    +0.000 NA
ATOM     16  C   UNL     1       5.217   5.247  16.703  0.00  0.00    +0.000 A 
ATOM     17  H   UNL     1       6.165   3.326  14.496  0.00  0.00    +0.000 HD
ENDBRANCH   1  16
BRANCH   8  18
ATOM     18  C   UNL     1       0.524   9.964  19.892  0.00  0.00    +0.000 A 
ATOM     19  C   UNL     1       0.933  10.844  20.899  0.00  0.00    +0.000 A 
ATOM     20  C   UNL     1       0.131  11.914  21.276  0.00  0.00    +0.000 A 
ATOM     21  C   UNL     1      -1.107  12.111  20.670  0.00  0.00    +0.000 A 
ATOM     22  C   UNL     1      -1.560  11.244  19.665  0.00  0.00    +0.000 A 
ATOM     23  C   UNL     1      -0.727  10.183  19.280  0.00  0.00    +0.000 A 
BRANCH  22  24
ATOM     24  C   UNL     1      -2.909  11.460  18.988  0.00  0.00    +0.000 C 
ATOM     25  C   UNL     1      -2.710  11.564  17.469  0.00  0.00    +0.000 C 
BRANCH  24  26
ATOM     26  C   UNL     1      -3.634  12.704  19.548  0.00  0.00    +0.000 C 
BRANCH  26  27
ATOM     27  C   UNL     1      -4.983  12.378  20.100  0.00  0.00    +0.000 A 
ATOM     28  N   UNL     1      -5.270  12.106  21.357  0.00  0.00    +0.000 NA
ATOM     29  N   UNL     1      -6.624  11.876  21.449  0.00  0.00    +0.000 NA
ATOM     30  C   UNL     1      -7.132  12.010  20.248  0.00  0.00    +0.000 A 
ATOM     31  N   UNL     1      -6.137  12.293  19.365  0.00  0.00    +0.000 N 
ATOM     32  C   UNL     1      -6.286  12.438  17.942  0.00  0.00    +0.000 C 
ENDBRANCH  26  27
ENDBRANCH  24  26
ENDBRANCH  22  24
ENDBRANCH   8  18
BRANCH   5  33
ATOM     33  C   UNL     1       2.181   4.606  20.652  0.00  0.00    +0.000 C 
ATOM     34  F   UNL     1       2.620   3.319  20.585  0.00  0.00    +0.000 F 
ATOM     35  F   UNL     1       2.544   5.056  21.884  0.00  0.00    +0.000 F 
ATOM     36  F   UNL     1       0.823   4.534  20.655  0.00  0.00    +0.000 F 
ENDBRANCH   5  33
TORSDOF 6
ENDMDL
MODEL 5
REMARK VINA RESULT:      -9.4      2.022      2.809
REMARK  Name = 
REMARK  9 active torsions:
REMARK  status: ('A' for Active; 'I' for Inactive)
REMARK    1  A    between atoms: C_1  and  C_2
REMARK    2  A    between atoms: C_6  and  C_7
REMARK    3  A    between atoms: C_11  and  C_12
REMARK    4  A    between atoms: N_18  and  C_19
REMARK    5  A    between atoms: C_23  and  C_24
REMARK    6  A    between atoms: C_24  and  C_25
REMARK    7  A    between atoms: C_24  and  C_26
REMARK    8  A    between atoms: C_26  and  C_27
REMARK    9  A    between atoms: N_31  and  C_32
REMARK                            x       y       z     vdW  Elec       q    Type
REMARK                         _______ _______ _______ _____ _____    ______ ____
ROOT
ATOM      1  C   UNL     1       4.065   5.347  17.754  0.00  0.00    +0.000 A 
ATOM      2  C   UNL     1       3.574   6.653  17.789  0.00  0.00    +0.000 A 
ATOM      3  C   UNL     1       2.722   6.995  18.812  0.00  0.00    +0.000 A 
ATOM      4  C   UNL     1       2.311   6.095  19.786  0.00  0.00    +0.000 A 
ATOM      5  C   UNL     1       2.718   4.768  19.741  0.00  0.00    +0.000 A 
ATOM      6  C   UNL     1       3.606   4.408  18.709  0.00  0.00    +0.000 A 
ATOM      7  C   UNL     1       1.439   6.803  20.765  0.00  0.00    +0.000 C 
ATOM      8  N   UNL     1       1.389   8.165  20.258  0.00  0.00    +0.000 N 
ATOM      9  C   UNL     1       2.122   8.303  19.073  0.00  0.00    +0.000 C 
ATOM     10  O   UNL     1       2.307   9.253  18.341  0.00  0.00    +0.000 OA
ENDROOT
BRANCH   1  16
ATOM     11  C   UNL     1       7.126   6.442  17.437  0.00  0.00    +0.000 C 
ATOM     12  C   UNL     1       6.399   5.446  16.608  0.00  0.00    +0.000 A 
ATOM     13  C   UNL     1       6.898   4.751  15.528  0.00  0.00    +0.000 A 
ATOM     14  N   UNL     1       5.905   3.918  15.116  0.00  0.00    +0.000 N 
ATOM     15  N   UNL     1       4.789   4.010  15.850  0.00  0.00    +0.000 NA
ATOM     16  C   UNL     1       5.059   4.961  16.757  0.00  0.00    +0.000 A 
ATOM     17  H   UNL     1       5.923   3.252  14.350  0.00  0.00    +0.000 HD
ENDBRANCH   1  16
BRANCH   8  18
ATOM     18  C   UNL     1       0.596   9.156  20.871  0.00  0.00    +0.000 A 
ATOM     19  C   UNL     1       0.272   9.081  22.229  0.00  0.00    +0.000 A 
ATOM     20  C   UNL     1      -0.477  10.080  22.838  0.00  0.00    +0.000 A 
ATOM     21  C   UNL     1      -0.937  11.163  22.094  0.00  0.00    +0.000 A 
ATOM     22  C   UNL     1      -0.645  11.270  20.727  0.00  0.00    +0.000 A 
ATOM     23  C   UNL     1       0.132  10.265  20.134  0.00  0.00    +0.000 A 
BRANCH  22  24
ATOM     24  C   UNL     1      -1.135  12.460  19.909  0.00  0.00    +0.000 C 
ATOM     25  C   UNL     1      -2.654  12.355  19.709  0.00  0.00    +0.000 C 
BRANCH  24  26
ATOM     26  C   UNL     1      -0.395  12.565  18.557  0.00  0.00    +0.000 C 
BRANCH  26  27
ATOM     27  C   UNL     1       0.846  13.390  18.648  0.00  0.00    +0.000 A 
ATOM     28  N   UNL     1       2.086  12.943  18.656  0.00  0.00    +0.000 NA
ATOM     29  N   UNL     1       2.933  14.024  18.738  0.00  0.00    +0.000 NA
ATOM     30  C   UNL     1       2.194  15.106  18.780  0.00  0.00    +0.000 A 
ATOM     31  N   UNL     1       0.880  14.757  18.758  0.00  0.00    +0.000 N 
ATOM     32  C   UNL     1      -0.236  15.658  18.863  0.00  0.00    +0.000 C 
ENDBRANCH  26  27
ENDBRANCH  24  26
ENDBRANCH  22  24
ENDBRANCH   8  18
BRANCH   5  33
ATOM     33  C   UNL     1       2.244   3.743  20.733  0.00  0.00    +0.000 C 
ATOM     34  F   UNL     1       2.488   4.090  22.027  0.00  0.00    +0.000 F 
ATOM     35  F   UNL     1       0.902   3.529  20.656  0.00  0.00    +0.000 F 
ATOM     36  F   UNL     1       2.836   2.532  20.557  0.00  0.00    +0.000 F 
ENDBRANCH   5  33
TORSDOF 6
ENDMDL
MODEL 6
REMARK VINA RESULT:      -9.3      2.372      3.222
REMARK  Name = 
REMARK  9 active torsions:
REMARK  status: ('A' for Active; 'I' for Inactive)
REMARK    1  A    between atoms: C_1  and  C_2
REMARK    2  A    between atoms: C_6  and  C_7
REMARK    3  A    between atoms: C_11  and  C_12
REMARK    4  A    between atoms: N_18  and  C_19
REMARK    5  A    between atoms: C_23  and  C_24
REMARK    6  A    between atoms: C_24  and  C_25
REMARK    7  A    between atoms: C_24  and  C_26
REMARK    8  A    between atoms: C_26  and  C_27
REMARK    9  A    between atoms: N_31  and  C_32
REMARK                            x       y       z     vdW  Elec       q    Type
REMARK                         _______ _______ _______ _____ _____    ______ ____
ROOT
ATOM      1  C   UNL     1       4.024   5.333  17.825  0.00  0.00    +0.000 A 
ATOM      2  C   UNL     1       3.537   6.640  17.858  0.00  0.00    +0.000 A 
ATOM      3  C   UNL     1       2.678   6.983  18.874  0.00  0.00    +0.000 A 
ATOM      4  C   UNL     1       2.256   6.083  19.843  0.00  0.00    +0.000 A 
ATOM      5  C   UNL     1       2.659   4.754  19.799  0.00  0.00    +0.000 A 
ATOM      6  C   UNL     1       3.555   4.394  18.774  0.00  0.00    +0.000 A 
ATOM      7  C   UNL     1       1.378   6.792  20.817  0.00  0.00    +0.000 C 
ATOM      8  N   UNL     1       1.336   8.155  20.312  0.00  0.00    +0.000 N 
ATOM      9  C   UNL     1       2.079   8.292  19.133  0.00  0.00    +0.000 C 
ATOM     10  O   UNL     1       2.272   9.243  18.404  0.00  0.00    +0.000 OA
ENDROOT
BRANCH   1  16
ATOM     11  C   UNL     1       7.078   6.449  17.510  0.00  0.00    +0.000 C 
ATOM     12  C   UNL     1       6.362   5.440  16.687  0.00  0.00    +0.000 A 
ATOM     13  C   UNL     1       6.870   4.739  15.615  0.00  0.00    +0.000 A 
ATOM     14  N   UNL     1       5.886   3.894  15.207  0.00  0.00    +0.000 N 
ATOM     15  N   UNL     1       4.766   3.984  15.935  0.00  0.00    +0.000 NA
ATOM     16  C   UNL     1       5.026   4.946  16.835  0.00  0.00    +0.000 A 
ATOM     17  H   UNL     1       5.912   3.222  14.447  0.00  0.00    +0.000 HD
ENDBRANCH   1  16
BRANCH   8  18
ATOM     18  C   UNL     1       0.540   9.147  20.920  0.00  0.00    +0.000 A 
ATOM     19  C   UNL     1       0.141   9.030  22.254  0.00  0.00    +0.000 A 
ATOM     20  C   UNL     1      -0.610  10.029  22.861  0.00  0.00    +0.000 A 
ATOM     21  C   UNL     1      -0.996  11.154  22.137  0.00  0.00    +0.000 A 
ATOM     22  C   UNL     1      -0.626  11.304  20.793  0.00  0.00    +0.000 A 
ATOM     23  C   UNL     1       0.152  10.297  20.203  0.00  0.00    +0.000 A 
BRANCH  22  24
ATOM     24  C   UNL     1      -1.034  12.539  19.997  0.00  0.00    +0.000 C 
ATOM     25  C   UNL     1      -0.500  12.424  18.562  0.00  0.00    +0.000 C 
BRANCH  24  26
ATOM     26  C   UNL     1      -0.550  13.839  20.676  0.00  0.00    +0.000 C 
BRANCH  26  27
ATOM     27  C   UNL     1       0.939  13.960  20.683  0.00  0.00    +0.000 A 
ATOM     28  N   UNL     1       1.774  13.307  21.467  0.00  0.00    +0.000 NA
ATOM     29  N   UNL     1       3.055  13.693  21.147  0.00  0.00    +0.000 NA
ATOM     30  C   UNL     1       2.975  14.573  20.178  0.00  0.00    +0.000 A 
ATOM     31  N   UNL     1       1.668  14.795  19.877  0.00  0.00    +0.000 N 
ATOM     32  C   UNL     1       1.171  15.747  18.920  0.00  0.00    +0.000 C 
ENDBRANCH  26  27
ENDBRANCH  24  26
ENDBRANCH  22  24
ENDBRANCH   8  18
BRANCH   5  33
ATOM     33  C   UNL     1       2.174   3.730  20.787  0.00  0.00    +0.000 C 
ATOM     34  F   UNL     1       2.717   2.496  20.596  0.00  0.00    +0.000 F 
ATOM     35  F   UNL     1       2.468   4.068  22.072  0.00  0.00    +0.000 F 
ATOM     36  F   UNL     1       0.827   3.552  20.735  0.00  0.00    +0.000 F 
ENDBRANCH   5  33
TORSDOF 6
ENDMDL
MODEL 7
REMARK VINA RESULT:      -9.3      2.251      3.293
REMARK  Name = 
REMARK  9 active torsions:
REMARK  status: ('A' for Active; 'I' for Inactive)
REMARK    1  A    between atoms: C_1  and  C_2
REMARK    2  A    between atoms: C_6  and  C_7
REMARK    3  A    between atoms: C_11  and  C_12
REMARK    4  A    between atoms: N_18  and  C_19
REMARK    5  A    between atoms: C_23  and  C_24
REMARK    6  A    between atoms: C_24  and  C_25
REMARK    7  A    between atoms: C_24  and  C_26
REMARK    8  A    between atoms: C_26  and  C_27
REMARK    9  A    between atoms: N_31  and  C_32
REMARK                            x       y       z     vdW  Elec       q    Type
REMARK                         _______ _______ _______ _____ _____    ______ ____
ROOT
ATOM      1  C   UNL     1       4.204   5.156  17.572  0.00  0.00    +0.000 A 
ATOM      2  C   UNL     1       3.728   6.465  17.647  0.00  0.00    +0.000 A 
ATOM      3  C   UNL     1       2.880   6.784  18.681  0.00  0.00    +0.000 A 
ATOM      4  C   UNL     1       2.460   5.859  19.627  0.00  0.00    +0.000 A 
ATOM      5  C   UNL     1       2.852   4.529  19.540  0.00  0.00    +0.000 A 
ATOM      6  C   UNL     1       3.736   4.192  18.497  0.00  0.00    +0.000 A 
ATOM      7  C   UNL     1       1.596   6.545  20.629  0.00  0.00    +0.000 C 
ATOM      8  N   UNL     1       1.560   7.923  20.164  0.00  0.00    +0.000 N 
ATOM      9  C   UNL     1       2.294   8.090  18.983  0.00  0.00    +0.000 C 
ATOM     10  O   UNL     1       2.488   9.060  18.281  0.00  0.00    +0.000 OA
ENDROOT
BRANCH   1  16
ATOM     11  C   UNL     1       7.452   5.028  17.894  0.00  0.00    +0.000 C 
ATOM     12  C   UNL     1       6.620   4.743  16.696  0.00  0.00    +0.000 A 
ATOM     13  C   UNL     1       7.067   4.331  15.459  0.00  0.00    +0.000 A 
ATOM     14  N   UNL     1       5.960   4.143  14.694  0.00  0.00    +0.000 N 
ATOM     15  N   UNL     1       4.813   4.395  15.338  0.00  0.00    +0.000 NA
ATOM     16  C   UNL     1       5.194   4.790  16.563  0.00  0.00    +0.000 A 
ATOM     17  H   UNL     1       5.910   3.832  13.729  0.00  0.00    +0.000 HD
ENDBRANCH   1  16
BRANCH   8  18
ATOM     18  C   UNL     1       0.777   8.903  20.808  0.00  0.00    +0.000 A 
ATOM     19  C   UNL     1       0.459   8.791  22.165  0.00  0.00    +0.000 A 
ATOM     20  C   UNL     1      -0.279   9.779  22.805  0.00  0.00    +0.000 A 
ATOM     21  C   UNL     1      -0.733  10.887  22.094  0.00  0.00    +0.000 A 
ATOM     22  C   UNL     1      -0.446  11.031  20.729  0.00  0.00    +0.000 A 
ATOM     23  C   UNL     1       0.321  10.036  20.104  0.00  0.00    +0.000 A 
BRANCH  22  24
ATOM     24  C   UNL     1      -0.928  12.247  19.947  0.00  0.00    +0.000 C 
ATOM     25  C   UNL     1      -1.867  11.794  18.819  0.00  0.00    +0.000 C 
BRANCH  24  26
ATOM     26  C   UNL     1       0.254  13.076  19.397  0.00  0.00    +0.000 C 
BRANCH  26  27
ATOM     27  C   UNL     1       0.943  13.864  20.463  0.00  0.00    +0.000 A 
ATOM     28  N   UNL     1       1.941  13.453  21.219  0.00  0.00    +0.000 NA
ATOM     29  N   UNL     1       2.294  14.482  22.061  0.00  0.00    +0.000 NA
ATOM     30  C   UNL     1       1.505  15.496  21.803  0.00  0.00    +0.000 A 
ATOM     31  N   UNL     1       0.621  15.145  20.831  0.00  0.00    +0.000 N 
ATOM     32  C   UNL     1      -0.450  15.962  20.327  0.00  0.00    +0.000 C 
ENDBRANCH  26  27
ENDBRANCH  24  26
ENDBRANCH  22  24
ENDBRANCH   8  18
BRANCH   5  33
ATOM     33  C   UNL     1       2.367   3.479  20.501  0.00  0.00    +0.000 C 
ATOM     34  F   UNL     1       2.544   3.819  21.808  0.00  0.00    +0.000 F 
ATOM     35  F   UNL     1       1.038   3.224  20.363  0.00  0.00    +0.000 F 
ATOM     36  F   UNL     1       3.004   2.289  20.339  0.00  0.00    +0.000 F 
ENDBRANCH   5  33
TORSDOF 6
ENDMDL
MODEL 8
REMARK VINA RESULT:      -9.2      2.864      3.957
REMARK  Name = 
REMARK  9 active torsions:
REMARK  status: ('A' for Active; 'I' for Inactive)
REMARK    1  A    between atoms: C_1  and  C_2
REMARK    2  A    between atoms: C_6  and  C_7
REMARK    3  A    between atoms: C_11  and  C_12
REMARK    4  A    between atoms: N_18  and  C_19
REMARK    5  A    between atoms: C_23  and  C_24
REMARK    6  A    between atoms: C_24  and  C_25
REMARK    7  A    between atoms: C_24  and  C_26
REMARK    8  A    between atoms: C_26  and  C_27
REMARK    9  A    between atoms: N_31  and  C_32
REMARK                            x       y       z     vdW  Elec       q    Type
REMARK                         _______ _______ _______ _____ _____    ______ ____
ROOT
ATOM      1  C   UNL     1       4.647   5.471  17.808  0.00  0.00    +0.000 A 
ATOM      2  C   UNL     1       4.144   6.735  17.498  0.00  0.00    +0.000 A 
ATOM      3  C   UNL     1       3.094   7.212  18.247  0.00  0.00    +0.000 A 
ATOM      4  C   UNL     1       2.501   6.484  19.268  0.00  0.00    +0.000 A 
ATOM      5  C   UNL     1       2.924   5.192  19.555  0.00  0.00    +0.000 A 
ATOM      6  C   UNL     1       4.012   4.698  18.809  0.00  0.00    +0.000 A 
ATOM      7  C   UNL     1       1.437   7.311  19.903  0.00  0.00    +0.000 C 
ATOM      8  N   UNL     1       1.476   8.556  19.151  0.00  0.00    +0.000 N 
ATOM      9  C   UNL     1       2.437   8.514  18.133  0.00  0.00    +0.000 C 
ATOM     10  O   UNL     1       2.758   9.325  17.289  0.00  0.00    +0.000 OA
ENDROOT
BRANCH   1  16
ATOM     11  C   UNL     1       4.964   4.694  14.651  0.00  0.00    +0.000 C 
ATOM     12  C   UNL     1       5.971   4.610  15.740  0.00  0.00    +0.000 A 
ATOM     13  C   UNL     1       7.282   4.200  15.622  0.00  0.00    +0.000 A 
ATOM     14  N   UNL     1       7.839   4.335  16.854  0.00  0.00    +0.000 N 
ATOM     15  N   UNL     1       6.992   4.810  17.777  0.00  0.00    +0.000 NA
ATOM     16  C   UNL     1       5.831   4.962  17.122  0.00  0.00    +0.000 A 
ATOM     17  H   UNL     1       8.793   4.134  17.136  0.00  0.00    +0.000 HD
ENDBRANCH   1  16
BRANCH   8  18
ATOM     18  C   UNL     1       0.561   9.600  19.396  0.00  0.00    +0.000 A 
ATOM     19  C   UNL     1      -0.151  10.193  18.349  0.00  0.00    +0.000 A 
ATOM     20  C   UNL     1      -1.080  11.195  18.599  0.00  0.00    +0.000 A 
ATOM     21  C   UNL     1      -1.298  11.639  19.901  0.00  0.00    +0.000 A 
ATOM     22  C   UNL     1      -0.596  11.079  20.977  0.00  0.00    +0.000 A 
ATOM     23  C   UNL     1       0.321  10.052  20.709  0.00  0.00    +0.000 A 
BRANCH  22  24
ATOM     24  C   UNL     1      -0.839  11.552  22.407  0.00  0.00    +0.000 C 
ATOM     25  C   UNL     1      -0.963  10.335  23.335  0.00  0.00    +0.000 C 
BRANCH  24  26
ATOM     26  C   UNL     1      -2.084  12.461  22.501  0.00  0.00    +0.000 C 
BRANCH  26  27
ATOM     27  C   UNL     1      -1.886  13.604  23.443  0.00  0.00    +0.000 A 
ATOM     28  N   UNL     1      -0.732  14.109  23.830  0.00  0.00    +0.000 NA
ATOM     29  N   UNL     1      -0.985  15.156  24.686  0.00  0.00    +0.000 NA
ATOM     30  C   UNL     1      -2.286  15.267  24.804  0.00  0.00    +0.000 A 
ATOM     31  N   UNL     1      -2.891  14.296  24.068  0.00  0.00    +0.000 N 
ATOM     32  C   UNL     1      -4.305  14.044  24.002  0.00  0.00    +0.000 C 
ENDBRANCH  26  27
ENDBRANCH  24  26
ENDBRANCH  22  24
ENDBRANCH   8  18
BRANCH   5  33
ATOM     33  C   UNL     1       2.267   4.341  20.605  0.00  0.00    +0.000 C 
ATOM     34  F   UNL     1       0.926   4.197  20.424  0.00  0.00    +0.000 F 
ATOM     35  F   UNL     1       2.772   3.077  20.639  0.00  0.00    +0.000 F 
ATOM     36  F   UNL     1       2.419   4.848  21.858  0.00  0.00    +0.000 F 
ENDBRANCH   5  33
TORSDOF 6
ENDMDL
MODEL 9
REMARK VINA RESULT:      -9.2      1.782      2.826
REMARK  Name = 
REMARK  9 active torsions:
REMARK  status: ('A' for Active; 'I' for Inactive)
REMARK    1  A    between atoms: C_1  and  C_2
REMARK    2  A    between atoms: C_6  and  C_7
REMARK    3  A    between atoms: C_11  and  C_12
REMARK    4  A    between atoms: N_18  and  C_19
REMARK    5  A    between atoms: C_23  and  C_24
REMARK    6  A    between atoms: C_24  and  C_25
REMARK    7  A    between atoms: C_24  and  C_26
REMARK    8  A    between atoms: C_26  and  C_27
REMARK    9  A    between atoms: N_31  and  C_32
REMARK                            x       y       z     vdW  Elec       q    Type
REMARK                         _______ _______ _______ _____ _____    ______ ____
ROOT
ATOM      1  C   UNL     1       4.163   5.248  17.717  0.00  0.00    +0.000 A 
ATOM      2  C   UNL     1       3.680   6.557  17.692  0.00  0.00    +0.000 A 
ATOM      3  C   UNL     1       2.808   6.941  18.683  0.00  0.00    +0.000 A 
ATOM      4  C   UNL     1       2.369   6.081  19.680  0.00  0.00    +0.000 A 
ATOM      5  C   UNL     1       2.769   4.750  19.693  0.00  0.00    +0.000 A 
ATOM      6  C   UNL     1       3.678   4.348  18.696  0.00  0.00    +0.000 A 
ATOM      7  C   UNL     1       1.481   6.830  20.613  0.00  0.00    +0.000 C 
ATOM      8  N   UNL     1       1.450   8.172  20.054  0.00  0.00    +0.000 N 
ATOM      9  C   UNL     1       2.210   8.262  18.881  0.00  0.00    +0.000 C 
ATOM     10  O   UNL     1       2.417   9.183  18.119  0.00  0.00    +0.000 OA
ENDROOT
BRANCH   1  16
ATOM     11  C   UNL     1       7.411   5.330  18.053  0.00  0.00    +0.000 C 
ATOM     12  C   UNL     1       6.603   4.863  16.896  0.00  0.00    +0.000 A 
ATOM     13  C   UNL     1       7.078   4.335  15.716  0.00  0.00    +0.000 A 
ATOM     14  N   UNL     1       5.987   4.000  14.978  0.00  0.00    +0.000 N 
ATOM     15  N   UNL     1       4.825   4.264  15.588  0.00  0.00    +0.000 NA
ATOM     16  C   UNL     1       5.177   4.819  16.758  0.00  0.00    +0.000 A 
ATOM     17  H   UNL     1       5.960   3.576  14.056  0.00  0.00    +0.000 HD
ENDBRANCH   1  16
BRANCH   8  18
ATOM     18  C   UNL     1       0.650   9.190  20.612  0.00  0.00    +0.000 A 
ATOM     19  C   UNL     1       0.551   9.349  21.998  0.00  0.00    +0.000 A 
ATOM     20  C   UNL     1      -0.208  10.377  22.542  0.00  0.00    +0.000 A 
ATOM     21  C   UNL     1      -0.902  11.252  21.711  0.00  0.00    +0.000 A 
ATOM     22  C   UNL     1      -0.839  11.120  20.317  0.00  0.00    +0.000 A 
ATOM     23  C   UNL     1      -0.049  10.091  19.783  0.00  0.00    +0.000 A 
BRANCH  22  24
ATOM     24  C   UNL     1      -1.586  12.083  19.400  0.00  0.00    +0.000 C 
ATOM     25  C   UNL     1      -1.592  11.528  17.969  0.00  0.00    +0.000 C 
BRANCH  24  26
ATOM     26  C   UNL     1      -0.980  13.503  19.452  0.00  0.00    +0.000 C 
BRANCH  26  27
ATOM     27  C   UNL     1       0.508  13.494  19.328  0.00  0.00    +0.000 A 
ATOM     28  N   UNL     1       1.205  13.084  18.287  0.00  0.00    +0.000 NA
ATOM     29  N   UNL     1       2.541  13.253  18.570  0.00  0.00    +0.000 NA
ATOM     30  C   UNL     1       2.631  13.761  19.776  0.00  0.00    +0.000 A 
ATOM     31  N   UNL     1       1.384  13.899  20.302  0.00  0.00    +0.000 N 
ATOM     32  C   UNL     1       1.073  14.352  21.630  0.00  0.00    +0.000 C 
ENDBRANCH  26  27
ENDBRANCH  24  26
ENDBRANCH  22  24
ENDBRANCH   8  18
BRANCH   5  33
ATOM     33  C   UNL     1       2.266   3.766  20.713  0.00  0.00    +0.000 C 
ATOM     34  F   UNL     1       2.796   2.521  20.569  0.00  0.00    +0.000 F 
ATOM     35  F   UNL     1       2.555   4.146  21.987  0.00  0.00    +0.000 F 
ATOM     36  F   UNL     1       0.917   3.602  20.659  0.00  0.00    +0.000 F 
ENDBRANCH   5  33
TORSDOF 6
ENDMDL
