MODEL 1
REMARK VINA RESULT:      -9.7      0.000      0.000
REMARK  Name = 
REMARK  8 active torsions:
REMARK  status: ('A' for Active; 'I' for Inactive)
REMARK    1  A    between atoms: C_1  and  N_2
REMARK    2  A    between atoms: C_6  and  C_7
REMARK    3  A    between atoms: C_7  and  C_9
REMARK    4  A    between atoms: C_9  and  C_10
REMARK    5  A    between atoms: C_9  and  C_12
REMARK    6  A    between atoms: C_16  and  N_17
REMARK    7  A    between atoms: C_22  and  C_23
REMARK    8  A    between atoms: C_27  and  C_28
REMARK                            x       y       z     vdW  Elec       q    Type
REMARK                         _______ _______ _______ _____ _____    ______ ____
ROOT
ATOM      1  C   UNL     1       5.122   5.373  19.008  0.00  0.00    +0.000 A 
ATOM      2  C   UNL     1       4.587   4.127  19.338  0.00  0.00    +0.000 A 
ATOM      3  C   UNL     1       3.247   4.018  19.734  0.00  0.00    +0.000 A 
ATOM      4  C   UNL     1       2.411   5.147  19.797  0.00  0.00    +0.000 A 
ATOM      5  C   UNL     1       2.916   6.406  19.489  0.00  0.00    +0.000 A 
ATOM      6  C   UNL     1       4.279   6.488  19.125  0.00  0.00    +0.000 A 
ENDROOT
BRANCH   5   7
ATOM      7  N   UNL     1       2.133   7.594  19.488  0.00  0.00    +0.000 N 
ATOM      8  C   UNL     1       1.412   7.953  20.688  0.00  0.00    +0.000 C 
ATOM      9  C   UNL     1       0.794   9.261  20.370  0.00  0.00    +0.000 A 
ATOM     10  C   UNL     1       1.093   9.625  19.065  0.00  0.00    +0.000 A 
ATOM     11  C   UNL     1       0.607  10.810  18.531  0.00  0.00    +0.000 A 
ATOM     12  C   UNL     1      -0.200  11.648  19.335  0.00  0.00    +0.000 A 
ATOM     13  C   UNL     1      -0.456  11.253  20.673  0.00  0.00    +0.000 A 
ATOM     14  C   UNL     1       0.029  10.057  21.213  0.00  0.00    +0.000 A 
ATOM     15  C   UNL     1       1.965   8.560  18.485  0.00  0.00    +0.000 C 
ATOM     16  O   UNL     1       2.413   8.609  17.355  0.00  0.00    +0.000 OA
BRANCH  14  17
ATOM     17  C   UNL     1      -0.264   9.672  22.640  0.00  0.00    +0.000 C 
ATOM     18  F   UNL     1      -0.959   8.507  22.765  0.00  0.00    +0.000 F 
ATOM     19  F   UNL     1       0.870   9.499  23.371  0.00  0.00    +0.000 F 
ATOM     20  F   UNL     1      -0.999  10.612  23.293  0.00  0.00    +0.000 F 
ENDBRANCH  14  17
BRANCH  12  21
ATOM     21  C   UNL     1      -0.765  12.960  18.830  0.00  0.00    +0.000 C 
ATOM     22  C   UNL     1      -1.068  14.088  19.785  0.00  0.00    +0.000 C 
ATOM     23  C   UNL     1       0.099  14.208  18.855  0.00  0.00    +0.000 C 
ENDBRANCH  12  21
ENDBRANCH   5   7
BRANCH   1  24
ATOM     24  C   UNL     1       6.540   5.588  18.469  0.00  0.00    +0.000 C 
ATOM     25  C   UNL     1       6.591   6.890  17.658  0.00  0.00    +0.000 C 
ATOM     26  F   UNL     1       7.436   5.808  19.495  0.00  0.00    +0.000 F 
BRANCH  24  27
ATOM     27  C   UNL     1       7.092   4.420  17.622  0.00  0.00    +0.000 C 
ATOM     28  F   UNL     1       8.420   4.242  17.887  0.00  0.00    +0.000 F 
BRANCH  27  34
ATOM     29  C   UNL     1       4.506   3.592  16.058  0.00  0.00    +0.000 C 
ATOM     30  N   UNL     1       5.685   4.198  15.504  0.00  0.00    +0.000 N 
ATOM     31  C   UNL     1       5.860   4.546  14.200  0.00  0.00    +0.000 A 
ATOM     32  N   UNL     1       7.028   5.124  14.054  0.00  0.00    +0.000 NA
ATOM     33  N   UNL     1       7.631   5.156  15.285  0.00  0.00    +0.000 NA
ATOM     34  C   UNL     1       6.827   4.577  16.160  0.00  0.00    +0.000 A 
ENDBRANCH  27  34
ENDBRANCH  24  27
ENDBRANCH   1  24
TORSDOF 6
ENDMDL
MODEL 2
REMARK VINA RESULT:      -9.6      1.562      2.382
REMARK  Name = 
REMARK  8 active torsions:
REMARK  status: ('A' for Active; 'I' for Inactive)
REMARK    1  A    between atoms: C_1  and  N_2
REMARK    2  A    between atoms: C_6  and  C_7
REMARK    3  A    between atoms: C_7  and  C_9
REMARK    4  A    between atoms: C_9  and  C_10
REMARK    5  A    between atoms: C_9  and  C_12
REMARK    6  A    between atoms: C_16  and  N_17
REMARK    7  A    between atoms: C_22  and  C_23
REMARK    8  A    between atoms: C_27  and  C_28
REMARK                            x       y       z     vdW  Elec       q    Type
REMARK                         _______ _______ _______ _____ _____    ______ ____
ROOT
ATOM      1  C   UNL     1       4.572   5.366  17.727  0.00  0.00    +0.000 A 
ATOM      2  C   UNL     1       4.501   4.313  18.640  0.00  0.00    +0.000 A 
ATOM      3  C   UNL     1       3.661   4.407  19.760  0.00  0.00    +0.000 A 
ATOM      4  C   UNL     1       2.867   5.546  19.982  0.00  0.00    +0.000 A 
ATOM      5  C   UNL     1       2.924   6.619  19.099  0.00  0.00    +0.000 A 
ATOM      6  C   UNL     1       3.804   6.509  17.999  0.00  0.00    +0.000 A 
ENDROOT
BRANCH   5   7
ATOM      7  N   UNL     1       2.128   7.791  19.226  0.00  0.00    +0.000 N 
ATOM      8  C   UNL     1       1.453   8.042  20.480  0.00  0.00    +0.000 C 
ATOM      9  C   UNL     1       0.808   9.361  20.294  0.00  0.00    +0.000 A 
ATOM     10  C   UNL     1       1.048   9.834  19.012  0.00  0.00    +0.000 A 
ATOM     11  C   UNL     1       0.526  11.051  18.596  0.00  0.00    +0.000 A 
ATOM     12  C   UNL     1      -0.257  11.809  19.498  0.00  0.00    +0.000 A 
ATOM     13  C   UNL     1      -0.452  11.303  20.809  0.00  0.00    +0.000 A 
ATOM     14  C   UNL     1       0.069  10.075  21.229  0.00  0.00    +0.000 A 
ATOM     15  C   UNL     1       1.908   8.832  18.313  0.00  0.00    +0.000 C 
ATOM     16  O   UNL     1       2.308   8.979  17.174  0.00  0.00    +0.000 OA
BRANCH  14  17
ATOM     17  C   UNL     1      -0.161   9.572  22.631  0.00  0.00    +0.000 C 
ATOM     18  F   UNL     1       0.987   9.300  23.314  0.00  0.00    +0.000 F 
ATOM     19  F   UNL     1      -0.835  10.471  23.398  0.00  0.00    +0.000 F 
ATOM     20  F   UNL     1      -0.887   8.423  22.661  0.00  0.00    +0.000 F 
ENDBRANCH  14  17
BRANCH  12  21
ATOM     21  C   UNL     1      -0.857  13.149  19.124  0.00  0.00    +0.000 C 
ATOM     22  C   UNL     1      -1.081  14.212  20.171  0.00  0.00    +0.000 C 
ATOM     23  C   UNL     1       0.009  14.395  19.161  0.00  0.00    +0.000 C 
ENDBRANCH  12  21
ENDBRANCH   5   7
BRANCH   1  24
ATOM     24  C   UNL     1       5.377   5.326  16.425  0.00  0.00    +0.000 C 
ATOM     25  C   UNL     1       4.958   4.105  15.597  0.00  0.00    +0.000 C 
ATOM     26  F   UNL     1       5.064   6.396  15.610  0.00  0.00    +0.000 F 
BRANCH  24  27
ATOM     27  C   UNL     1       6.911   5.330  16.615  0.00  0.00    +0.000 C 
ATOM     28  F   UNL     1       7.305   4.175  17.230  0.00  0.00    +0.000 F 
BRANCH  27  34
ATOM     29  C   UNL     1       8.043   5.491  19.532  0.00  0.00    +0.000 C 
ATOM     30  N   UNL     1       7.897   6.582  18.608  0.00  0.00    +0.000 N 
ATOM     31  C   UNL     1       8.261   7.873  18.840  0.00  0.00    +0.000 A 
ATOM     32  N   UNL     1       8.038   8.591  17.767  0.00  0.00    +0.000 NA
ATOM     33  N   UNL     1       7.517   7.756  16.812  0.00  0.00    +0.000 NA
ATOM     34  C   UNL     1       7.412   6.544  17.326  0.00  0.00    +0.000 A 
ENDBRANCH  27  34
ENDBRANCH  24  27
ENDBRANCH   1  24
TORSDOF 6
ENDMDL
MODEL 3
REMARK VINA RESULT:      -9.3      1.629      2.466
REMARK  Name = 
REMARK  8 active torsions:
REMARK  status: ('A' for Active; 'I' for Inactive)
REMARK    1  A    between atoms: C_1  and  N_2
REMARK    2  A    between atoms: C_6  and  C_7
REMARK    3  A    between atoms: C_7  and  C_9
REMARK    4  A    between atoms: C_9  and  C_10
REMARK    5  A    between atoms: C_9  and  C_12
REMARK    6  A    between atoms: C_16  and  N_17
REMARK    7  A    between atoms: C_22  and  C_23
REMARK    8  A    between atoms: C_27  and  C_28
REMARK                            x       y       z     vdW  Elec       q    Type
REMARK                         _______ _______ _______ _____ _____    ______ ____
ROOT
ATOM      1  C   UNL     1       4.559   5.410  17.436  0.00  0.00    +0.000 A 
ATOM      2  C   UNL     1       4.510   4.331  18.320  0.00  0.00    +0.000 A 
ATOM      3  C   UNL     1       3.709   4.398  19.469  0.00  0.00    +0.000 A 
ATOM      4  C   UNL     1       2.933   5.535  19.751  0.00  0.00    +0.000 A 
ATOM      5  C   UNL     1       2.969   6.634  18.898  0.00  0.00    +0.000 A 
ATOM      6  C   UNL     1       3.811   6.550  17.767  0.00  0.00    +0.000 A 
ENDROOT
BRANCH   5   7
ATOM      7  N   UNL     1       2.187   7.807  19.087  0.00  0.00    +0.000 N 
ATOM      8  C   UNL     1       1.536   8.013  20.361  0.00  0.00    +0.000 C 
ATOM      9  C   UNL     1       0.902   9.346  20.239  0.00  0.00    +0.000 A 
ATOM     10  C   UNL     1       1.126   9.868  18.974  0.00  0.00    +0.000 A 
ATOM     11  C   UNL     1       0.610  11.106  18.617  0.00  0.00    +0.000 A 
ATOM     12  C   UNL     1      -0.150  11.834  19.562  0.00  0.00    +0.000 A 
ATOM     13  C   UNL     1      -0.329  11.278  20.854  0.00  0.00    +0.000 A 
ATOM     14  C   UNL     1       0.186  10.028  21.215  0.00  0.00    +0.000 A 
ATOM     15  C   UNL     1       1.963   8.887  18.220  0.00  0.00    +0.000 C 
ATOM     16  O   UNL     1       2.346   9.077  17.082  0.00  0.00    +0.000 OA
BRANCH  14  17
ATOM     17  C   UNL     1      -0.025   9.471  22.600  0.00  0.00    +0.000 C 
ATOM     18  F   UNL     1      -0.677  10.320  23.442  0.00  0.00    +0.000 F 
ATOM     19  F   UNL     1      -0.767   8.330  22.589  0.00  0.00    +0.000 F 
ATOM     20  F   UNL     1       1.144   9.160  23.221  0.00  0.00    +0.000 F 
ENDBRANCH  14  17
BRANCH  12  21
ATOM     21  C   UNL     1      -0.742  13.194  19.252  0.00  0.00    +0.000 C 
ATOM     22  C   UNL     1      -0.980  14.199  20.353  0.00  0.00    +0.000 C 
ATOM     23  C   UNL     1       0.125  14.434  19.370  0.00  0.00    +0.000 C 
ENDBRANCH  12  21
ENDBRANCH   5   7
BRANCH   1  24
ATOM     24  C   UNL     1       5.320   5.402  16.106  0.00  0.00    +0.000 C 
ATOM     25  C   UNL     1       4.680   4.385  15.152  0.00  0.00    +0.000 C 
ATOM     26  F   UNL     1       5.180   6.604  15.443  0.00  0.00    +0.000 F 
BRANCH  24  27
ATOM     27  C   UNL     1       6.835   5.123  16.232  0.00  0.00    +0.000 C 
ATOM     28  F   UNL     1       7.105   3.841  15.842  0.00  0.00    +0.000 F 
BRANCH  27  34
ATOM     29  C   UNL     1       7.484   7.939  17.444  0.00  0.00    +0.000 C 
ATOM     30  N   UNL     1       7.655   6.668  18.091  0.00  0.00    +0.000 N 
ATOM     31  C   UNL     1       8.103   6.478  19.362  0.00  0.00    +0.000 A 
ATOM     32  N   UNL     1       8.085   5.198  19.647  0.00  0.00    +0.000 NA
ATOM     33  N   UNL     1       7.617   4.535  18.542  0.00  0.00    +0.000 NA
ATOM     34  C   UNL     1       7.376   5.421  17.592  0.00  0.00    +0.000 A 
ENDBRANCH  27  34
ENDBRANCH  24  27
ENDBRANCH   1  24
TORSDOF 6
ENDMDL
MODEL 4
REMARK VINA RESULT:      -9.3      1.184      1.511
REMARK  Name = 
REMARK  8 active torsions:
REMARK  status: ('A' for Active; 'I' for Inactive)
REMARK    1  A    between atoms: C_1  and  N_2
REMARK    2  A    between atoms: C_6  and  C_7
REMARK    3  A    between atoms: C_7  and  C_9
REMARK    4  A    between atoms: C_9  and  C_10
REMARK    5  A    between atoms: C_9  and  C_12
REMARK    6  A    between atoms: C_16  and  N_17
REMARK    7  A    between atoms: C_22  and  C_23
REMARK    8  A    between atoms: C_27  and  C_28
REMARK                            x       y       z     vdW  Elec       q    Type
REMARK                         _______ _______ _______ _____ _____    ______ ____
ROOT
ATOM      1  C   UNL     1       4.557   5.808  17.599  0.00  0.00    +0.000 A 
ATOM      2  C   UNL     1       4.220   4.576  18.161  0.00  0.00    +0.000 A 
ATOM      3  C   UNL     1       3.137   4.479  19.047  0.00  0.00    +0.000 A 
ATOM      4  C   UNL     1       2.362   5.604  19.377  0.00  0.00    +0.000 A 
ATOM      5  C   UNL     1       2.679   6.850  18.845  0.00  0.00    +0.000 A 
ATOM      6  C   UNL     1       3.795   6.922  17.982  0.00  0.00    +0.000 A 
ENDROOT
BRANCH   5   7
ATOM      7  N   UNL     1       1.926   8.031  19.094  0.00  0.00    +0.000 N 
ATOM      8  C   UNL     1       1.297   8.197  20.385  0.00  0.00    +0.000 C 
ATOM      9  C   UNL     1       0.691   9.546  20.330  0.00  0.00    +0.000 A 
ATOM     10  C   UNL     1       0.910  10.117  19.085  0.00  0.00    +0.000 A 
ATOM     11  C   UNL     1       0.417  11.380  18.788  0.00  0.00    +0.000 A 
ATOM     12  C   UNL     1      -0.314  12.084  19.774  0.00  0.00    +0.000 A 
ATOM     13  C   UNL     1      -0.488  11.477  21.044  0.00  0.00    +0.000 A 
ATOM     14  C   UNL     1       0.004  10.202  21.344  0.00  0.00    +0.000 A 
ATOM     15  C   UNL     1       1.715   9.151  18.277  0.00  0.00    +0.000 C 
ATOM     16  O   UNL     1       2.086   9.381  17.143  0.00  0.00    +0.000 OA
BRANCH  14  17
ATOM     17  C   UNL     1      -0.201   9.591  22.706  0.00  0.00    +0.000 C 
ATOM     18  F   UNL     1       0.959   9.297  23.359  0.00  0.00    +0.000 F 
ATOM     19  F   UNL     1      -0.890  10.413  23.542  0.00  0.00    +0.000 F 
ATOM     20  F   UNL     1      -0.900   8.425  22.655  0.00  0.00    +0.000 F 
ENDBRANCH  14  17
BRANCH  12  21
ATOM     21  C   UNL     1      -0.879  13.468  19.531  0.00  0.00    +0.000 C 
ATOM     22  C   UNL     1      -0.306  14.671  20.241  0.00  0.00    +0.000 C 
ATOM     23  C   UNL     1      -0.054  14.494  18.776  0.00  0.00    +0.000 C 
ENDBRANCH  12  21
ENDBRANCH   5   7
BRANCH   1  24
ATOM     24  C   UNL     1       5.654   6.006  16.548  0.00  0.00    +0.000 C 
ATOM     25  C   UNL     1       5.113   6.857  15.392  0.00  0.00    +0.000 C 
ATOM     26  F   UNL     1       6.696   6.760  17.049  0.00  0.00    +0.000 F 
BRANCH  24  27
ATOM     27  C   UNL     1       6.261   4.696  15.996  0.00  0.00    +0.000 C 
ATOM     28  F   UNL     1       7.064   4.122  16.941  0.00  0.00    +0.000 F 
BRANCH  27  34
ATOM     29  C   UNL     1       5.452   3.518  13.208  0.00  0.00    +0.000 C 
ATOM     30  N   UNL     1       6.592   4.345  13.490  0.00  0.00    +0.000 N 
ATOM     31  C   UNL     1       7.500   4.783  12.576  0.00  0.00    +0.000 A 
ATOM     32  N   UNL     1       8.377   5.559  13.166  0.00  0.00    +0.000 NA
ATOM     33  N   UNL     1       8.038   5.631  14.493  0.00  0.00    +0.000 NA
ATOM     34  C   UNL     1       6.970   4.880  14.694  0.00  0.00    +0.000 A 
ENDBRANCH  27  34
ENDBRANCH  24  27
ENDBRANCH   1  24
TORSDOF 6
ENDMDL
MODEL 5
REMARK VINA RESULT:      -9.3      3.366      8.888
REMARK  Name = 
REMARK  8 active torsions:
REMARK  status: ('A' for Active; 'I' for Inactive)
REMARK    1  A    between atoms: C_1  and  N_2
REMARK    2  A    between atoms: C_6  and  C_7
REMARK    3  A    between atoms: C_7  and  C_9
REMARK    4  A    between atoms: C_9  and  C_10
REMARK    5  A    between atoms: C_9  and  C_12
REMARK    6  A    between atoms: C_16  and  N_17
REMARK    7  A    between atoms: C_22  and  C_23
REMARK    8  A    between atoms: C_27  and  C_28
REMARK                            x       y       z     vdW  Elec       q    Type
REMARK                         _______ _______ _______ _____ _____    ______ ____
ROOT
ATOM      1  C   UNL     1      -0.446  10.966  20.480  0.00  0.00    +0.000 A 
ATOM      2  C   UNL     1      -0.611  10.971  21.866  0.00  0.00    +0.000 A 
ATOM      3  C   UNL     1      -0.063   9.940  22.644  0.00  0.00    +0.000 A 
ATOM      4  C   UNL     1       0.670   8.895  22.056  0.00  0.00    +0.000 A 
ATOM      5  C   UNL     1       0.842   8.852  20.676  0.00  0.00    +0.000 A 
ATOM      6  C   UNL     1       0.250   9.886  19.916  0.00  0.00    +0.000 A 
ENDROOT
BRANCH   5   7
ATOM      7  N   UNL     1       1.600   7.855  20.004  0.00  0.00    +0.000 N 
ATOM      8  C   UNL     1       1.593   6.506  20.524  0.00  0.00    +0.000 C 
ATOM      9  C   UNL     1       2.393   5.730  19.549  0.00  0.00    +0.000 A 
ATOM     10  C   UNL     1       2.872   6.567  18.551  0.00  0.00    +0.000 A 
ATOM     11  C   UNL     1       3.667   6.067  17.529  0.00  0.00    +0.000 A 
ATOM     12  C   UNL     1       3.985   4.689  17.514  0.00  0.00    +0.000 A 
ATOM     13  C   UNL     1       3.449   3.864  18.535  0.00  0.00    +0.000 A 
ATOM     14  C   UNL     1       2.651   4.365  19.569  0.00  0.00    +0.000 A 
ATOM     15  C   UNL     1       2.360   7.943  18.828  0.00  0.00    +0.000 C 
ATOM     16  O   UNL     1       2.594   8.895  18.110  0.00  0.00    +0.000 OA
BRANCH  14  17
ATOM     17  C   UNL     1       2.100   3.455  20.637  0.00  0.00    +0.000 C 
ATOM     18  F   UNL     1       2.437   2.145  20.473  0.00  0.00    +0.000 F 
ATOM     19  F   UNL     1       2.541   3.791  21.879  0.00  0.00    +0.000 F 
ATOM     20  F   UNL     1       0.741   3.481  20.694  0.00  0.00    +0.000 F 
ENDBRANCH  14  17
BRANCH  12  21
ATOM     21  C   UNL     1       4.841   4.066  16.431  0.00  0.00    +0.000 C 
ATOM     22  C   UNL     1       5.490   4.923  15.371  0.00  0.00    +0.000 C 
ATOM     23  C   UNL     1       6.341   4.298  16.433  0.00  0.00    +0.000 C 
ENDBRANCH  12  21
ENDBRANCH   5   7
BRANCH   1  24
ATOM     24  C   UNL     1      -0.917  12.090  19.551  0.00  0.00    +0.000 C 
ATOM     25  C   UNL     1      -1.595  11.487  18.315  0.00  0.00    +0.000 C 
ATOM     26  F   UNL     1      -1.916  12.839  20.140  0.00  0.00    +0.000 F 
BRANCH  24  27
ATOM     27  C   UNL     1       0.194  13.072  19.115  0.00  0.00    +0.000 C 
ATOM     28  F   UNL     1       1.091  12.429  18.308  0.00  0.00    +0.000 F 
BRANCH  27  34
ATOM     29  C   UNL     1      -0.611  15.798  20.434  0.00  0.00    +0.000 C 
ATOM     30  N   UNL     1       0.486  14.952  20.815  0.00  0.00    +0.000 N 
ATOM     31  C   UNL     1       1.346  15.184  21.844  0.00  0.00    +0.000 A 
ATOM     32  N   UNL     1       2.190  14.186  21.944  0.00  0.00    +0.000 NA
ATOM     33  N   UNL     1       1.879  13.282  20.961  0.00  0.00    +0.000 NA
ATOM     34  C   UNL     1       0.861  13.755  20.264  0.00  0.00    +0.000 A 
ENDBRANCH  27  34
ENDBRANCH  24  27
ENDBRANCH   1  24
TORSDOF 6
ENDMDL
MODEL 6
REMARK VINA RESULT:      -9.2      3.370      8.693
REMARK  Name = 
REMARK  8 active torsions:
REMARK  status: ('A' for Active; 'I' for Inactive)
REMARK    1  A    between atoms: C_1  and  N_2
REMARK    2  A    between atoms: C_6  and  C_7
REMARK    3  A    between atoms: C_7  and  C_9
REMARK    4  A    between atoms: C_9  and  C_10
REMARK    5  A    between atoms: C_9  and  C_12
REMARK    6  A    between atoms: C_16  and  N_17
REMARK    7  A    between atoms: C_22  and  C_23
REMARK    8  A    between atoms: C_27  and  C_28
REMARK                            x       y       z     vdW  Elec       q    Type
REMARK                         _______ _______ _______ _____ _____    ______ ____
ROOT
ATOM      1  C   UNL     1      -0.426  11.142  20.411  0.00  0.00    +0.000 A 
ATOM      2  C   UNL     1      -0.611  11.168  21.795  0.00  0.00    +0.000 A 
ATOM      3  C   UNL     1      -0.091  10.139  22.594  0.00  0.00    +0.000 A 
ATOM      4  C   UNL     1       0.633   9.074  22.031  0.00  0.00    +0.000 A 
ATOM      5  C   UNL     1       0.824   9.011  20.655  0.00  0.00    +0.000 A 
ATOM      6  C   UNL     1       0.260  10.043  19.873  0.00  0.00    +0.000 A 
ENDROOT
BRANCH   5   7
ATOM      7  N   UNL     1       1.576   7.992  20.007  0.00  0.00    +0.000 N 
ATOM      8  C   UNL     1       1.569   6.658  20.565  0.00  0.00    +0.000 C 
ATOM      9  C   UNL     1       2.361   5.853  19.608  0.00  0.00    +0.000 A 
ATOM     10  C   UNL     1       2.836   6.659  18.584  0.00  0.00    +0.000 A 
ATOM     11  C   UNL     1       3.624   6.129  17.572  0.00  0.00    +0.000 A 
ATOM     12  C   UNL     1       3.938   4.750  17.595  0.00  0.00    +0.000 A 
ATOM     13  C   UNL     1       3.406   3.955  18.643  0.00  0.00    +0.000 A 
ATOM     14  C   UNL     1       2.616   4.489  19.667  0.00  0.00    +0.000 A 
ATOM     15  C   UNL     1       2.329   8.044  18.825  0.00  0.00    +0.000 C 
ATOM     16  O   UNL     1       2.561   8.975  18.078  0.00  0.00    +0.000 OA
BRANCH  14  17
ATOM     17  C   UNL     1       2.068   3.611  20.763  0.00  0.00    +0.000 C 
ATOM     18  F   UNL     1       0.707   3.575  20.813  0.00  0.00    +0.000 F 
ATOM     19  F   UNL     1       2.461   2.315  20.631  0.00  0.00    +0.000 F 
ATOM     20  F   UNL     1       2.472   4.009  21.999  0.00  0.00    +0.000 F 
ENDBRANCH  14  17
BRANCH  12  21
ATOM     21  C   UNL     1       4.786   4.093  16.525  0.00  0.00    +0.000 C 
ATOM     22  C   UNL     1       5.402   4.914  15.418  0.00  0.00    +0.000 C 
ATOM     23  C   UNL     1       6.281   4.349  16.490  0.00  0.00    +0.000 C 
ENDBRANCH  12  21
ENDBRANCH   5   7
BRANCH   1  24
ATOM     24  C   UNL     1      -0.864  12.261  19.462  0.00  0.00    +0.000 C 
ATOM     25  C   UNL     1      -0.528  13.624  20.081  0.00  0.00    +0.000 C 
ATOM     26  F   UNL     1      -0.128  12.243  18.294  0.00  0.00    +0.000 F 
BRANCH  24  27
ATOM     27  C   UNL     1      -2.356  12.220  19.062  0.00  0.00    +0.000 C 
ATOM     28  F   UNL     1      -3.117  11.878  20.144  0.00  0.00    +0.000 F 
BRANCH  27  34
ATOM     29  C   UNL     1      -5.010  12.017  17.408  0.00  0.00    +0.000 C 
ATOM     30  N   UNL     1      -3.803  11.270  17.186  0.00  0.00    +0.000 N 
ATOM     31  C   UNL     1      -3.601  10.365  16.190  0.00  0.00    +0.000 A 
ATOM     32  N   UNL     1      -2.372   9.913  16.249  0.00  0.00    +0.000 NA
ATOM     33  N   UNL     1      -1.755  10.533  17.305  0.00  0.00    +0.000 NA
ATOM     34  C   UNL     1      -2.626  11.339  17.886  0.00  0.00    +0.000 A 
ENDBRANCH  27  34
ENDBRANCH  24  27
ENDBRANCH   1  24
TORSDOF 6
ENDMDL
MODEL 7
REMARK VINA RESULT:      -9.1      3.410      8.653
REMARK  Name = 
REMARK  8 active torsions:
REMARK  status: ('A' for Active; 'I' for Inactive)
REMARK    1  A    between atoms: C_1  and  N_2
REMARK    2  A    between atoms: C_6  and  C_7
REMARK    3  A    between atoms: C_7  and  C_9
REMARK    4  A    between atoms: C_9  and  C_10
REMARK    5  A    between atoms: C_9  and  C_12
REMARK    6  A    between atoms: C_16  and  N_17
REMARK    7  A    between atoms: C_22  and  C_23
REMARK    8  A    between atoms: C_27  and  C_28
REMARK                            x       y       z     vdW  Elec       q    Type
REMARK                         _______ _______ _______ _____ _____    ______ ____
ROOT
ATOM      1  C   UNL     1      -0.808  10.960  20.411  0.00  0.00    +0.000 A 
ATOM      2  C   UNL     1      -0.798  11.137  21.796  0.00  0.00    +0.000 A 
ATOM      3  C   UNL     1      -0.043  10.279  22.609  0.00  0.00    +0.000 A 
ATOM      4  C   UNL     1       0.725   9.239  22.058  0.00  0.00    +0.000 A 
ATOM      5  C   UNL     1       0.727   9.027  20.683  0.00  0.00    +0.000 A 
ATOM      6  C   UNL     1      -0.069   9.885  19.892  0.00  0.00    +0.000 A 
ENDROOT
BRANCH   5   7
ATOM      7  N   UNL     1       1.504   8.025  20.038  0.00  0.00    +0.000 N 
ATOM      8  C   UNL     1       1.532   6.694  20.602  0.00  0.00    +0.000 C 
ATOM      9  C   UNL     1       2.343   5.905  19.648  0.00  0.00    +0.000 A 
ATOM     10  C   UNL     1       2.796   6.719  18.620  0.00  0.00    +0.000 A 
ATOM     11  C   UNL     1       3.596   6.205  17.609  0.00  0.00    +0.000 A 
ATOM     12  C   UNL     1       3.946   4.835  17.637  0.00  0.00    +0.000 A 
ATOM     13  C   UNL     1       3.436   4.031  18.689  0.00  0.00    +0.000 A 
ATOM     14  C   UNL     1       2.633   4.548  19.712  0.00  0.00    +0.000 A 
ATOM     15  C   UNL     1       2.254   8.092  18.855  0.00  0.00    +0.000 C 
ATOM     16  O   UNL     1       2.460   9.025  18.104  0.00  0.00    +0.000 OA
BRANCH  14  17
ATOM     17  C   UNL     1       2.110   3.662  20.813  0.00  0.00    +0.000 C 
ATOM     18  F   UNL     1       2.551   2.375  20.740  0.00  0.00    +0.000 F 
ATOM     19  F   UNL     1       2.476   4.102  22.047  0.00  0.00    +0.000 F 
ATOM     20  F   UNL     1       0.753   3.586  20.821  0.00  0.00    +0.000 F 
ENDBRANCH  14  17
BRANCH  12  21
ATOM     21  C   UNL     1       4.809   4.196  16.569  0.00  0.00    +0.000 C 
ATOM     22  C   UNL     1       5.441   5.034  15.484  0.00  0.00    +0.000 C 
ATOM     23  C   UNL     1       6.305   4.452  16.560  0.00  0.00    +0.000 C 
ENDBRANCH  12  21
ENDBRANCH   5   7
BRANCH   1  24
ATOM     24  C   UNL     1      -1.515  11.897  19.427  0.00  0.00    +0.000 C 
ATOM     25  C   UNL     1      -1.677  11.195  18.072  0.00  0.00    +0.000 C 
ATOM     26  F   UNL     1      -2.814  12.148  19.822  0.00  0.00    +0.000 F 
BRANCH  24  27
ATOM     27  C   UNL     1      -0.825  13.265  19.230  0.00  0.00    +0.000 C 
ATOM     28  F   UNL     1      -0.601  13.485  17.900  0.00  0.00    +0.000 F 
BRANCH  27  34
ATOM     29  C   UNL     1       2.092  12.477  18.401  0.00  0.00    +0.000 C 
ATOM     30  N   UNL     1       1.684  13.056  19.650  0.00  0.00    +0.000 N 
ATOM     31  C   UNL     1       2.511  13.391  20.678  0.00  0.00    +0.000 A 
ATOM     32  N   UNL     1       1.814  13.945  21.640  0.00  0.00    +0.000 NA
ATOM     33  N   UNL     1       0.504  13.973  21.237  0.00  0.00    +0.000 NA
ATOM     34  C   UNL     1       0.421  13.417  20.041  0.00  0.00    +0.000 A 
ENDBRANCH  27  34
ENDBRANCH  24  27
ENDBRANCH   1  24
TORSDOF 6
ENDMDL
MODEL 8
REMARK VINA RESULT:      -9.1      3.407      8.722
REMARK  Name = 
REMARK  8 active torsions:
REMARK  status: ('A' for Active; 'I' for Inactive)
REMARK    1  A    between atoms: C_1  and  N_2
REMARK    2  A    between atoms: C_6  and  C_7
REMARK    3  A    between atoms: C_7  and  C_9
REMARK    4  A    between atoms: C_9  and  C_10
REMARK    5  A    between atoms: C_9  and  C_12
REMARK    6  A    between atoms: C_16  and  N_17
REMARK    7  A    between atoms: C_22  and  C_23
REMARK    8  A    between atoms: C_27  and  C_28
REMARK                            x       y       z     vdW  Elec       q    Type
REMARK                         _______ _______ _______ _____ _____    ______ ____
ROOT
ATOM      1  C   UNL     1       0.171  11.204  20.677  0.00  0.00    +0.000 A 
ATOM      2  C   UNL     1      -0.462  10.982  21.901  0.00  0.00    +0.000 A 
ATOM      3  C   UNL     1      -0.417   9.713  22.497  0.00  0.00    +0.000 A 
ATOM      4  C   UNL     1       0.271   8.647  21.891  0.00  0.00    +0.000 A 
ATOM      5  C   UNL     1       0.901   8.831  20.665  0.00  0.00    +0.000 A 
ATOM      6  C   UNL     1       0.810  10.111  20.074  0.00  0.00    +0.000 A 
ENDROOT
BRANCH   5   7
ATOM      7  N   UNL     1       1.651   7.820  20.002  0.00  0.00    +0.000 N 
ATOM      8  C   UNL     1       1.658   6.484  20.552  0.00  0.00    +0.000 C 
ATOM      9  C   UNL     1       2.443   5.688  19.581  0.00  0.00    +0.000 A 
ATOM     10  C   UNL     1       2.900   6.503  18.556  0.00  0.00    +0.000 A 
ATOM     11  C   UNL     1       3.679   5.983  17.531  0.00  0.00    +0.000 A 
ATOM     12  C   UNL     1       4.001   4.606  17.542  0.00  0.00    +0.000 A 
ATOM     13  C   UNL     1       3.487   3.802  18.592  0.00  0.00    +0.000 A 
ATOM     14  C   UNL     1       2.706   4.325  19.628  0.00  0.00    +0.000 A 
ATOM     15  C   UNL     1       2.389   7.884  18.811  0.00  0.00    +0.000 C 
ATOM     16  O   UNL     1       2.607   8.821  18.067  0.00  0.00    +0.000 OA
BRANCH  14  17
ATOM     17  C   UNL     1       2.177   3.438  20.726  0.00  0.00    +0.000 C 
ATOM     18  F   UNL     1       2.496   3.864  21.980  0.00  0.00    +0.000 F 
ATOM     19  F   UNL     1       0.819   3.348  20.707  0.00  0.00    +0.000 F 
ATOM     20  F   UNL     1       2.646   2.165  20.639  0.00  0.00    +0.000 F 
ENDBRANCH  14  17
BRANCH  12  21
ATOM     21  C   UNL     1       4.840   3.960  16.458  0.00  0.00    +0.000 C 
ATOM     22  C   UNL     1       5.420   4.787  15.337  0.00  0.00    +0.000 C 
ATOM     23  C   UNL     1       6.330   4.242  16.394  0.00  0.00    +0.000 C 
ENDBRANCH  12  21
ENDBRANCH   5   7
BRANCH   1  24
ATOM     24  C   UNL     1       0.268  12.571  19.992  0.00  0.00    +0.000 C 
ATOM     25  C   UNL     1      -0.250  13.661  20.940  0.00  0.00    +0.000 C 
ATOM     26  F   UNL     1       1.583  12.928  19.771  0.00  0.00    +0.000 F 
BRANCH  24  27
ATOM     27  C   UNL     1      -0.466  12.664  18.635  0.00  0.00    +0.000 C 
ATOM     28  F   UNL     1      -0.372  13.936  18.143  0.00  0.00    +0.000 F 
BRANCH  27  34
ATOM     29  C   UNL     1      -1.683  10.125  17.260  0.00  0.00    +0.000 C 
ATOM     30  N   UNL     1      -2.384  11.075  18.078  0.00  0.00    +0.000 N 
ATOM     31  C   UNL     1      -3.699  11.009  18.421  0.00  0.00    +0.000 A 
ATOM     32  N   UNL     1      -3.995  12.006  19.219  0.00  0.00    +0.000 NA
ATOM     33  N   UNL     1      -2.852  12.741  19.404  0.00  0.00    +0.000 NA
ATOM     34  C   UNL     1      -1.881  12.190  18.698  0.00  0.00    +0.000 A 
ENDBRANCH  27  34
ENDBRANCH  24  27
ENDBRANCH   1  24
TORSDOF 6
ENDMDL
MODEL 9
REMARK VINA RESULT:      -9.1      3.433      9.218
REMARK  Name = 
REMARK  8 active torsions:
REMARK  status: ('A' for Active; 'I' for Inactive)
REMARK    1  A    between atoms: C_1  and  N_2
REMARK    2  A    between atoms: C_6  and  C_7
REMARK    3  A    between atoms: C_7  and  C_9
REMARK    4  A    between atoms: C_9  and  C_10
REMARK    5  A    between atoms: C_9  and  C_12
REMARK    6  A    between atoms: C_16  and  N_17
REMARK    7  A    between atoms: C_22  and  C_23
REMARK    8  A    between atoms: C_27  and  C_28
REMARK                            x       y       z     vdW  Elec       q    Type
REMARK                         _______ _______ _______ _____ _____    ______ ____
ROOT
ATOM      1  C   UNL     1      -0.279  11.231  20.830  0.00  0.00    +0.000 A 
ATOM      2  C   UNL     1      -0.585  11.102  22.185  0.00  0.00    +0.000 A 
ATOM      3  C   UNL     1      -0.215   9.943  22.883  0.00  0.00    +0.000 A 
ATOM      4  C   UNL     1       0.479   8.899  22.247  0.00  0.00    +0.000 A 
ATOM      5  C   UNL     1       0.788   8.990  20.894  0.00  0.00    +0.000 A 
ATOM      6  C   UNL     1       0.373  10.154  20.210  0.00  0.00    +0.000 A 
ENDROOT
BRANCH   5   7
ATOM      7  N   UNL     1       1.521   8.000  20.181  0.00  0.00    +0.000 N 
ATOM      8  C   UNL     1       1.549   6.650  20.697  0.00  0.00    +0.000 C 
ATOM      9  C   UNL     1       2.306   5.883  19.681  0.00  0.00    +0.000 A 
ATOM     10  C   UNL     1       2.729   6.726  18.664  0.00  0.00    +0.000 A 
ATOM     11  C   UNL     1       3.476   6.236  17.602  0.00  0.00    +0.000 A 
ATOM     12  C   UNL     1       3.804   4.861  17.567  0.00  0.00    +0.000 A 
ATOM     13  C   UNL     1       3.325   4.028  18.611  0.00  0.00    +0.000 A 
ATOM     14  C   UNL     1       2.575   4.520  19.685  0.00  0.00    +0.000 A 
ATOM     15  C   UNL     1       2.221   8.098  18.970  0.00  0.00    +0.000 C 
ATOM     16  O   UNL     1       2.411   9.054  18.244  0.00  0.00    +0.000 OA
BRANCH  14  17
ATOM     17  C   UNL     1       2.084   3.603  20.775  0.00  0.00    +0.000 C 
ATOM     18  F   UNL     1       0.726   3.537  20.870  0.00  0.00    +0.000 F 
ATOM     19  F   UNL     1       2.499   2.320  20.595  0.00  0.00    +0.000 F 
ATOM     20  F   UNL     1       2.521   3.977  22.007  0.00  0.00    +0.000 F 
ENDBRANCH  14  17
BRANCH  12  21
ATOM     21  C   UNL     1       4.610   4.247  16.441  0.00  0.00    +0.000 C 
ATOM     22  C   UNL     1       5.445   5.113  15.529  0.00  0.00    +0.000 C 
ATOM     23  C   UNL     1       6.125   4.227  16.527  0.00  0.00    +0.000 C 
ENDBRANCH  12  21
ENDBRANCH   5   7
BRANCH   1  24
ATOM     24  C   UNL     1      -0.548  12.491  20.001  0.00  0.00    +0.000 C 
ATOM     25  C   UNL     1      -0.901  12.095  18.561  0.00  0.00    +0.000 C 
ATOM     26  F   UNL     1      -1.677  13.149  20.445  0.00  0.00    +0.000 F 
BRANCH  24  27
ATOM     27  C   UNL     1       0.607  13.518  19.995  0.00  0.00    +0.000 C 
ATOM     28  F   UNL     1       1.807  12.866  20.043  0.00  0.00    +0.000 F 
BRANCH  27  34
ATOM     29  C   UNL     1      -0.606  16.396  19.741  0.00  0.00    +0.000 C 
ATOM     30  N   UNL     1      -0.048  15.802  20.924  0.00  0.00    +0.000 N 
ATOM     31  C   UNL     1       0.017  16.389  22.151  0.00  0.00    +0.000 A 
ATOM     32  N   UNL     1       0.536  15.548  23.013  0.00  0.00    +0.000 NA
ATOM     33  N   UNL     1       0.818  14.387  22.338  0.00  0.00    +0.000 NA
ATOM     34  C   UNL     1       0.484  14.548  21.070  0.00  0.00    +0.000 A 
ENDBRANCH  27  34
ENDBRANCH  24  27
ENDBRANCH   1  24
TORSDOF 6
ENDMDL
