MODEL 1
REMARK VINA RESULT:      -8.7      0.000      0.000
REMARK  Name = 
REMARK  9 active torsions:
REMARK  status: ('A' for Active; 'I' for Inactive)
REMARK    1  A    between atoms: C_1  and  N_2
REMARK    2  A    between atoms: C_3  and  C_5
REMARK    3  A    between atoms: C_8  and  C_9
REMARK    4  A    between atoms: N_12  and  C_13
REMARK    5  A    between atoms: C_17  and  C_18
REMARK    6  A    between atoms: C_18  and  C_19
REMARK    7  A    between atoms: C_18  and  S_20
REMARK    8  A    between atoms: S_20  and  C_21
REMARK    9  A    between atoms: N_25  and  C_26
REMARK                            x       y       z     vdW  Elec       q    Type
REMARK                         _______ _______ _______ _____ _____    ______ ____
ROOT
ATOM      1  C   UNL     1       3.263   6.096  18.654  0.00  0.00    +0.000 A 
ATOM      2  C   UNL     1       2.992   5.385  19.839  0.00  0.00    +0.000 A 
ATOM      3  N   UNL     1       2.203   6.094  20.647  0.00  0.00    +0.000 NA
ATOM      4  N   UNL     1       2.034   7.243  19.939  0.00  0.00    +0.000 N 
ATOM      5  N   UNL     1       2.581   7.252  18.690  0.00  0.00    +0.000 NA
ENDROOT
BRANCH   1   9
ATOM      6  C   UNL     1       5.724   5.004  15.332  0.00  0.00    +0.000 A 
ATOM      7  C   UNL     1       5.131   4.017  16.128  0.00  0.00    +0.000 A 
ATOM      8  C   UNL     1       4.330   4.379  17.214  0.00  0.00    +0.000 A 
ATOM      9  C   UNL     1       4.123   5.728  17.533  0.00  0.00    +0.000 A 
ATOM     10  C   UNL     1       4.736   6.714  16.745  0.00  0.00    +0.000 A 
ATOM     11  C   UNL     1       5.535   6.354  15.652  0.00  0.00    +0.000 A 
BRANCH   6  14
ATOM     12  C   UNL     1       6.823   3.210  12.194  0.00  0.00    +0.000 C 
ATOM     13  N   UNL     1       6.092   3.642  13.357  0.00  0.00    +0.000 N 
ATOM     14  C   UNL     1       6.569   4.652  14.162  0.00  0.00    +0.000 C 
ATOM     15  O   UNL     1       7.613   5.262  13.945  0.00  0.00    +0.000 OA
ATOM     16  H   UNL     1       5.143   3.315  13.476  0.00  0.00    +0.000 HD
ENDBRANCH   6  14
ENDBRANCH   1   9
BRANCH   4  17
ATOM     17  C   UNL     1       1.342   8.367  20.464  0.00  0.00    +0.000 A 
ATOM     18  C   UNL     1       0.991   8.400  21.819  0.00  0.00    +0.000 A 
ATOM     19  C   UNL     1       0.289   9.492  22.327  0.00  0.00    +0.000 A 
ATOM     20  C   UNL     1      -0.090  10.539  21.485  0.00  0.00    +0.000 A 
ATOM     21  C   UNL     1       0.226  10.518  20.116  0.00  0.00    +0.000 A 
ATOM     22  C   UNL     1       0.973   9.429  19.621  0.00  0.00    +0.000 A 
BRANCH  21  23
ATOM     23  C   UNL     1      -0.266  11.592  19.154  0.00  0.00    +0.000 C 
ATOM     24  C   UNL     1       0.672  12.803  19.110  0.00  0.00    +0.000 C 
BRANCH  23  25
ATOM     25  S   UNL     1      -1.928  12.233  19.579  0.00  0.00    +0.000 S 
BRANCH  25  26
ATOM     26  C   UNL     1      -2.880  11.718  18.238  0.00  0.00    +0.000 A 
ATOM     27  N   UNL     1      -2.462  11.289  17.070  0.00  0.00    +0.000 NA
ATOM     28  N   UNL     1      -3.575  10.928  16.338  0.00  0.00    +0.000 NA
ATOM     29  C   UNL     1      -4.633  11.165  17.080  0.00  0.00    +0.000 A 
ATOM     30  N   UNL     1      -4.244  11.699  18.271  0.00  0.00    +0.000 N 
ATOM     31  C   UNL     1      -5.108  12.134  19.334  0.00  0.00    +0.000 C 
ENDBRANCH  25  26
ENDBRANCH  23  25
ENDBRANCH  21  23
ENDBRANCH   4  17
TORSDOF 6
ENDMDL
MODEL 2
REMARK VINA RESULT:      -8.7      2.590      3.531
REMARK  Name = 
REMARK  9 active torsions:
REMARK  status: ('A' for Active; 'I' for Inactive)
REMARK    1  A    between atoms: C_1  and  N_2
REMARK    2  A    between atoms: C_3  and  C_5
REMARK    3  A    between atoms: C_8  and  C_9
REMARK    4  A    between atoms: N_12  and  C_13
REMARK    5  A    between atoms: C_17  and  C_18
REMARK    6  A    between atoms: C_18  and  C_19
REMARK    7  A    between atoms: C_18  and  S_20
REMARK    8  A    between atoms: S_20  and  C_21
REMARK    9  A    between atoms: N_25  and  C_26
REMARK                            x       y       z     vdW  Elec       q    Type
REMARK                         _______ _______ _______ _____ _____    ______ ____
ROOT
ATOM      1  C   UNL     1       2.843   6.312  18.960  0.00  0.00    +0.000 A 
ATOM      2  C   UNL     1       2.362   5.549  20.042  0.00  0.00    +0.000 A 
ATOM      3  N   UNL     1       1.603   6.293  20.846  0.00  0.00    +0.000 NA
ATOM      4  N   UNL     1       1.664   7.511  20.245  0.00  0.00    +0.000 N 
ATOM      5  N   UNL     1       2.326   7.548  19.054  0.00  0.00    +0.000 NA
ENDROOT
BRANCH   1   9
ATOM      6  C   UNL     1       5.442   5.149  15.770  0.00  0.00    +0.000 A 
ATOM      7  C   UNL     1       4.866   4.182  16.603  0.00  0.00    +0.000 A 
ATOM      8  C   UNL     1       4.020   4.567  17.645  0.00  0.00    +0.000 A 
ATOM      9  C   UNL     1       3.750   5.922  17.884  0.00  0.00    +0.000 A 
ATOM     10  C   UNL     1       4.345   6.888  17.060  0.00  0.00    +0.000 A 
ATOM     11  C   UNL     1       5.189   6.505  16.011  0.00  0.00    +0.000 A 
BRANCH   6  14
ATOM     12  C   UNL     1       6.532   3.557  12.522  0.00  0.00    +0.000 C 
ATOM     13  N   UNL     1       5.767   3.989  13.662  0.00  0.00    +0.000 N 
ATOM     14  C   UNL     1       6.335   4.770  14.645  0.00  0.00    +0.000 C 
ATOM     15  O   UNL     1       7.497   5.167  14.615  0.00  0.00    +0.000 OA
ATOM     16  H   UNL     1       4.765   3.859  13.646  0.00  0.00    +0.000 HD
ENDBRANCH   6  14
ENDBRANCH   1   9
BRANCH   4  17
ATOM     17  C   UNL     1       1.085   8.674  20.819  0.00  0.00    +0.000 A 
ATOM     18  C   UNL     1       0.727   8.680  22.173  0.00  0.00    +0.000 A 
ATOM     19  C   UNL     1       0.136   9.813  22.729  0.00  0.00    +0.000 A 
ATOM     20  C   UNL     1      -0.128  10.932  21.935  0.00  0.00    +0.000 A 
ATOM     21  C   UNL     1       0.197  10.941  20.568  0.00  0.00    +0.000 A 
ATOM     22  C   UNL     1       0.833   9.807  20.026  0.00  0.00    +0.000 A 
BRANCH  21  23
ATOM     23  C   UNL     1      -0.175  12.103  19.656  0.00  0.00    +0.000 C 
ATOM     24  C   UNL     1      -0.981  11.646  18.436  0.00  0.00    +0.000 C 
BRANCH  23  25
ATOM     25  S   UNL     1       1.280  13.009  19.012  0.00  0.00    +0.000 S 
BRANCH  25  26
ATOM     26  C   UNL     1       1.842  13.852  20.406  0.00  0.00    +0.000 A 
ATOM     27  N   UNL     1       2.728  13.452  21.287  0.00  0.00    +0.000 NA
ATOM     28  N   UNL     1       2.909  14.479  22.191  0.00  0.00    +0.000 NA
ATOM     29  C   UNL     1       2.115  15.464  21.838  0.00  0.00    +0.000 A 
ATOM     30  N   UNL     1       1.395  15.097  20.741  0.00  0.00    +0.000 N 
ATOM     31  C   UNL     1       0.388  15.881  20.080  0.00  0.00    +0.000 C 
ENDBRANCH  25  26
ENDBRANCH  23  25
ENDBRANCH  21  23
ENDBRANCH   4  17
TORSDOF 6
ENDMDL
MODEL 3
REMARK VINA RESULT:      -8.5      2.857      4.153
REMARK  Name = 
REMARK  9 active torsions:
REMARK  status: ('A' for Active; 'I' for Inactive)
REMARK    1  A    between atoms: C_1  and  N_2
REMARK    2  A    between atoms: C_3  and  C_5
REMARK    3  A    between atoms: C_8  and  C_9
REMARK    4  A    between atoms: N_12  and  C_13
REMARK    5  A    between atoms: C_17  and  C_18
REMARK    6  A    between atoms: C_18  and  C_19
REMARK    7  A    between atoms: C_18  and  S_20
REMARK    8  A    between atoms: S_20  and  C_21
REMARK    9  A    between atoms: N_25  and  C_26
REMARK                            x       y       z     vdW  Elec       q    Type
REMARK                         _______ _______ _______ _____ _____    ______ ____
ROOT
ATOM      1  C   UNL     1       2.813   6.370  18.955  0.00  0.00    +0.000 A 
ATOM      2  C   UNL     1       2.405   5.593  20.057  0.00  0.00    +0.000 A 
ATOM      3  N   UNL     1       1.651   6.311  20.889  0.00  0.00    +0.000 NA
ATOM      4  N   UNL     1       1.642   7.528  20.283  0.00  0.00    +0.000 N 
ATOM      5  N   UNL     1       2.255   7.586  19.066  0.00  0.00    +0.000 NA
ENDROOT
BRANCH   1   9
ATOM      6  C   UNL     1       5.440   5.312  15.751  0.00  0.00    +0.000 A 
ATOM      7  C   UNL     1       5.399   6.627  16.228  0.00  0.00    +0.000 A 
ATOM      8  C   UNL     1       4.537   6.969  17.273  0.00  0.00    +0.000 A 
ATOM      9  C   UNL     1       3.691   6.009  17.845  0.00  0.00    +0.000 A 
ATOM     10  C   UNL     1       3.721   4.697  17.350  0.00  0.00    +0.000 A 
ATOM     11  C   UNL     1       4.588   4.351  16.307  0.00  0.00    +0.000 A 
BRANCH   6  14
ATOM     12  C   UNL     1       6.623   3.590  12.604  0.00  0.00    +0.000 C 
ATOM     13  N   UNL     1       5.833   4.048  13.716  0.00  0.00    +0.000 N 
ATOM     14  C   UNL     1       6.355   4.915  14.650  0.00  0.00    +0.000 C 
ATOM     15  O   UNL     1       7.495   5.369  14.597  0.00  0.00    +0.000 OA
ATOM     16  H   UNL     1       4.839   3.865  13.707  0.00  0.00    +0.000 HD
ENDBRANCH   6  14
ENDBRANCH   1   9
BRANCH   4  17
ATOM     17  C   UNL     1       1.043   8.671  20.877  0.00  0.00    +0.000 A 
ATOM     18  C   UNL     1       0.411   8.561  22.121  0.00  0.00    +0.000 A 
ATOM     19  C   UNL     1      -0.198   9.678  22.691  0.00  0.00    +0.000 A 
ATOM     20  C   UNL     1      -0.207  10.898  22.012  0.00  0.00    +0.000 A 
ATOM     21  C   UNL     1       0.396  11.029  20.750  0.00  0.00    +0.000 A 
ATOM     22  C   UNL     1       1.047   9.905  20.203  0.00  0.00    +0.000 A 
BRANCH  21  23
ATOM     23  C   UNL     1       0.310  12.316  19.941  0.00  0.00    +0.000 C 
ATOM     24  C   UNL     1      -0.624  12.180  18.734  0.00  0.00    +0.000 C 
BRANCH  23  25
ATOM     25  S   UNL     1       1.930  12.868  19.289  0.00  0.00    +0.000 S 
BRANCH  25  26
ATOM     26  C   UNL     1       2.526  13.863  20.564  0.00  0.00    +0.000 A 
ATOM     27  N   UNL     1       2.030  14.011  21.769  0.00  0.00    +0.000 NA
ATOM     28  N   UNL     1       2.873  14.854  22.465  0.00  0.00    +0.000 NA
ATOM     29  C   UNL     1       3.845  15.203  21.652  0.00  0.00    +0.000 A 
ATOM     30  N   UNL     1       3.645  14.633  20.432  0.00  0.00    +0.000 N 
ATOM     31  C   UNL     1       4.464  14.808  19.264  0.00  0.00    +0.000 C 
ENDBRANCH  25  26
ENDBRANCH  23  25
ENDBRANCH  21  23
ENDBRANCH   4  17
TORSDOF 6
ENDMDL
MODEL 4
REMARK VINA RESULT:      -8.5      0.984      1.333
REMARK  Name = 
REMARK  9 active torsions:
REMARK  status: ('A' for Active; 'I' for Inactive)
REMARK    1  A    between atoms: C_1  and  N_2
REMARK    2  A    between atoms: C_3  and  C_5
REMARK    3  A    between atoms: C_8  and  C_9
REMARK    4  A    between atoms: N_12  and  C_13
REMARK    5  A    between atoms: C_17  and  C_18
REMARK    6  A    between atoms: C_18  and  C_19
REMARK    7  A    between atoms: C_18  and  S_20
REMARK    8  A    between atoms: S_20  and  C_21
REMARK    9  A    between atoms: N_25  and  C_26
REMARK                            x       y       z     vdW  Elec       q    Type
REMARK                         _______ _______ _______ _____ _____    ______ ____
ROOT
ATOM      1  C   UNL     1       2.929   6.250  18.787  0.00  0.00    +0.000 A 
ATOM      2  C   UNL     1       2.570   5.523  19.939  0.00  0.00    +0.000 A 
ATOM      3  N   UNL     1       1.832   6.270  20.760  0.00  0.00    +0.000 NA
ATOM      4  N   UNL     1       1.782   7.455  20.094  0.00  0.00    +0.000 N 
ATOM      5  N   UNL     1       2.353   7.461  18.857  0.00  0.00    +0.000 NA
ENDROOT
BRANCH   1   9
ATOM      6  C   UNL     1       5.467   5.088  15.548  0.00  0.00    +0.000 A 
ATOM      7  C   UNL     1       5.217   6.442  15.801  0.00  0.00    +0.000 A 
ATOM      8  C   UNL     1       4.385   6.817  16.859  0.00  0.00    +0.000 A 
ATOM      9  C   UNL     1       3.776   5.847  17.667  0.00  0.00    +0.000 A 
ATOM     10  C   UNL     1       4.012   4.491  17.397  0.00  0.00    +0.000 A 
ATOM     11  C   UNL     1       4.851   4.114  16.341  0.00  0.00    +0.000 A 
BRANCH   6  14
ATOM     12  C   UNL     1       8.339   5.195  13.096  0.00  0.00    +0.000 C 
ATOM     13  N   UNL     1       7.408   5.503  14.149  0.00  0.00    +0.000 N 
ATOM     14  C   UNL     1       6.358   4.659  14.440  0.00  0.00    +0.000 C 
ATOM     15  O   UNL     1       6.154   3.598  13.855  0.00  0.00    +0.000 OA
ATOM     16  H   UNL     1       7.634   6.254  14.786  0.00  0.00    +0.000 HD
ENDBRANCH   6  14
ENDBRANCH   1   9
BRANCH   4  17
ATOM     17  C   UNL     1       1.183   8.617  20.651  0.00  0.00    +0.000 A 
ATOM     18  C   UNL     1       0.883   8.661  22.018  0.00  0.00    +0.000 A 
ATOM     19  C   UNL     1       0.272   9.792  22.557  0.00  0.00    +0.000 A 
ATOM     20  C   UNL     1      -0.069  10.868  21.736  0.00  0.00    +0.000 A 
ATOM     21  C   UNL     1       0.197  10.838  20.356  0.00  0.00    +0.000 A 
ATOM     22  C   UNL     1       0.853   9.708  19.828  0.00  0.00    +0.000 A 
BRANCH  21  23
ATOM     23  C   UNL     1      -0.258  11.949  19.420  0.00  0.00    +0.000 C 
ATOM     24  C   UNL     1       0.324  13.312  19.812  0.00  0.00    +0.000 C 
BRANCH  23  25
ATOM     25  S   UNL     1      -2.078  12.152  19.373  0.00  0.00    +0.000 S 
BRANCH  25  26
ATOM     26  C   UNL     1      -2.515  11.268  17.959  0.00  0.00    +0.000 A 
ATOM     27  N   UNL     1      -1.746  10.514  17.210  0.00  0.00    +0.000 NA
ATOM     28  N   UNL     1      -2.540   9.956  16.229  0.00  0.00    +0.000 NA
ATOM     29  C   UNL     1      -3.763  10.403  16.405  0.00  0.00    +0.000 A 
ATOM     30  N   UNL     1      -3.786  11.263  17.461  0.00  0.00    +0.000 N 
ATOM     31  C   UNL     1      -4.927  11.993  17.942  0.00  0.00    +0.000 C 
ENDBRANCH  25  26
ENDBRANCH  23  25
ENDBRANCH  21  23
ENDBRANCH   4  17
TORSDOF 6
ENDMDL
MODEL 5
REMARK VINA RESULT:      -8.4      2.362      3.460
REMARK  Name = 
REMARK  9 active torsions:
REMARK  status: ('A' for Active; 'I' for Inactive)
REMARK    1  A    between atoms: C_1  and  N_2
REMARK    2  A    between atoms: C_3  and  C_5
REMARK    3  A    between atoms: C_8  and  C_9
REMARK    4  A    between atoms: N_12  and  C_13
REMARK    5  A    between atoms: C_17  and  C_18
REMARK    6  A    between atoms: C_18  and  C_19
REMARK    7  A    between atoms: C_18  and  S_20
REMARK    8  A    between atoms: S_20  and  C_21
REMARK    9  A    between atoms: N_25  and  C_26
REMARK                            x       y       z     vdW  Elec       q    Type
REMARK                         _______ _______ _______ _____ _____    ______ ____
ROOT
ATOM      1  C   UNL     1       2.856   6.343  18.881  0.00  0.00    +0.000 A 
ATOM      2  C   UNL     1       2.382   5.585  19.970  0.00  0.00    +0.000 A 
ATOM      3  N   UNL     1       1.627   6.333  20.774  0.00  0.00    +0.000 NA
ATOM      4  N   UNL     1       1.683   7.547  20.165  0.00  0.00    +0.000 N 
ATOM      5  N   UNL     1       2.339   7.579  18.971  0.00  0.00    +0.000 NA
ENDROOT
BRANCH   1   9
ATOM      6  C   UNL     1       5.439   5.171  15.681  0.00  0.00    +0.000 A 
ATOM      7  C   UNL     1       4.762   4.205  16.435  0.00  0.00    +0.000 A 
ATOM      8  C   UNL     1       3.921   4.592  17.481  0.00  0.00    +0.000 A 
ATOM      9  C   UNL     1       3.758   5.947  17.803  0.00  0.00    +0.000 A 
ATOM     10  C   UNL     1       4.454   6.911  17.058  0.00  0.00    +0.000 A 
ATOM     11  C   UNL     1       5.292   6.525  16.005  0.00  0.00    +0.000 A 
BRANCH   6  14
ATOM     12  C   UNL     1       6.530   3.548  12.449  0.00  0.00    +0.000 C 
ATOM     13  N   UNL     1       5.768   3.983  13.589  0.00  0.00    +0.000 N 
ATOM     14  C   UNL     1       6.329   4.792  14.553  0.00  0.00    +0.000 C 
ATOM     15  O   UNL     1       7.482   5.211  14.506  0.00  0.00    +0.000 OA
ATOM     16  H   UNL     1       4.768   3.833  13.585  0.00  0.00    +0.000 HD
ENDBRANCH   6  14
ENDBRANCH   1   9
BRANCH   4  17
ATOM     17  C   UNL     1       1.106   8.713  20.736  0.00  0.00    +0.000 A 
ATOM     18  C   UNL     1       0.639   8.687  22.056  0.00  0.00    +0.000 A 
ATOM     19  C   UNL     1       0.050   9.824  22.606  0.00  0.00    +0.000 A 
ATOM     20  C   UNL     1      -0.103  10.980  21.838  0.00  0.00    +0.000 A 
ATOM     21  C   UNL     1       0.333  11.024  20.503  0.00  0.00    +0.000 A 
ATOM     22  C   UNL     1       0.966   9.883  19.970  0.00  0.00    +0.000 A 
BRANCH  21  23
ATOM     23  C   UNL     1       0.084  12.233  19.610  0.00  0.00    +0.000 C 
ATOM     24  C   UNL     1      -1.015  11.970  18.574  0.00  0.00    +0.000 C 
BRANCH  23  25
ATOM     25  S   UNL     1       1.569  12.757  18.675  0.00  0.00    +0.000 S 
BRANCH  25  26
ATOM     26  C   UNL     1       1.446  14.476  18.715  0.00  0.00    +0.000 A 
ATOM     27  N   UNL     1       0.369  15.203  18.895  0.00  0.00    +0.000 NA
ATOM     28  N   UNL     1       0.759  16.527  18.916  0.00  0.00    +0.000 NA
ATOM     29  C   UNL     1       2.060  16.561  18.732  0.00  0.00    +0.000 A 
ATOM     30  N   UNL     1       2.529  15.293  18.563  0.00  0.00    +0.000 N 
ATOM     31  C   UNL     1       3.889  14.916  18.293  0.00  0.00    +0.000 C 
ENDBRANCH  25  26
ENDBRANCH  23  25
ENDBRANCH  21  23
ENDBRANCH   4  17
TORSDOF 6
ENDMDL
MODEL 6
REMARK VINA RESULT:      -8.4      6.250      9.265
REMARK  Name = 
REMARK  9 active torsions:
REMARK  status: ('A' for Active; 'I' for Inactive)
REMARK    1  A    between atoms: C_1  and  N_2
REMARK    2  A    between atoms: C_3  and  C_5
REMARK    3  A    between atoms: C_8  and  C_9
REMARK    4  A    between atoms: N_12  and  C_13
REMARK    5  A    between atoms: C_17  and  C_18
REMARK    6  A    between atoms: C_18  and  C_19
REMARK    7  A    between atoms: C_18  and  S_20
REMARK    8  A    between atoms: S_20  and  C_21
REMARK    9  A    between atoms: N_25  and  C_26
REMARK                            x       y       z     vdW  Elec       q    Type
REMARK                         _______ _______ _______ _____ _____    ______ ____
ROOT
ATOM      1  C   UNL     1       8.320   8.721  18.179  0.00  0.00    +0.000 A 
ATOM      2  C   UNL     1       8.609   7.716  19.123  0.00  0.00    +0.000 A 
ATOM      3  N   UNL     1       8.018   6.569  18.790  0.00  0.00    +0.000 NA
ATOM      4  N   UNL     1       7.352   6.914  17.656  0.00  0.00    +0.000 N 
ATOM      5  N   UNL     1       7.579   8.178  17.200  0.00  0.00    +0.000 NA
ENDROOT
BRANCH   1   9
ATOM      6  C   UNL     1       9.495  12.832  18.140  0.00  0.00    +0.000 A 
ATOM      7  C   UNL     1      10.257  11.884  18.835  0.00  0.00    +0.000 A 
ATOM      8  C   UNL     1       9.867  10.542  18.847  0.00  0.00    +0.000 A 
ATOM      9  C   UNL     1       8.704  10.130  18.183  0.00  0.00    +0.000 A 
ATOM     10  C   UNL     1       7.932  11.086  17.506  0.00  0.00    +0.000 A 
ATOM     11  C   UNL     1       8.324  12.430  17.487  0.00  0.00    +0.000 A 
BRANCH   6  14
ATOM     12  C   UNL     1      10.822  16.077  16.734  0.00  0.00    +0.000 C 
ATOM     13  N   UNL     1      10.403  14.711  16.899  0.00  0.00    +0.000 N 
ATOM     14  C   UNL     1       9.891  14.263  18.097  0.00  0.00    +0.000 C 
ATOM     15  O   UNL     1       9.735  14.980  19.083  0.00  0.00    +0.000 OA
ATOM     16  H   UNL     1      10.326  14.129  16.076  0.00  0.00    +0.000 HD
ENDBRANCH   6  14
ENDBRANCH   1   9
BRANCH   4  17
ATOM     17  C   UNL     1       6.469   6.022  16.989  0.00  0.00    +0.000 A 
ATOM     18  C   UNL     1       6.822   5.491  15.743  0.00  0.00    +0.000 A 
ATOM     19  C   UNL     1       5.943   4.637  15.079  0.00  0.00    +0.000 A 
ATOM     20  C   UNL     1       4.699   4.333  15.637  0.00  0.00    +0.000 A 
ATOM     21  C   UNL     1       4.310   4.874  16.874  0.00  0.00    +0.000 A 
ATOM     22  C   UNL     1       5.223   5.702  17.557  0.00  0.00    +0.000 A 
BRANCH  21  23
ATOM     23  C   UNL     1       2.921   4.646  17.456  0.00  0.00    +0.000 C 
ATOM     24  C   UNL     1       2.730   5.362  18.798  0.00  0.00    +0.000 C 
BRANCH  23  25
ATOM     25  S   UNL     1       2.543   2.878  17.748  0.00  0.00    +0.000 S 
BRANCH  25  26
ATOM     26  C   UNL     1       2.172   2.850  19.431  0.00  0.00    +0.000 A 
ATOM     27  N   UNL     1       1.017   3.088  20.006  0.00  0.00    +0.000 NA
ATOM     28  N   UNL     1       1.178   2.886  21.362  0.00  0.00    +0.000 NA
ATOM     29  C   UNL     1       2.431   2.546  21.567  0.00  0.00    +0.000 A 
ATOM     30  N   UNL     1       3.103   2.549  20.383  0.00  0.00    +0.000 N 
ATOM     31  C   UNL     1       4.501   2.274  20.195  0.00  0.00    +0.000 C 
ENDBRANCH  25  26
ENDBRANCH  23  25
ENDBRANCH  21  23
ENDBRANCH   4  17
TORSDOF 6
ENDMDL
MODEL 7
REMARK VINA RESULT:      -8.3      5.261     11.208
REMARK  Name = 
REMARK  9 active torsions:
REMARK  status: ('A' for Active; 'I' for Inactive)
REMARK    1  A    between atoms: C_1  and  N_2
REMARK    2  A    between atoms: C_3  and  C_5
REMARK    3  A    between atoms: C_8  and  C_9
REMARK    4  A    between atoms: N_12  and  C_13
REMARK    5  A    between atoms: C_17  and  C_18
REMARK    6  A    between atoms: C_18  and  C_19
REMARK    7  A    between atoms: C_18  and  S_20
REMARK    8  A    between atoms: S_20  and  C_21
REMARK    9  A    between atoms: N_25  and  C_26
REMARK                            x       y       z     vdW  Elec       q    Type
REMARK                         _______ _______ _______ _____ _____    ______ ____
ROOT
ATOM      1  C   UNL     1      -0.713  11.039  22.534  0.00  0.00    +0.000 A 
ATOM      2  C   UNL     1      -0.411   9.835  23.200  0.00  0.00    +0.000 A 
ATOM      3  N   UNL     1       0.332   9.041  22.428  0.00  0.00    +0.000 NA
ATOM      4  N   UNL     1       0.441   9.776  21.290  0.00  0.00    +0.000 N 
ATOM      5  N   UNL     1      -0.096  11.027  21.341  0.00  0.00    +0.000 NA
ENDROOT
BRANCH   1   9
ATOM      6  C   UNL     1      -3.160  14.325  23.759  0.00  0.00    +0.000 A 
ATOM      7  C   UNL     1      -1.866  14.548  23.274  0.00  0.00    +0.000 A 
ATOM      8  C   UNL     1      -1.069  13.471  22.877  0.00  0.00    +0.000 A 
ATOM      9  C   UNL     1      -1.544  12.156  22.976  0.00  0.00    +0.000 A 
ATOM     10  C   UNL     1      -2.833  11.935  23.482  0.00  0.00    +0.000 A 
ATOM     11  C   UNL     1      -3.636  13.013  23.875  0.00  0.00    +0.000 A 
BRANCH   6  14
ATOM     12  C   UNL     1      -4.141  17.681  25.189  0.00  0.00    +0.000 C 
ATOM     13  N   UNL     1      -3.399  16.531  24.745  0.00  0.00    +0.000 N 
ATOM     14  C   UNL     1      -4.036  15.450  24.176  0.00  0.00    +0.000 C 
ATOM     15  O   UNL     1      -5.249  15.393  23.988  0.00  0.00    +0.000 OA
ATOM     16  H   UNL     1      -2.392  16.598  24.695  0.00  0.00    +0.000 HD
ENDBRANCH   6  14
ENDBRANCH   1   9
BRANCH   4  17
ATOM     17  C   UNL     1       1.065   9.274  20.116  0.00  0.00    +0.000 A 
ATOM     18  C   UNL     1       0.877   9.926  18.892  0.00  0.00    +0.000 A 
ATOM     19  C   UNL     1       1.469   9.418  17.737  0.00  0.00    +0.000 A 
ATOM     20  C   UNL     1       2.225   8.245  17.790  0.00  0.00    +0.000 A 
ATOM     21  C   UNL     1       2.407   7.556  19.002  0.00  0.00    +0.000 A 
ATOM     22  C   UNL     1       1.839   8.102  20.171  0.00  0.00    +0.000 A 
BRANCH  21  23
ATOM     23  C   UNL     1       3.135   6.220  19.071  0.00  0.00    +0.000 C 
ATOM     24  C   UNL     1       4.344   6.170  18.131  0.00  0.00    +0.000 C 
BRANCH  23  25
ATOM     25  S   UNL     1       2.071   4.795  18.632  0.00  0.00    +0.000 S 
BRANCH  25  26
ATOM     26  C   UNL     1       2.120   3.838  20.065  0.00  0.00    +0.000 A 
ATOM     27  N   UNL     1       1.252   3.816  21.048  0.00  0.00    +0.000 NA
ATOM     28  N   UNL     1       1.667   2.854  21.947  0.00  0.00    +0.000 NA
ATOM     29  C   UNL     1       2.783   2.335  21.486  0.00  0.00    +0.000 A 
ATOM     30  N   UNL     1       3.125   2.952  20.322  0.00  0.00    +0.000 N 
ATOM     31  C   UNL     1       4.302   2.699  19.536  0.00  0.00    +0.000 C 
ENDBRANCH  25  26
ENDBRANCH  23  25
ENDBRANCH  21  23
ENDBRANCH   4  17
TORSDOF 6
ENDMDL
MODEL 8
REMARK VINA RESULT:      -8.3      1.202      1.679
REMARK  Name = 
REMARK  9 active torsions:
REMARK  status: ('A' for Active; 'I' for Inactive)
REMARK    1  A    between atoms: C_1  and  N_2
REMARK    2  A    between atoms: C_3  and  C_5
REMARK    3  A    between atoms: C_8  and  C_9
REMARK    4  A    between atoms: N_12  and  C_13
REMARK    5  A    between atoms: C_17  and  C_18
REMARK    6  A    between atoms: C_18  and  C_19
REMARK    7  A    between atoms: C_18  and  S_20
REMARK    8  A    between atoms: S_20  and  C_21
REMARK    9  A    between atoms: N_25  and  C_26
REMARK                            x       y       z     vdW  Elec       q    Type
REMARK                         _______ _______ _______ _____ _____    ______ ____
ROOT
ATOM      1  C   UNL     1       2.824   6.201  18.964  0.00  0.00    +0.000 A 
ATOM      2  C   UNL     1       2.353   5.402  20.025  0.00  0.00    +0.000 A 
ATOM      3  N   UNL     1       1.591   6.116  20.854  0.00  0.00    +0.000 NA
ATOM      4  N   UNL     1       1.641   7.351  20.289  0.00  0.00    +0.000 N 
ATOM      5  N   UNL     1       2.298   7.430  19.097  0.00  0.00    +0.000 NA
ENDROOT
BRANCH   1   9
ATOM      6  C   UNL     1       5.419   5.159  15.730  0.00  0.00    +0.000 A 
ATOM      7  C   UNL     1       4.783   4.160  16.477  0.00  0.00    +0.000 A 
ATOM      8  C   UNL     1       3.937   4.506  17.535  0.00  0.00    +0.000 A 
ATOM      9  C   UNL     1       3.729   5.849  17.874  0.00  0.00    +0.000 A 
ATOM     10  C   UNL     1       4.385   6.846  17.136  0.00  0.00    +0.000 A 
ATOM     11  C   UNL     1       5.228   6.503  16.072  0.00  0.00    +0.000 A 
BRANCH   6  14
ATOM     12  C   UNL     1       6.544   3.600  12.478  0.00  0.00    +0.000 C 
ATOM     13  N   UNL     1       5.776   3.996  13.629  0.00  0.00    +0.000 N 
ATOM     14  C   UNL     1       6.312   4.824  14.591  0.00  0.00    +0.000 C 
ATOM     15  O   UNL     1       7.446   5.293  14.533  0.00  0.00    +0.000 OA
ATOM     16  H   UNL     1       4.784   3.802  13.634  0.00  0.00    +0.000 HD
ENDBRANCH   6  14
ENDBRANCH   1   9
BRANCH   4  17
ATOM     17  C   UNL     1       1.056   8.492  20.900  0.00  0.00    +0.000 A 
ATOM     18  C   UNL     1       0.075   8.331  21.886  0.00  0.00    +0.000 A 
ATOM     19  C   UNL     1      -0.516   9.451  22.466  0.00  0.00    +0.000 A 
ATOM     20  C   UNL     1      -0.157  10.734  22.048  0.00  0.00    +0.000 A 
ATOM     21  C   UNL     1       0.805  10.923  21.041  0.00  0.00    +0.000 A 
ATOM     22  C   UNL     1       1.427   9.785  20.491  0.00  0.00    +0.000 A 
BRANCH  21  23
ATOM     23  C   UNL     1       1.139  12.304  20.490  0.00  0.00    +0.000 C 
ATOM     24  C   UNL     1       0.567  13.428  21.360  0.00  0.00    +0.000 C 
BRANCH  23  25
ATOM     25  S   UNL     1       0.500  12.578  18.796  0.00  0.00    +0.000 S 
BRANCH  25  26
ATOM     26  C   UNL     1      -1.176  12.213  18.965  0.00  0.00    +0.000 A 
ATOM     27  N   UNL     1      -2.085  12.889  19.626  0.00  0.00    +0.000 NA
ATOM     28  N   UNL     1      -3.297  12.259  19.430  0.00  0.00    +0.000 NA
ATOM     29  C   UNL     1      -3.080  11.210  18.668  0.00  0.00    +0.000 A 
ATOM     30  N   UNL     1      -1.751  11.121  18.384  0.00  0.00    +0.000 N 
ATOM     31  C   UNL     1      -1.110  10.088  17.616  0.00  0.00    +0.000 C 
ENDBRANCH  25  26
ENDBRANCH  23  25
ENDBRANCH  21  23
ENDBRANCH   4  17
TORSDOF 6
ENDMDL
MODEL 9
REMARK VINA RESULT:      -8.3      6.213      9.295
REMARK  Name = 
REMARK  9 active torsions:
REMARK  status: ('A' for Active; 'I' for Inactive)
REMARK    1  A    between atoms: C_1  and  N_2
REMARK    2  A    between atoms: C_3  and  C_5
REMARK    3  A    between atoms: C_8  and  C_9
REMARK    4  A    between atoms: N_12  and  C_13
REMARK    5  A    between atoms: C_17  and  C_18
REMARK    6  A    between atoms: C_18  and  C_19
REMARK    7  A    between atoms: C_18  and  S_20
REMARK    8  A    between atoms: S_20  and  C_21
REMARK    9  A    between atoms: N_25  and  C_26
REMARK                            x       y       z     vdW  Elec       q    Type
REMARK                         _______ _______ _______ _____ _____    ______ ____
ROOT
ATOM      1  C   UNL     1       8.331   9.123  18.121  0.00  0.00    +0.000 A 
ATOM      2  C   UNL     1       8.784   8.125  19.005  0.00  0.00    +0.000 A 
ATOM      3  N   UNL     1       8.184   6.961  18.752  0.00  0.00    +0.000 NA
ATOM      4  N   UNL     1       7.352   7.290  17.728  0.00  0.00    +0.000 N 
ATOM      5  N   UNL     1       7.473   8.562  17.254  0.00  0.00    +0.000 NA
ENDROOT
BRANCH   1   9
ATOM      6  C   UNL     1       9.368  13.268  17.947  0.00  0.00    +0.000 A 
ATOM      7  C   UNL     1      10.229  12.348  18.558  0.00  0.00    +0.000 A 
ATOM      8  C   UNL     1       9.884  10.995  18.615  0.00  0.00    +0.000 A 
ATOM      9  C   UNL     1       8.670  10.544  18.080  0.00  0.00    +0.000 A 
ATOM     10  C   UNL     1       7.801  11.472  17.488  0.00  0.00    +0.000 A 
ATOM     11  C   UNL     1       8.147  12.827  17.425  0.00  0.00    +0.000 A 
BRANCH   6  14
ATOM     12  C   UNL     1      11.105  16.407  16.764  0.00  0.00    +0.000 C 
ATOM     13  N   UNL     1      10.685  15.042  16.941  0.00  0.00    +0.000 N 
ATOM     14  C   UNL     1       9.713  14.711  17.859  0.00  0.00    +0.000 C 
ATOM     15  O   UNL     1       9.129  15.532  18.562  0.00  0.00    +0.000 OA
ATOM     16  H   UNL     1      10.986  14.355  16.263  0.00  0.00    +0.000 HD
ENDBRANCH   6  14
ENDBRANCH   1   9
BRANCH   4  17
ATOM     17  C   UNL     1       6.408   6.374  17.189  0.00  0.00    +0.000 A 
ATOM     18  C   UNL     1       6.736   5.620  16.056  0.00  0.00    +0.000 A 
ATOM     19  C   UNL     1       5.800   4.742  15.514  0.00  0.00    +0.000 A 
ATOM     20  C   UNL     1       4.527   4.632  16.077  0.00  0.00    +0.000 A 
ATOM     21  C   UNL     1       4.164   5.397  17.198  0.00  0.00    +0.000 A 
ATOM     22  C   UNL     1       5.132   6.251  17.765  0.00  0.00    +0.000 A 
BRANCH  21  23
ATOM     23  C   UNL     1       2.752   5.378  17.769  0.00  0.00    +0.000 C 
ATOM     24  C   UNL     1       2.685   5.994  19.170  0.00  0.00    +0.000 C 
BRANCH  23  25
ATOM     25  S   UNL     1       2.053   3.690  17.906  0.00  0.00    +0.000 S 
BRANCH  25  26
ATOM     26  C   UNL     1       3.013   2.989  19.153  0.00  0.00    +0.000 A 
ATOM     27  N   UNL     1       4.267   2.608  19.087  0.00  0.00    +0.000 NA
ATOM     28  N   UNL     1       4.634   2.167  20.342  0.00  0.00    +0.000 NA
ATOM     29  C   UNL     1       3.586   2.281  21.126  0.00  0.00    +0.000 A 
ATOM     30  N   UNL     1       2.531   2.758  20.409  0.00  0.00    +0.000 N 
ATOM     31  C   UNL     1       1.197   2.979  20.897  0.00  0.00    +0.000 C 
ENDBRANCH  25  26
ENDBRANCH  23  25
ENDBRANCH  21  23
ENDBRANCH   4  17
TORSDOF 6
ENDMDL
