MODEL 1
REMARK VINA RESULT:      -8.8      0.000      0.000
REMARK  Name = 
REMARK  7 active torsions:
REMARK  status: ('A' for Active; 'I' for Inactive)
REMARK    1  A    between atoms: C_1  and  C_2
REMARK    2  A    between atoms: C_2  and  S_3
REMARK    3  A    between atoms: C_2  and  C_10
REMARK    4  A    between atoms: S_3  and  C_4
REMARK    5  A    between atoms: N_8  and  C_9
REMARK    6  A    between atoms: C_16  and  C_18
REMARK    7  A    between atoms: C_21  and  C_22
REMARK                            x       y       z     vdW  Elec       q    Type
REMARK                         _______ _______ _______ _____ _____    ______ ____
ROOT
ATOM      1  C   UNL     1       0.002  12.522  20.402  0.00  0.00    +0.000 A 
ATOM      2  C   UNL     1       0.703  13.301  19.476  0.00  0.00    +0.000 A 
ATOM      3  C   UNL     1       1.510  12.676  18.543  0.00  0.00    +0.000 A 
ATOM      4  N   UNL     1       1.681  11.344  18.474  0.00  0.00    +0.000 NA
ATOM      5  C   UNL     1       1.019  10.579  19.350  0.00  0.00    +0.000 A 
ATOM      6  N   UNL     1       1.237   9.196  19.376  0.00  0.00    +0.000 N 
ATOM      7  C   UNL     1       2.076   8.506  18.523  0.00  0.00    +0.000 C 
ATOM      8  O   UNL     1       2.596   8.933  17.500  0.00  0.00    +0.000 OA
ATOM      9  C   UNL     1       0.156  11.123  20.305  0.00  0.00    +0.000 A 
ATOM     10  H   UNL     1       0.771   8.678  20.101  0.00  0.00    +0.000 HD
ENDROOT
BRANCH   7  11
ATOM     11  C   UNL     1       2.309   7.133  18.932  0.00  0.00    +0.000 A 
ATOM     12  C   UNL     1       2.726   6.025  18.218  0.00  0.00    +0.000 A 
ATOM     13  C   UNL     1       2.698   4.888  19.074  0.00  0.00    +0.000 A 
ATOM     14  C   UNL     1       2.965   3.509  18.878  0.00  0.00    +0.000 A 
ATOM     15  C   UNL     1       2.821   2.657  19.994  0.00  0.00    +0.000 A 
ATOM     16  C   UNL     1       2.431   3.139  21.243  0.00  0.00    +0.000 A 
ATOM     17  C   UNL     1       2.155   4.495  21.433  0.00  0.00    +0.000 A 
ATOM     18  C   UNL     1       2.290   5.343  20.327  0.00  0.00    +0.000 A 
ATOM     19  N   UNL     1       2.049   6.694  20.213  0.00  0.00    +0.000 N 
ATOM     20  H   UNL     1       1.701   7.295  20.950  0.00  0.00    +0.000 HD
BRANCH  14  21
ATOM     21  C   UNL     1       3.364   2.920  17.551  0.00  0.00    +0.000 C 
ATOM     22  F   UNL     1       4.521   3.425  17.035  0.00  0.00    +0.000 F 
ATOM     23  F   UNL     1       3.553   1.571  17.614  0.00  0.00    +0.000 F 
ATOM     24  F   UNL     1       2.420   3.118  16.589  0.00  0.00    +0.000 F 
ENDBRANCH  14  21
ENDBRANCH   7  11
BRANCH   1  26
ATOM     25  C   UNL     1      -0.130  14.157  22.382  0.00  0.00    +0.000 C 
ATOM     26  C   UNL     1      -0.870  13.131  21.507  0.00  0.00    +0.000 C 
BRANCH  26  27
ATOM     27  S   UNL     1      -1.518  11.761  22.563  0.00  0.00    +0.000 S 
BRANCH  27  28
ATOM     28  C   UNL     1      -3.144  12.243  22.875  0.00  0.00    +0.000 A 
ATOM     29  N   UNL     1      -3.759  12.291  24.033  0.00  0.00    +0.000 NA
ATOM     30  N   UNL     1      -5.071  12.640  23.792  0.00  0.00    +0.000 NA
ATOM     31  C   UNL     1      -5.206  12.815  22.496  0.00  0.00    +0.000 A 
ATOM     32  N   UNL     1      -4.007  12.610  21.884  0.00  0.00    +0.000 N 
ATOM     33  C   UNL     1      -3.737  12.749  20.478  0.00  0.00    +0.000 C 
ENDBRANCH  27  28
ENDBRANCH  26  27
ENDBRANCH   1  26
TORSDOF 5
ENDMDL
MODEL 2
REMARK VINA RESULT:      -8.7      1.042      1.731
REMARK  Name = 
REMARK  7 active torsions:
REMARK  status: ('A' for Active; 'I' for Inactive)
REMARK    1  A    between atoms: C_1  and  C_2
REMARK    2  A    between atoms: C_2  and  S_3
REMARK    3  A    between atoms: C_2  and  C_10
REMARK    4  A    between atoms: S_3  and  C_4
REMARK    5  A    between atoms: N_8  and  C_9
REMARK    6  A    between atoms: C_16  and  C_18
REMARK    7  A    between atoms: C_21  and  C_22
REMARK                            x       y       z     vdW  Elec       q    Type
REMARK                         _______ _______ _______ _____ _____    ______ ____
ROOT
ATOM      1  C   UNL     1      -0.244  12.179  21.444  0.00  0.00    +0.000 A 
ATOM      2  C   UNL     1       0.393  13.074  20.577  0.00  0.00    +0.000 A 
ATOM      3  C   UNL     1       1.186  12.577  19.558  0.00  0.00    +0.000 A 
ATOM      4  N   UNL     1       1.403  11.267  19.350  0.00  0.00    +0.000 NA
ATOM      5  C   UNL     1       0.803  10.392  20.168  0.00  0.00    +0.000 A 
ATOM      6  N   UNL     1       1.072   9.024  20.047  0.00  0.00    +0.000 N 
ATOM      7  C   UNL     1       1.902   8.456  19.101  0.00  0.00    +0.000 C 
ATOM      8  O   UNL     1       2.367   9.002  18.109  0.00  0.00    +0.000 OA
ATOM      9  C   UNL     1      -0.042  10.805  21.201  0.00  0.00    +0.000 A 
ATOM     10  H   UNL     1       0.654   8.418  20.732  0.00  0.00    +0.000 HD
ENDROOT
BRANCH   7  11
ATOM     11  C   UNL     1       2.201   7.059  19.362  0.00  0.00    +0.000 A 
ATOM     12  C   UNL     1       2.667   6.054  18.535  0.00  0.00    +0.000 A 
ATOM     13  C   UNL     1       2.695   4.833  19.265  0.00  0.00    +0.000 A 
ATOM     14  C   UNL     1       3.025   3.496  18.924  0.00  0.00    +0.000 A 
ATOM     15  C   UNL     1       2.925   2.525  19.942  0.00  0.00    +0.000 A 
ATOM     16  C   UNL     1       2.517   2.853  21.235  0.00  0.00    +0.000 A 
ATOM     17  C   UNL     1       2.178   4.166  21.567  0.00  0.00    +0.000 A 
ATOM     18  C   UNL     1       2.270   5.132  20.558  0.00  0.00    +0.000 A 
ATOM     19  N   UNL     1       1.966   6.475  20.589  0.00  0.00    +0.000 N 
ATOM     20  H   UNL     1       1.593   6.977  21.385  0.00  0.00    +0.000 HD
BRANCH  14  21
ATOM     21  C   UNL     1       3.447   3.071  17.542  0.00  0.00    +0.000 C 
ATOM     22  F   UNL     1       2.483   3.215  16.588  0.00  0.00    +0.000 F 
ATOM     23  F   UNL     1       4.520   3.775  17.083  0.00  0.00    +0.000 F 
ATOM     24  F   UNL     1       3.815   1.759  17.492  0.00  0.00    +0.000 F 
ENDBRANCH  14  21
ENDBRANCH   7  11
BRANCH   1  26
ATOM     25  C   UNL     1      -1.955  11.522  23.246  0.00  0.00    +0.000 C 
ATOM     26  C   UNL     1      -1.094  12.640  22.633  0.00  0.00    +0.000 C 
BRANCH  26  27
ATOM     27  S   UNL     1      -2.176  14.029  22.076  0.00  0.00    +0.000 S 
BRANCH  27  28
ATOM     28  C   UNL     1      -3.426  13.225  21.202  0.00  0.00    +0.000 A 
ATOM     29  N   UNL     1      -3.361  12.717  19.993  0.00  0.00    +0.000 NA
ATOM     30  N   UNL     1      -4.621  12.261  19.667  0.00  0.00    +0.000 NA
ATOM     31  C   UNL     1      -5.406  12.487  20.697  0.00  0.00    +0.000 A 
ATOM     32  N   UNL     1      -4.685  13.060  21.700  0.00  0.00    +0.000 N 
ATOM     33  C   UNL     1      -5.178  13.417  23.003  0.00  0.00    +0.000 C 
ENDBRANCH  27  28
ENDBRANCH  26  27
ENDBRANCH   1  26
TORSDOF 5
ENDMDL
MODEL 3
REMARK VINA RESULT:      -8.6      2.551      3.487
REMARK  Name = 
REMARK  7 active torsions:
REMARK  status: ('A' for Active; 'I' for Inactive)
REMARK    1  A    between atoms: C_1  and  C_2
REMARK    2  A    between atoms: C_2  and  S_3
REMARK    3  A    between atoms: C_2  and  C_10
REMARK    4  A    between atoms: S_3  and  C_4
REMARK    5  A    between atoms: N_8  and  C_9
REMARK    6  A    between atoms: C_16  and  C_18
REMARK    7  A    between atoms: C_21  and  C_22
REMARK                            x       y       z     vdW  Elec       q    Type
REMARK                         _______ _______ _______ _____ _____    ______ ____
ROOT
ATOM      1  C   UNL     1      -2.292  12.813  21.111  0.00  0.00    +0.000 A 
ATOM      2  C   UNL     1      -2.185  13.060  22.483  0.00  0.00    +0.000 A 
ATOM      3  C   UNL     1      -1.280  12.330  23.231  0.00  0.00    +0.000 A 
ATOM      4  N   UNL     1      -0.490  11.368  22.721  0.00  0.00    +0.000 NA
ATOM      5  C   UNL     1      -0.576  11.116  21.408  0.00  0.00    +0.000 A 
ATOM      6  N   UNL     1       0.159  10.063  20.850  0.00  0.00    +0.000 N 
ATOM      7  C   UNL     1       1.032   9.247  21.541  0.00  0.00    +0.000 C 
ATOM      8  O   UNL     1       1.461   9.423  22.674  0.00  0.00    +0.000 OA
ATOM      9  C   UNL     1      -1.438  11.829  20.572  0.00  0.00    +0.000 A 
ATOM     10  H   UNL     1       0.003   9.869  19.875  0.00  0.00    +0.000 HD
ENDROOT
BRANCH   7  11
ATOM     11  C   UNL     1       1.458   8.085  20.780  0.00  0.00    +0.000 A 
ATOM     12  C   UNL     1       1.396   6.734  21.063  0.00  0.00    +0.000 A 
ATOM     13  C   UNL     1       2.047   6.015  20.022  0.00  0.00    +0.000 A 
ATOM     14  C   UNL     1       2.329   4.641  19.810  0.00  0.00    +0.000 A 
ATOM     15  C   UNL     1       3.019   4.297  18.628  0.00  0.00    +0.000 A 
ATOM     16  C   UNL     1       3.414   5.259  17.699  0.00  0.00    +0.000 A 
ATOM     17  C   UNL     1       3.148   6.614  17.915  0.00  0.00    +0.000 A 
ATOM     18  C   UNL     1       2.470   6.960  19.089  0.00  0.00    +0.000 A 
ATOM     19  N   UNL     1       2.116   8.200  19.573  0.00  0.00    +0.000 N 
ATOM     20  H   UNL     1       2.327   9.087  19.134  0.00  0.00    +0.000 HD
BRANCH  14  21
ATOM     21  C   UNL     1       1.954   3.555  20.784  0.00  0.00    +0.000 C 
ATOM     22  F   UNL     1       2.379   3.771  22.061  0.00  0.00    +0.000 F 
ATOM     23  F   UNL     1       0.606   3.378  20.875  0.00  0.00    +0.000 F 
ATOM     24  F   UNL     1       2.465   2.341  20.430  0.00  0.00    +0.000 F 
ENDBRANCH  14  21
ENDBRANCH   7  11
BRANCH   1  26
ATOM     25  C   UNL     1      -3.970  14.748  20.887  0.00  0.00    +0.000 C 
ATOM     26  C   UNL     1      -3.307  13.534  20.215  0.00  0.00    +0.000 C 
BRANCH  26  27
ATOM     27  S   UNL     1      -4.601  12.320  19.702  0.00  0.00    +0.000 S 
BRANCH  27  28
ATOM     28  C   UNL     1      -5.789  12.466  20.943  0.00  0.00    +0.000 A 
ATOM     29  N   UNL     1      -5.666  12.154  22.212  0.00  0.00    +0.000 NA
ATOM     30  N   UNL     1      -6.896  12.346  22.806  0.00  0.00    +0.000 NA
ATOM     31  C   UNL     1      -7.720  12.790  21.883  0.00  0.00    +0.000 A 
ATOM     32  N   UNL     1      -7.055  12.914  20.702  0.00  0.00    +0.000 N 
ATOM     33  C   UNL     1      -7.601  13.409  19.467  0.00  0.00    +0.000 C 
ENDBRANCH  27  28
ENDBRANCH  26  27
ENDBRANCH   1  26
TORSDOF 5
ENDMDL
MODEL 4
REMARK VINA RESULT:      -8.6      1.926      2.527
REMARK  Name = 
REMARK  7 active torsions:
REMARK  status: ('A' for Active; 'I' for Inactive)
REMARK    1  A    between atoms: C_1  and  C_2
REMARK    2  A    between atoms: C_2  and  S_3
REMARK    3  A    between atoms: C_2  and  C_10
REMARK    4  A    between atoms: S_3  and  C_4
REMARK    5  A    between atoms: N_8  and  C_9
REMARK    6  A    between atoms: C_16  and  C_18
REMARK    7  A    between atoms: C_21  and  C_22
REMARK                            x       y       z     vdW  Elec       q    Type
REMARK                         _______ _______ _______ _____ _____    ______ ____
ROOT
ATOM      1  C   UNL     1      -0.165  12.258  21.030  0.00  0.00    +0.000 A 
ATOM      2  C   UNL     1       0.219  13.211  20.081  0.00  0.00    +0.000 A 
ATOM      3  C   UNL     1       0.887  12.798  18.943  0.00  0.00    +0.000 A 
ATOM      4  N   UNL     1       1.212  11.518  18.689  0.00  0.00    +0.000 NA
ATOM      5  C   UNL     1       0.853  10.588  19.584  0.00  0.00    +0.000 A 
ATOM      6  N   UNL     1       1.250   9.258  19.407  0.00  0.00    +0.000 N 
ATOM      7  C   UNL     1       1.974   8.779  18.334  0.00  0.00    +0.000 C 
ATOM      8  O   UNL     1       2.208   9.365  17.285  0.00  0.00    +0.000 OA
ATOM      9  C   UNL     1       0.146  10.913  20.745  0.00  0.00    +0.000 A 
ATOM     10  H   UNL     1       1.018   8.614  20.145  0.00  0.00    +0.000 HD
ENDROOT
BRANCH   7  11
ATOM     11  C   UNL     1       2.465   7.426  18.529  0.00  0.00    +0.000 A 
ATOM     12  C   UNL     1       2.008   6.394  19.326  0.00  0.00    +0.000 A 
ATOM     13  C   UNL     1       2.912   5.300  19.227  0.00  0.00    +0.000 A 
ATOM     14  C   UNL     1       2.979   4.026  19.847  0.00  0.00    +0.000 A 
ATOM     15  C   UNL     1       4.058   3.189  19.492  0.00  0.00    +0.000 A 
ATOM     16  C   UNL     1       5.027   3.587  18.571  0.00  0.00    +0.000 A 
ATOM     17  C   UNL     1       4.969   4.847  17.971  0.00  0.00    +0.000 A 
ATOM     18  C   UNL     1       3.904   5.683  18.325  0.00  0.00    +0.000 A 
ATOM     19  N   UNL     1       3.621   6.971  17.929  0.00  0.00    +0.000 N 
ATOM     20  H   UNL     1       4.186   7.534  17.306  0.00  0.00    +0.000 HD
BRANCH  14  21
ATOM     21  C   UNL     1       1.981   3.544  20.868  0.00  0.00    +0.000 C 
ATOM     22  F   UNL     1       2.311   3.834  22.159  0.00  0.00    +0.000 F 
ATOM     23  F   UNL     1       0.742   4.080  20.680  0.00  0.00    +0.000 F 
ATOM     24  F   UNL     1       1.811   2.192  20.830  0.00  0.00    +0.000 F 
ENDBRANCH  14  21
ENDBRANCH   7  11
BRANCH   1  26
ATOM     25  C   UNL     1      -1.533  11.439  23.047  0.00  0.00    +0.000 C 
ATOM     26  C   UNL     1      -0.857  12.631  22.347  0.00  0.00    +0.000 C 
BRANCH  26  27
ATOM     27  S   UNL     1      -2.109  13.944  21.999  0.00  0.00    +0.000 S 
BRANCH  27  28
ATOM     28  C   UNL     1      -3.545  13.315  22.716  0.00  0.00    +0.000 A 
ATOM     29  N   UNL     1      -4.413  12.486  22.182  0.00  0.00    +0.000 NA
ATOM     30  N   UNL     1      -5.449  12.336  23.080  0.00  0.00    +0.000 NA
ATOM     31  C   UNL     1      -5.166  13.060  24.140  0.00  0.00    +0.000 A 
ATOM     32  N   UNL     1      -3.959  13.666  23.968  0.00  0.00    +0.000 N 
ATOM     33  C   UNL     1      -3.285  14.505  24.922  0.00  0.00    +0.000 C 
ENDBRANCH  27  28
ENDBRANCH  26  27
ENDBRANCH   1  26
TORSDOF 5
ENDMDL
MODEL 5
REMARK VINA RESULT:      -8.5      1.935      2.518
REMARK  Name = 
REMARK  7 active torsions:
REMARK  status: ('A' for Active; 'I' for Inactive)
REMARK    1  A    between atoms: C_1  and  C_2
REMARK    2  A    between atoms: C_2  and  S_3
REMARK    3  A    between atoms: C_2  and  C_10
REMARK    4  A    between atoms: S_3  and  C_4
REMARK    5  A    between atoms: N_8  and  C_9
REMARK    6  A    between atoms: C_16  and  C_18
REMARK    7  A    between atoms: C_21  and  C_22
REMARK                            x       y       z     vdW  Elec       q    Type
REMARK                         _______ _______ _______ _____ _____    ______ ____
ROOT
ATOM      1  C   UNL     1      -0.041  11.630  21.304  0.00  0.00    +0.000 A 
ATOM      2  C   UNL     1       0.362  12.743  20.558  0.00  0.00    +0.000 A 
ATOM      3  C   UNL     1       1.062  12.547  19.381  0.00  0.00    +0.000 A 
ATOM      4  N   UNL     1       1.401  11.337  18.903  0.00  0.00    +0.000 NA
ATOM      5  C   UNL     1       1.024  10.258  19.601  0.00  0.00    +0.000 A 
ATOM      6  N   UNL     1       1.433   8.983  19.191  0.00  0.00    +0.000 N 
ATOM      7  C   UNL     1       2.187   8.711  18.067  0.00  0.00    +0.000 C 
ATOM      8  O   UNL     1       2.445   9.482  17.152  0.00  0.00    +0.000 OA
ATOM      9  C   UNL     1       0.285  10.361  20.782  0.00  0.00    +0.000 A 
ATOM     10  H   UNL     1       1.185   8.214  19.790  0.00  0.00    +0.000 HD
ENDROOT
BRANCH   7  11
ATOM     11  C   UNL     1       2.680   7.346  18.021  0.00  0.00    +0.000 A 
ATOM     12  C   UNL     1       3.714   6.772  17.306  0.00  0.00    +0.000 A 
ATOM     13  C   UNL     1       3.716   5.369  17.546  0.00  0.00    +0.000 A 
ATOM     14  C   UNL     1       4.497   4.293  17.052  0.00  0.00    +0.000 A 
ATOM     15  C   UNL     1       4.194   3.000  17.530  0.00  0.00    +0.000 A 
ATOM     16  C   UNL     1       3.170   2.777  18.449  0.00  0.00    +0.000 A 
ATOM     17  C   UNL     1       2.392   3.835  18.926  0.00  0.00    +0.000 A 
ATOM     18  C   UNL     1       2.685   5.118  18.449  0.00  0.00    +0.000 A 
ATOM     19  N   UNL     1       2.068   6.321  18.710  0.00  0.00    +0.000 N 
ATOM     20  H   UNL     1       1.255   6.451  19.301  0.00  0.00    +0.000 HD
BRANCH  14  21
ATOM     21  C   UNL     1       5.599   4.461  16.039  0.00  0.00    +0.000 C 
ATOM     22  F   UNL     1       6.698   5.121  16.506  0.00  0.00    +0.000 F 
ATOM     23  F   UNL     1       6.064   3.269  15.569  0.00  0.00    +0.000 F 
ATOM     24  F   UNL     1       5.194   5.161  14.942  0.00  0.00    +0.000 F 
ENDBRANCH  14  21
ENDBRANCH   7  11
BRANCH   1  26
ATOM     25  C   UNL     1      -1.128  10.396  23.280  0.00  0.00    +0.000 C 
ATOM     26  C   UNL     1      -0.769  11.752  22.647  0.00  0.00    +0.000 C 
BRANCH  26  27
ATOM     27  S   UNL     1      -2.303  12.750  22.393  0.00  0.00    +0.000 S 
BRANCH  27  28
ATOM     28  C   UNL     1      -2.197  13.951  23.625  0.00  0.00    +0.000 A 
ATOM     29  N   UNL     1      -1.111  14.447  24.172  0.00  0.00    +0.000 NA
ATOM     30  N   UNL     1      -1.508  15.306  25.176  0.00  0.00    +0.000 NA
ATOM     31  C   UNL     1      -2.822  15.321  25.192  0.00  0.00    +0.000 A 
ATOM     32  N   UNL     1      -3.297  14.509  24.208  0.00  0.00    +0.000 N 
ATOM     33  C   UNL     1      -4.680  14.293  23.878  0.00  0.00    +0.000 C 
ENDBRANCH  27  28
ENDBRANCH  26  27
ENDBRANCH   1  26
TORSDOF 5
ENDMDL
MODEL 6
REMARK VINA RESULT:      -8.5      1.973      2.538
REMARK  Name = 
REMARK  7 active torsions:
REMARK  status: ('A' for Active; 'I' for Inactive)
REMARK    1  A    between atoms: C_1  and  C_2
REMARK    2  A    between atoms: C_2  and  S_3
REMARK    3  A    between atoms: C_2  and  C_10
REMARK    4  A    between atoms: S_3  and  C_4
REMARK    5  A    between atoms: N_8  and  C_9
REMARK    6  A    between atoms: C_16  and  C_18
REMARK    7  A    between atoms: C_21  and  C_22
REMARK                            x       y       z     vdW  Elec       q    Type
REMARK                         _______ _______ _______ _____ _____    ______ ____
ROOT
ATOM      1  C   UNL     1       0.115  11.857  20.474  0.00  0.00    +0.000 A 
ATOM      2  C   UNL     1       0.847  12.763  19.700  0.00  0.00    +0.000 A 
ATOM      3  C   UNL     1       1.697  12.281  18.721  0.00  0.00    +0.000 A 
ATOM      4  N   UNL     1       1.883  10.974  18.469  0.00  0.00    +0.000 NA
ATOM      5  C   UNL     1       1.191  10.088  19.198  0.00  0.00    +0.000 A 
ATOM      6  N   UNL     1       1.420   8.717  19.033  0.00  0.00    +0.000 N 
ATOM      7  C   UNL     1       2.299   8.159  18.126  0.00  0.00    +0.000 C 
ATOM      8  O   UNL     1       2.857   8.730  17.198  0.00  0.00    +0.000 OA
ATOM      9  C   UNL     1       0.285  10.487  20.183  0.00  0.00    +0.000 A 
ATOM     10  H   UNL     1       0.929   8.098  19.656  0.00  0.00    +0.000 HD
ENDROOT
BRANCH   7  11
ATOM     11  C   UNL     1       2.528   6.742  18.343  0.00  0.00    +0.000 A 
ATOM     12  C   UNL     1       2.208   5.917  19.406  0.00  0.00    +0.000 A 
ATOM     13  C   UNL     1       2.748   4.622  19.162  0.00  0.00    +0.000 A 
ATOM     14  C   UNL     1       2.778   3.418  19.910  0.00  0.00    +0.000 A 
ATOM     15  C   UNL     1       3.428   2.310  19.327  0.00  0.00    +0.000 A 
ATOM     16  C   UNL     1       4.023   2.384  18.068  0.00  0.00    +0.000 A 
ATOM     17  C   UNL     1       4.006   3.574  17.337  0.00  0.00    +0.000 A 
ATOM     18  C   UNL     1       3.367   4.677  17.914  0.00  0.00    +0.000 A 
ATOM     19  N   UNL     1       3.233   5.966  17.448  0.00  0.00    +0.000 N 
ATOM     20  H   UNL     1       3.618   6.323  16.581  0.00  0.00    +0.000 HD
BRANCH  14  21
ATOM     21  C   UNL     1       2.178   3.278  21.285  0.00  0.00    +0.000 C 
ATOM     22  F   UNL     1       2.444   4.318  22.125  0.00  0.00    +0.000 F 
ATOM     23  F   UNL     1       0.819   3.175  21.254  0.00  0.00    +0.000 F 
ATOM     24  F   UNL     1       2.620   2.163  21.933  0.00  0.00    +0.000 F 
ENDBRANCH  14  21
ENDBRANCH   7  11
BRANCH   1  26
ATOM     25  C   UNL     1      -0.966  11.241  22.724  0.00  0.00    +0.000 C 
ATOM     26  C   UNL     1      -0.807  12.298  21.617  0.00  0.00    +0.000 C 
BRANCH  26  27
ATOM     27  S   UNL     1      -2.461  12.714  20.908  0.00  0.00    +0.000 S 
BRANCH  27  28
ATOM     28  C   UNL     1      -3.392  13.121  22.301  0.00  0.00    +0.000 A 
ATOM     29  N   UNL     1      -4.363  12.428  22.849  0.00  0.00    +0.000 NA
ATOM     30  N   UNL     1      -4.880  13.183  23.881  0.00  0.00    +0.000 NA
ATOM     31  C   UNL     1      -4.192  14.301  23.941  0.00  0.00    +0.000 A 
ATOM     32  N   UNL     1      -3.221  14.289  22.986  0.00  0.00    +0.000 N 
ATOM     33  C   UNL     1      -2.237  15.313  22.762  0.00  0.00    +0.000 C 
ENDBRANCH  27  28
ENDBRANCH  26  27
ENDBRANCH   1  26
TORSDOF 5
ENDMDL
MODEL 7
REMARK VINA RESULT:      -8.5      1.838      2.380
REMARK  Name = 
REMARK  7 active torsions:
REMARK  status: ('A' for Active; 'I' for Inactive)
REMARK    1  A    between atoms: C_1  and  C_2
REMARK    2  A    between atoms: C_2  and  S_3
REMARK    3  A    between atoms: C_2  and  C_10
REMARK    4  A    between atoms: S_3  and  C_4
REMARK    5  A    between atoms: N_8  and  C_9
REMARK    6  A    between atoms: C_16  and  C_18
REMARK    7  A    between atoms: C_21  and  C_22
REMARK                            x       y       z     vdW  Elec       q    Type
REMARK                         _______ _______ _______ _____ _____    ______ ____
ROOT
ATOM      1  C   UNL     1      -0.257  12.223  21.383  0.00  0.00    +0.000 A 
ATOM      2  C   UNL     1       0.108  13.242  20.498  0.00  0.00    +0.000 A 
ATOM      3  C   UNL     1       0.766  12.913  19.326  0.00  0.00    +0.000 A 
ATOM      4  N   UNL     1       1.099  11.657  18.981  0.00  0.00    +0.000 NA
ATOM      5  C   UNL     1       0.759  10.665  19.814  0.00  0.00    +0.000 A 
ATOM      6  N   UNL     1       1.165   9.354  19.542  0.00  0.00    +0.000 N 
ATOM      7  C   UNL     1       1.880   8.956  18.430  0.00  0.00    +0.000 C 
ATOM      8  O   UNL     1       2.097   9.615  17.422  0.00  0.00    +0.000 OA
ATOM      9  C   UNL     1       0.063  10.903  21.002  0.00  0.00    +0.000 A 
ATOM     10  H   UNL     1       0.947   8.659  20.236  0.00  0.00    +0.000 HD
ENDROOT
BRANCH   7  11
ATOM     11  C   UNL     1       2.385   7.598  18.526  0.00  0.00    +0.000 A 
ATOM     12  C   UNL     1       2.076   6.568  19.395  0.00  0.00    +0.000 A 
ATOM     13  C   UNL     1       2.934   5.464  19.124  0.00  0.00    +0.000 A 
ATOM     14  C   UNL     1       3.103   4.188  19.718  0.00  0.00    +0.000 A 
ATOM     15  C   UNL     1       4.086   3.341  19.163  0.00  0.00    +0.000 A 
ATOM     16  C   UNL     1       4.866   3.732  18.075  0.00  0.00    +0.000 A 
ATOM     17  C   UNL     1       4.708   4.995  17.498  0.00  0.00    +0.000 A 
ATOM     18  C   UNL     1       3.739   5.840  18.050  0.00  0.00    +0.000 A 
ATOM     19  N   UNL     1       3.400   7.133  17.717  0.00  0.00    +0.000 N 
ATOM     20  H   UNL     1       3.843   7.692  16.999  0.00  0.00    +0.000 HD
BRANCH  14  21
ATOM     21  C   UNL     1       2.313   3.713  20.909  0.00  0.00    +0.000 C 
ATOM     22  F   UNL     1       2.635   2.459  21.336  0.00  0.00    +0.000 F 
ATOM     23  F   UNL     1       2.472   4.519  21.997  0.00  0.00    +0.000 F 
ATOM     24  F   UNL     1       0.972   3.681  20.664  0.00  0.00    +0.000 F 
ENDBRANCH  14  21
ENDBRANCH   7  11
BRANCH   1  26
ATOM     25  C   UNL     1      -1.815  11.336  23.226  0.00  0.00    +0.000 C 
ATOM     26  C   UNL     1      -0.937  12.498  22.730  0.00  0.00    +0.000 C 
BRANCH  26  27
ATOM     27  S   UNL     1      -1.957  14.028  22.568  0.00  0.00    +0.000 S 
BRANCH  27  28
ATOM     28  C   UNL     1      -3.571  13.422  22.540  0.00  0.00    +0.000 A 
ATOM     29  N   UNL     1      -4.411  13.327  23.544  0.00  0.00    +0.000 NA
ATOM     30  N   UNL     1      -5.546  12.697  23.077  0.00  0.00    +0.000 NA
ATOM     31  C   UNL     1      -5.367  12.449  21.799  0.00  0.00    +0.000 A 
ATOM     32  N   UNL     1      -4.150  12.921  21.410  0.00  0.00    +0.000 N 
ATOM     33  C   UNL     1      -3.608  12.879  20.079  0.00  0.00    +0.000 C 
ENDBRANCH  27  28
ENDBRANCH  26  27
ENDBRANCH   1  26
TORSDOF 5
ENDMDL
MODEL 8
REMARK VINA RESULT:      -8.5      5.647     10.643
REMARK  Name = 
REMARK  7 active torsions:
REMARK  status: ('A' for Active; 'I' for Inactive)
REMARK    1  A    between atoms: C_1  and  C_2
REMARK    2  A    between atoms: C_2  and  S_3
REMARK    3  A    between atoms: C_2  and  C_10
REMARK    4  A    between atoms: S_3  and  C_4
REMARK    5  A    between atoms: N_8  and  C_9
REMARK    6  A    between atoms: C_16  and  C_18
REMARK    7  A    between atoms: C_21  and  C_22
REMARK                            x       y       z     vdW  Elec       q    Type
REMARK                         _______ _______ _______ _____ _____    ______ ____
ROOT
ATOM      1  C   UNL     1       4.825   5.596  17.529  0.00  0.00    +0.000 A 
ATOM      2  C   UNL     1       4.913   4.435  18.303  0.00  0.00    +0.000 A 
ATOM      3  C   UNL     1       4.085   4.294  19.402  0.00  0.00    +0.000 A 
ATOM      4  N   UNL     1       3.193   5.221  19.792  0.00  0.00    +0.000 NA
ATOM      5  C   UNL     1       3.092   6.341  19.064  0.00  0.00    +0.000 A 
ATOM      6  N   UNL     1       2.244   7.373  19.484  0.00  0.00    +0.000 N 
ATOM      7  C   UNL     1       1.437   7.335  20.603  0.00  0.00    +0.000 C 
ATOM      8  O   UNL     1       1.170   6.353  21.283  0.00  0.00    +0.000 OA
ATOM      9  C   UNL     1       3.865   6.552  17.920  0.00  0.00    +0.000 A 
ATOM     10  H   UNL     1       2.260   8.221  18.942  0.00  0.00    +0.000 HD
ENDROOT
BRANCH   7  11
ATOM     11  C   UNL     1       0.863   8.625  20.942  0.00  0.00    +0.000 A 
ATOM     12  C   UNL     1       1.035   9.878  20.383  0.00  0.00    +0.000 A 
ATOM     13  C   UNL     1       0.316  10.831  21.158  0.00  0.00    +0.000 A 
ATOM     14  C   UNL     1       0.175  12.240  21.090  0.00  0.00    +0.000 A 
ATOM     15  C   UNL     1      -0.641  12.856  22.063  0.00  0.00    +0.000 A 
ATOM     16  C   UNL     1      -1.284  12.120  23.057  0.00  0.00    +0.000 A 
ATOM     17  C   UNL     1      -1.135  10.734  23.133  0.00  0.00    +0.000 A 
ATOM     18  C   UNL     1      -0.321  10.119  22.173  0.00  0.00    +0.000 A 
ATOM     19  N   UNL     1       0.033   8.796  22.030  0.00  0.00    +0.000 N 
ATOM     20  H   UNL     1      -0.243   8.042  22.647  0.00  0.00    +0.000 HD
BRANCH  14  21
ATOM     21  C   UNL     1       0.862  13.097  20.060  0.00  0.00    +0.000 C 
ATOM     22  F   UNL     1       2.219  13.156  20.190  0.00  0.00    +0.000 F 
ATOM     23  F   UNL     1       0.639  12.664  18.787  0.00  0.00    +0.000 F 
ATOM     24  F   UNL     1       0.437  14.391  20.092  0.00  0.00    +0.000 F 
ENDBRANCH  14  21
ENDBRANCH   7  11
BRANCH   1  26
ATOM     25  C   UNL     1       5.101   6.754  15.250  0.00  0.00    +0.000 C 
ATOM     26  C   UNL     1       5.742   5.864  16.329  0.00  0.00    +0.000 C 
BRANCH  26  27
ATOM     27  S   UNL     1       6.232   4.243  15.593  0.00  0.00    +0.000 S 
BRANCH  27  28
ATOM     28  C   UNL     1       7.060   4.702  14.152  0.00  0.00    +0.000 A 
ATOM     29  N   UNL     1       8.058   5.547  14.033  0.00  0.00    +0.000 NA
ATOM     30  N   UNL     1       8.335   5.675  12.688  0.00  0.00    +0.000 NA
ATOM     31  C   UNL     1       7.511   4.887  12.035  0.00  0.00    +0.000 A 
ATOM     32  N   UNL     1       6.714   4.228  12.920  0.00  0.00    +0.000 N 
ATOM     33  C   UNL     1       5.715   3.246  12.597  0.00  0.00    +0.000 C 
ENDBRANCH  27  28
ENDBRANCH  26  27
ENDBRANCH   1  26
TORSDOF 5
ENDMDL
MODEL 9
REMARK VINA RESULT:      -8.4      1.999      2.850
REMARK  Name = 
REMARK  7 active torsions:
REMARK  status: ('A' for Active; 'I' for Inactive)
REMARK    1  A    between atoms: C_1  and  C_2
REMARK    2  A    between atoms: C_2  and  S_3
REMARK    3  A    between atoms: C_2  and  C_10
REMARK    4  A    between atoms: S_3  and  C_4
REMARK    5  A    between atoms: N_8  and  C_9
REMARK    6  A    between atoms: C_16  and  C_18
REMARK    7  A    between atoms: C_21  and  C_22
REMARK                            x       y       z     vdW  Elec       q    Type
REMARK                         _______ _______ _______ _____ _____    ______ ____
ROOT
ATOM      1  C   UNL     1      -1.929  12.279  19.794  0.00  0.00    +0.000 A 
ATOM      2  C   UNL     1      -1.185  13.446  19.590  0.00  0.00    +0.000 A 
ATOM      3  C   UNL     1       0.078  13.351  19.034  0.00  0.00    +0.000 A 
ATOM      4  N   UNL     1       0.656  12.189  18.683  0.00  0.00    +0.000 NA
ATOM      5  C   UNL     1      -0.039  11.060  18.869  0.00  0.00    +0.000 A 
ATOM      6  N   UNL     1       0.557   9.821  18.605  0.00  0.00    +0.000 N 
ATOM      7  C   UNL     1       1.835   9.640  18.113  0.00  0.00    +0.000 C 
ATOM      8  O   UNL     1       2.568  10.499  17.641  0.00  0.00    +0.000 OA
ATOM      9  C   UNL     1      -1.334  11.065  19.393  0.00  0.00    +0.000 A 
ATOM     10  H   UNL     1       0.019   9.002  18.831  0.00  0.00    +0.000 HD
ENDROOT
BRANCH   7  11
ATOM     11  C   UNL     1       2.286   8.261  18.177  0.00  0.00    +0.000 A 
ATOM     12  C   UNL     1       1.945   7.227  19.027  0.00  0.00    +0.000 A 
ATOM     13  C   UNL     1       2.756   6.096  18.725  0.00  0.00    +0.000 A 
ATOM     14  C   UNL     1       2.880   4.802  19.291  0.00  0.00    +0.000 A 
ATOM     15  C   UNL     1       3.823   3.929  18.709  0.00  0.00    +0.000 A 
ATOM     16  C   UNL     1       4.608   4.312  17.622  0.00  0.00    +0.000 A 
ATOM     17  C   UNL     1       4.496   5.591  17.073  0.00  0.00    +0.000 A 
ATOM     18  C   UNL     1       3.566   6.463  17.651  0.00  0.00    +0.000 A 
ATOM     19  N   UNL     1       3.275   7.774  17.348  0.00  0.00    +0.000 N 
ATOM     20  H   UNL     1       3.733   8.331  16.637  0.00  0.00    +0.000 HD
BRANCH  14  21
ATOM     21  C   UNL     1       2.083   4.334  20.480  0.00  0.00    +0.000 C 
ATOM     22  F   UNL     1       2.462   3.120  20.971  0.00  0.00    +0.000 F 
ATOM     23  F   UNL     1       2.164   5.193  21.535  0.00  0.00    +0.000 F 
ATOM     24  F   UNL     1       0.754   4.215  20.200  0.00  0.00    +0.000 F 
ENDBRANCH  14  21
ENDBRANCH   7  11
BRANCH   1  26
ATOM     25  C   UNL     1      -4.476  12.340  19.451  0.00  0.00    +0.000 C 
ATOM     26  C   UNL     1      -3.313  12.283  20.455  0.00  0.00    +0.000 C 
BRANCH  26  27
ATOM     27  S   UNL     1      -3.408  13.724  21.606  0.00  0.00    +0.000 S 
BRANCH  27  28
ATOM     28  C   UNL     1      -4.376  13.128  22.901  0.00  0.00    +0.000 A 
ATOM     29  N   UNL     1      -4.013  12.320  23.870  0.00  0.00    +0.000 NA
ATOM     30  N   UNL     1      -5.136  12.038  24.619  0.00  0.00    +0.000 NA
ATOM     31  C   UNL     1      -6.142  12.702  24.094  0.00  0.00    +0.000 A 
ATOM     32  N   UNL     1      -5.701  13.430  23.031  0.00  0.00    +0.000 N 
ATOM     33  C   UNL     1      -6.491  14.318  22.223  0.00  0.00    +0.000 C 
ENDBRANCH  27  28
ENDBRANCH  26  27
ENDBRANCH   1  26
TORSDOF 5
ENDMDL
