MODEL 1
REMARK VINA RESULT:      -8.8      0.000      0.000
REMARK  Name = 
REMARK  7 active torsions:
REMARK  status: ('A' for Active; 'I' for Inactive)
REMARK    1  A    between atoms: C_1  and  C_2
REMARK    2  A    between atoms: C_2  and  C_3
REMARK    3  A    between atoms: C_2  and  C_10
REMARK    4  A    between atoms: C_3  and  C_4
REMARK    5  A    between atoms: N_8  and  C_9
REMARK    6  A    between atoms: C_12  and  C_13
REMARK    7  A    between atoms: C_25  and  C_26
REMARK                            x       y       z     vdW  Elec       q    Type
REMARK                         _______ _______ _______ _____ _____    ______ ____
ROOT
ATOM      1  C   UNL     1       0.284  10.498  21.237  0.00  0.00    +0.000 A 
ATOM      2  C   UNL     1       0.426  11.543  20.323  0.00  0.00    +0.000 A 
ATOM      3  C   UNL     1       1.132  11.348  19.137  0.00  0.00    +0.000 A 
ATOM      4  N   UNL     1       1.659  10.137  18.836  0.00  0.00    +0.000 NA
ATOM      5  C   UNL     1       1.491   9.096  19.673  0.00  0.00    +0.000 A 
ATOM      6  N   UNL     1       2.027   7.841  19.319  0.00  0.00    +0.000 N 
ATOM      7  C   UNL     1       1.833   6.649  20.124  0.00  0.00    +0.000 C 
ATOM      8  C   UNL     1       2.515   5.579  19.333  0.00  0.00    +0.000 A 
ATOM      9  C   UNL     1       3.087   6.146  18.197  0.00  0.00    +0.000 A 
ATOM     10  C   UNL     1       3.808   5.409  17.274  0.00  0.00    +0.000 A 
ATOM     11  C   UNL     1       3.948   4.043  17.514  0.00  0.00    +0.000 A 
ATOM     12  C   UNL     1       3.366   3.452  18.650  0.00  0.00    +0.000 A 
ATOM     13  C   UNL     1       2.629   4.215  19.580  0.00  0.00    +0.000 A 
ATOM     14  C   UNL     1       2.773   7.586  18.172  0.00  0.00    +0.000 C 
ATOM     15  O   UNL     1       3.146   8.298  17.263  0.00  0.00    +0.000 OA
ATOM     16  C   UNL     1       0.799   9.250  20.873  0.00  0.00    +0.000 A 
ENDROOT
BRANCH  13  17
ATOM     17  C   UNL     1       1.994   3.542  20.770  0.00  0.00    +0.000 C 
ATOM     18  F   UNL     1       2.432   4.022  21.965  0.00  0.00    +0.000 F 
ATOM     19  F   UNL     1       0.641   3.684  20.782  0.00  0.00    +0.000 F 
ATOM     20  F   UNL     1       2.232   2.202  20.797  0.00  0.00    +0.000 F 
ENDBRANCH  13  17
BRANCH   3  21
ATOM     21  C   UNL     1       1.346  12.503  18.185  0.00  0.00    +0.000 C 
ATOM     22  C   UNL     1       1.392  13.929  18.685  0.00  0.00    +0.000 C 
ATOM     23  C   UNL     1       2.653  13.262  18.225  0.00  0.00    +0.000 C 
ENDBRANCH   3  21
BRANCH   1  25
ATOM     24  C   UNL     1      -0.594   9.460  23.398  0.00  0.00    +0.000 C 
ATOM     25  C   UNL     1      -0.369  10.747  22.589  0.00  0.00    +0.000 C 
BRANCH  25  26
ATOM     26  C   UNL     1      -1.617  11.652  22.527  0.00  0.00    +0.000 C 
BRANCH  26  27
ATOM     27  C   UNL     1      -1.457  12.981  23.184  0.00  0.00    +0.000 A 
ATOM     28  N   UNL     1      -0.365  13.718  23.219  0.00  0.00    +0.000 NA
ATOM     29  N   UNL     1      -0.618  14.830  23.983  0.00  0.00    +0.000 NA
ATOM     30  C   UNL     1      -1.868  14.766  24.374  0.00  0.00    +0.000 A 
ATOM     31  N   UNL     1      -2.448  13.651  23.856  0.00  0.00    +0.000 N 
ATOM     32  C   UNL     1      -3.836  13.290  23.964  0.00  0.00    +0.000 C 
ENDBRANCH  26  27
ENDBRANCH  25  26
ENDBRANCH   1  25
TORSDOF 5
ENDMDL
MODEL 2
REMARK VINA RESULT:      -8.3      4.402      9.351
REMARK  Name = 
REMARK  7 active torsions:
REMARK  status: ('A' for Active; 'I' for Inactive)
REMARK    1  A    between atoms: C_1  and  C_2
REMARK    2  A    between atoms: C_2  and  C_3
REMARK    3  A    between atoms: C_2  and  C_10
REMARK    4  A    between atoms: C_3  and  C_4
REMARK    5  A    between atoms: N_8  and  C_9
REMARK    6  A    between atoms: C_12  and  C_13
REMARK    7  A    between atoms: C_25  and  C_26
REMARK                            x       y       z     vdW  Elec       q    Type
REMARK                         _______ _______ _______ _____ _____    ______ ____
ROOT
ATOM      1  C   UNL     1       4.664   5.255  16.698  0.00  0.00    +0.000 A 
ATOM      2  C   UNL     1       4.457   3.959  17.173  0.00  0.00    +0.000 A 
ATOM      3  C   UNL     1       3.652   3.740  18.291  0.00  0.00    +0.000 A 
ATOM      4  N   UNL     1       3.033   4.773  18.911  0.00  0.00    +0.000 NA
ATOM      5  C   UNL     1       3.171   6.028  18.442  0.00  0.00    +0.000 A 
ATOM      6  N   UNL     1       2.492   7.078  19.093  0.00  0.00    +0.000 N 
ATOM      7  C   UNL     1       2.523   8.448  18.616  0.00  0.00    +0.000 C 
ATOM      8  C   UNL     1       1.626   9.171  19.568  0.00  0.00    +0.000 A 
ATOM      9  C   UNL     1       1.169   8.276  20.532  0.00  0.00    +0.000 A 
ATOM     10  C   UNL     1       0.333   8.654  21.568  0.00  0.00    +0.000 A 
ATOM     11  C   UNL     1      -0.056   9.992  21.623  0.00  0.00    +0.000 A 
ATOM     12  C   UNL     1       0.386  10.906  20.649  0.00  0.00    +0.000 A 
ATOM     13  C   UNL     1       1.235  10.506  19.596  0.00  0.00    +0.000 A 
ATOM     14  C   UNL     1       1.706   6.936  20.233  0.00  0.00    +0.000 C 
ATOM     15  O   UNL     1       1.429   5.977  20.923  0.00  0.00    +0.000 OA
ATOM     16  C   UNL     1       3.972   6.291  17.333  0.00  0.00    +0.000 A 
ENDROOT
BRANCH  13  17
ATOM     17  C   UNL     1       1.665  11.507  18.554  0.00  0.00    +0.000 C 
ATOM     18  F   UNL     1       2.604  12.385  18.997  0.00  0.00    +0.000 F 
ATOM     19  F   UNL     1       2.199  10.910  17.454  0.00  0.00    +0.000 F 
ATOM     20  F   UNL     1       0.628  12.266  18.104  0.00  0.00    +0.000 F 
ENDBRANCH  13  17
BRANCH   3  21
ATOM     21  C   UNL     1       3.491   2.342  18.845  0.00  0.00    +0.000 C 
ATOM     22  C   UNL     1       3.024   2.114  20.265  0.00  0.00    +0.000 C 
ATOM     23  C   UNL     1       2.102   1.813  19.122  0.00  0.00    +0.000 C 
ENDBRANCH   3  21
BRANCH   1  25
ATOM     24  C   UNL     1       5.230   4.838  14.244  0.00  0.00    +0.000 C 
ATOM     25  C   UNL     1       5.646   5.506  15.564  0.00  0.00    +0.000 C 
BRANCH  25  26
ATOM     26  C   UNL     1       7.119   5.245  15.939  0.00  0.00    +0.000 C 
BRANCH  26  27
ATOM     27  C   UNL     1       7.441   5.448  17.381  0.00  0.00    +0.000 A 
ATOM     28  N   UNL     1       7.648   4.510  18.283  0.00  0.00    +0.000 NA
ATOM     29  N   UNL     1       7.843   5.116  19.500  0.00  0.00    +0.000 NA
ATOM     30  C   UNL     1       7.782   6.413  19.311  0.00  0.00    +0.000 A 
ATOM     31  N   UNL     1       7.584   6.669  17.991  0.00  0.00    +0.000 N 
ATOM     32  C   UNL     1       7.575   7.967  17.372  0.00  0.00    +0.000 C 
ENDBRANCH  26  27
ENDBRANCH  25  26
ENDBRANCH   1  25
TORSDOF 5
ENDMDL
MODEL 3
REMARK VINA RESULT:      -8.3      3.295      4.819
REMARK  Name = 
REMARK  7 active torsions:
REMARK  status: ('A' for Active; 'I' for Inactive)
REMARK    1  A    between atoms: C_1  and  C_2
REMARK    2  A    between atoms: C_2  and  C_3
REMARK    3  A    between atoms: C_2  and  C_10
REMARK    4  A    between atoms: C_3  and  C_4
REMARK    5  A    between atoms: N_8  and  C_9
REMARK    6  A    between atoms: C_12  and  C_13
REMARK    7  A    between atoms: C_25  and  C_26
REMARK                            x       y       z     vdW  Elec       q    Type
REMARK                         _______ _______ _______ _____ _____    ______ ____
ROOT
ATOM      1  C   UNL     1       1.014  10.802  19.216  0.00  0.00    +0.000 A 
ATOM      2  C   UNL     1       0.297  10.671  20.406  0.00  0.00    +0.000 A 
ATOM      3  C   UNL     1       0.252   9.444  21.067  0.00  0.00    +0.000 A 
ATOM      4  N   UNL     1       0.929   8.373  20.587  0.00  0.00    +0.000 NA
ATOM      5  C   UNL     1       1.674   8.485  19.471  0.00  0.00    +0.000 A 
ATOM      6  N   UNL     1       2.389   7.360  19.011  0.00  0.00    +0.000 N 
ATOM      7  C   UNL     1       3.273   7.407  17.861  0.00  0.00    +0.000 C 
ATOM      8  C   UNL     1       3.842   6.026  17.801  0.00  0.00    +0.000 A 
ATOM      9  C   UNL     1       3.278   5.256  18.815  0.00  0.00    +0.000 A 
ATOM     10  C   UNL     1       3.592   3.922  19.004  0.00  0.00    +0.000 A 
ATOM     11  C   UNL     1       4.517   3.351  18.131  0.00  0.00    +0.000 A 
ATOM     12  C   UNL     1       5.106   4.119  17.110  0.00  0.00    +0.000 A 
ATOM     13  C   UNL     1       4.780   5.480  16.932  0.00  0.00    +0.000 A 
ATOM     14  C   UNL     1       2.358   6.099  19.600  0.00  0.00    +0.000 C 
ATOM     15  O   UNL     1       1.759   5.657  20.557  0.00  0.00    +0.000 OA
ATOM     16  C   UNL     1       1.739   9.691  18.775  0.00  0.00    +0.000 A 
ENDROOT
BRANCH  13  17
ATOM     17  C   UNL     1       5.453   6.278  15.844  0.00  0.00    +0.000 C 
ATOM     18  F   UNL     1       6.382   7.157  16.309  0.00  0.00    +0.000 F 
ATOM     19  F   UNL     1       6.102   5.485  14.948  0.00  0.00    +0.000 F 
ATOM     20  F   UNL     1       4.570   7.018  15.120  0.00  0.00    +0.000 F 
ENDBRANCH  13  17
BRANCH   3  21
ATOM     21  C   UNL     1      -0.586   9.288  22.316  0.00  0.00    +0.000 C 
ATOM     22  C   UNL     1       0.011   9.496  23.689  0.00  0.00    +0.000 C 
ATOM     23  C   UNL     1      -0.937  10.513  23.129  0.00  0.00    +0.000 C 
ENDBRANCH   3  21
BRANCH   1  25
ATOM     24  C   UNL     1       2.249  12.924  18.515  0.00  0.00    +0.000 C 
ATOM     25  C   UNL     1       0.954  12.101  18.426  0.00  0.00    +0.000 C 
BRANCH  25  26
ATOM     26  C   UNL     1      -0.316  12.936  18.686  0.00  0.00    +0.000 C 
BRANCH  26  27
ATOM     27  C   UNL     1      -1.594  12.256  18.328  0.00  0.00    +0.000 A 
ATOM     28  N   UNL     1      -1.856  11.603  17.213  0.00  0.00    +0.000 NA
ATOM     29  N   UNL     1      -3.165  11.192  17.249  0.00  0.00    +0.000 NA
ATOM     30  C   UNL     1      -3.669  11.574  18.399  0.00  0.00    +0.000 A 
ATOM     31  N   UNL     1      -2.707  12.199  19.128  0.00  0.00    +0.000 N 
ATOM     32  C   UNL     1      -2.839  12.658  20.485  0.00  0.00    +0.000 C 
ENDBRANCH  26  27
ENDBRANCH  25  26
ENDBRANCH   1  25
TORSDOF 5
ENDMDL
MODEL 4
REMARK VINA RESULT:      -8.2      4.379     10.123
REMARK  Name = 
REMARK  7 active torsions:
REMARK  status: ('A' for Active; 'I' for Inactive)
REMARK    1  A    between atoms: C_1  and  C_2
REMARK    2  A    between atoms: C_2  and  C_3
REMARK    3  A    between atoms: C_2  and  C_10
REMARK    4  A    between atoms: C_3  and  C_4
REMARK    5  A    between atoms: N_8  and  C_9
REMARK    6  A    between atoms: C_12  and  C_13
REMARK    7  A    between atoms: C_25  and  C_26
REMARK                            x       y       z     vdW  Elec       q    Type
REMARK                         _______ _______ _______ _____ _____    ______ ____
ROOT
ATOM      1  C   UNL     1       4.263   5.740  17.334  0.00  0.00    +0.000 A 
ATOM      2  C   UNL     1       4.038   4.460  17.843  0.00  0.00    +0.000 A 
ATOM      3  C   UNL     1       3.201   4.279  18.944  0.00  0.00    +0.000 A 
ATOM      4  N   UNL     1       2.569   5.333  19.514  0.00  0.00    +0.000 NA
ATOM      5  C   UNL     1       2.724   6.571  19.010  0.00  0.00    +0.000 A 
ATOM      6  N   UNL     1       2.030   7.644  19.608  0.00  0.00    +0.000 N 
ATOM      7  C   UNL     1       2.080   8.998  19.089  0.00  0.00    +0.000 C 
ATOM      8  C   UNL     1       1.159   9.753  19.993  0.00  0.00    +0.000 A 
ATOM      9  C   UNL     1       0.672   8.889  20.971  0.00  0.00    +0.000 A 
ATOM     10  C   UNL     1      -0.192   9.302  21.970  0.00  0.00    +0.000 A 
ATOM     11  C   UNL     1      -0.577  10.642  21.972  0.00  0.00    +0.000 A 
ATOM     12  C   UNL     1      -0.105  11.524  20.983  0.00  0.00    +0.000 A 
ATOM     13  C   UNL     1       0.772  11.089  19.967  0.00  0.00    +0.000 A 
ATOM     14  C   UNL     1       1.212   7.539  20.729  0.00  0.00    +0.000 C 
ATOM     15  O   UNL     1       0.913   6.604  21.440  0.00  0.00    +0.000 OA
ATOM     16  C   UNL     1       3.557   6.798  17.916  0.00  0.00    +0.000 A 
ENDROOT
BRANCH  13  17
ATOM     17  C   UNL     1       1.234  12.056  18.907  0.00  0.00    +0.000 C 
ATOM     18  F   UNL     1       2.134  11.522  18.038  0.00  0.00    +0.000 F 
ATOM     19  F   UNL     1       0.205  12.517  18.146  0.00  0.00    +0.000 F 
ATOM     20  F   UNL     1       1.834  13.157  19.436  0.00  0.00    +0.000 F 
ENDBRANCH  13  17
BRANCH   3  21
ATOM     21  C   UNL     1       3.019   2.900  19.537  0.00  0.00    +0.000 C 
ATOM     22  C   UNL     1       1.941   2.626  20.560  0.00  0.00    +0.000 C 
ATOM     23  C   UNL     1       1.797   2.091  19.166  0.00  0.00    +0.000 C 
ENDBRANCH   3  21
BRANCH   1  25
ATOM     24  C   UNL     1       4.864   7.051  15.227  0.00  0.00    +0.000 C 
ATOM     25  C   UNL     1       5.277   5.953  16.220  0.00  0.00    +0.000 C 
BRANCH  25  26
ATOM     26  C   UNL     1       5.736   4.652  15.531  0.00  0.00    +0.000 C 
BRANCH  26  27
ATOM     27  C   UNL     1       6.726   4.844  14.433  0.00  0.00    +0.000 A 
ATOM     28  N   UNL     1       7.850   5.530  14.493  0.00  0.00    +0.000 NA
ATOM     29  N   UNL     1       8.432   5.517  13.250  0.00  0.00    +0.000 NA
ATOM     30  C   UNL     1       7.669   4.798  12.462  0.00  0.00    +0.000 A 
ATOM     31  N   UNL     1       6.616   4.313  13.172  0.00  0.00    +0.000 N 
ATOM     32  C   UNL     1       5.623   3.392  12.690  0.00  0.00    +0.000 C 
ENDBRANCH  26  27
ENDBRANCH  25  26
ENDBRANCH   1  25
TORSDOF 5
ENDMDL
MODEL 5
REMARK VINA RESULT:      -8.2      4.264      9.221
REMARK  Name = 
REMARK  7 active torsions:
REMARK  status: ('A' for Active; 'I' for Inactive)
REMARK    1  A    between atoms: C_1  and  C_2
REMARK    2  A    between atoms: C_2  and  C_3
REMARK    3  A    between atoms: C_2  and  C_10
REMARK    4  A    between atoms: C_3  and  C_4
REMARK    5  A    between atoms: N_8  and  C_9
REMARK    6  A    between atoms: C_12  and  C_13
REMARK    7  A    between atoms: C_25  and  C_26
REMARK                            x       y       z     vdW  Elec       q    Type
REMARK                         _______ _______ _______ _____ _____    ______ ____
ROOT
ATOM      1  C   UNL     1       4.448   5.460  17.099  0.00  0.00    +0.000 A 
ATOM      2  C   UNL     1       4.198   4.171  17.571  0.00  0.00    +0.000 A 
ATOM      3  C   UNL     1       3.346   3.973  18.657  0.00  0.00    +0.000 A 
ATOM      4  N   UNL     1       2.724   5.020  19.249  0.00  0.00    +0.000 NA
ATOM      5  C   UNL     1       2.903   6.270  18.781  0.00  0.00    +0.000 A 
ATOM      6  N   UNL     1       2.219   7.336  19.400  0.00  0.00    +0.000 N 
ATOM      7  C   UNL     1       2.296   8.703  18.919  0.00  0.00    +0.000 C 
ATOM      8  C   UNL     1       1.376   9.447  19.833  0.00  0.00    +0.000 A 
ATOM      9  C   UNL     1       0.866   8.565  20.782  0.00  0.00    +0.000 A 
ATOM     10  C   UNL     1      -0.003   8.964  21.783  0.00  0.00    +0.000 A 
ATOM     11  C   UNL     1      -0.368  10.309  21.817  0.00  0.00    +0.000 A 
ATOM     12  C   UNL     1       0.129  11.210  20.857  0.00  0.00    +0.000 A 
ATOM     13  C   UNL     1       1.010  10.789  19.839  0.00  0.00    +0.000 A 
ATOM     14  C   UNL     1       1.388   7.214  20.509  0.00  0.00    +0.000 C 
ATOM     15  O   UNL     1       1.066   6.264  21.192  0.00  0.00    +0.000 OA
ATOM     16  C   UNL     1       3.752   6.512  17.702  0.00  0.00    +0.000 A 
ENDROOT
BRANCH  13  17
ATOM     17  C   UNL     1       1.499  11.777  18.811  0.00  0.00    +0.000 C 
ATOM     18  F   UNL     1       0.502  12.496  18.228  0.00  0.00    +0.000 F 
ATOM     19  F   UNL     1       2.358  12.690  19.341  0.00  0.00    +0.000 F 
ATOM     20  F   UNL     1       2.171  11.176  17.791  0.00  0.00    +0.000 F 
ENDBRANCH  13  17
BRANCH   3  21
ATOM     21  C   UNL     1       3.137   2.581  19.211  0.00  0.00    +0.000 C 
ATOM     22  C   UNL     1       3.764   1.375  18.549  0.00  0.00    +0.000 C 
ATOM     23  C   UNL     1       4.296   1.863  19.864  0.00  0.00    +0.000 C 
ENDBRANCH   3  21
BRANCH   1  25
ATOM     24  C   UNL     1       5.185   4.887  14.723  0.00  0.00    +0.000 C 
ATOM     25  C   UNL     1       5.477   5.687  16.002  0.00  0.00    +0.000 C 
BRANCH  25  26
ATOM     26  C   UNL     1       6.939   5.561  16.478  0.00  0.00    +0.000 C 
BRANCH  26  27
ATOM     27  C   UNL     1       7.438   6.719  17.275  0.00  0.00    +0.000 A 
ATOM     28  N   UNL     1       7.473   7.981  16.897  0.00  0.00    +0.000 NA
ATOM     29  N   UNL     1       8.069   8.714  17.893  0.00  0.00    +0.000 NA
ATOM     30  C   UNL     1       8.359   7.891  18.872  0.00  0.00    +0.000 A 
ATOM     31  N   UNL     1       7.935   6.639  18.551  0.00  0.00    +0.000 N 
ATOM     32  C   UNL     1       7.969   5.488  19.411  0.00  0.00    +0.000 C 
ENDBRANCH  26  27
ENDBRANCH  25  26
ENDBRANCH   1  25
TORSDOF 5
ENDMDL
MODEL 6
REMARK VINA RESULT:      -8.2      3.128      4.676
REMARK  Name = 
REMARK  7 active torsions:
REMARK  status: ('A' for Active; 'I' for Inactive)
REMARK    1  A    between atoms: C_1  and  C_2
REMARK    2  A    between atoms: C_2  and  C_3
REMARK    3  A    between atoms: C_2  and  C_10
REMARK    4  A    between atoms: C_3  and  C_4
REMARK    5  A    between atoms: N_8  and  C_9
REMARK    6  A    between atoms: C_12  and  C_13
REMARK    7  A    between atoms: C_25  and  C_26
REMARK                            x       y       z     vdW  Elec       q    Type
REMARK                         _______ _______ _______ _____ _____    ______ ____
ROOT
ATOM      1  C   UNL     1       1.202  10.879  19.309  0.00  0.00    +0.000 A 
ATOM      2  C   UNL     1       0.446  10.726  20.472  0.00  0.00    +0.000 A 
ATOM      3  C   UNL     1       0.308   9.469  21.060  0.00  0.00    +0.000 A 
ATOM      4  N   UNL     1       0.930   8.386  20.534  0.00  0.00    +0.000 NA
ATOM      5  C   UNL     1       1.710   8.514  19.444  0.00  0.00    +0.000 A 
ATOM      6  N   UNL     1       2.366   7.374  18.936  0.00  0.00    +0.000 N 
ATOM      7  C   UNL     1       3.281   7.431  17.811  0.00  0.00    +0.000 C 
ATOM      8  C   UNL     1       3.766   6.022  17.684  0.00  0.00    +0.000 A 
ATOM      9  C   UNL     1       3.129   5.233  18.638  0.00  0.00    +0.000 A 
ATOM     10  C   UNL     1       3.356   3.873  18.756  0.00  0.00    +0.000 A 
ATOM     11  C   UNL     1       4.267   3.296  17.873  0.00  0.00    +0.000 A 
ATOM     12  C   UNL     1       4.928   4.081  16.912  0.00  0.00    +0.000 A 
ATOM     13  C   UNL     1       4.692   5.468  16.806  0.00  0.00    +0.000 A 
ATOM     14  C   UNL     1       2.242   6.087  19.450  0.00  0.00    +0.000 C 
ATOM     15  O   UNL     1       1.592   5.629  20.366  0.00  0.00    +0.000 OA
ATOM     16  C   UNL     1       1.868   9.751  18.821  0.00  0.00    +0.000 A 
ENDROOT
BRANCH  13  17
ATOM     17  C   UNL     1       5.441   6.283  15.783  0.00  0.00    +0.000 C 
ATOM     18  F   UNL     1       4.643   7.105  15.051  0.00  0.00    +0.000 F 
ATOM     19  F   UNL     1       6.384   7.083  16.351  0.00  0.00    +0.000 F 
ATOM     20  F   UNL     1       6.102   5.505  14.882  0.00  0.00    +0.000 F 
ENDBRANCH  13  17
BRANCH   3  21
ATOM     21  C   UNL     1      -0.571   9.295  22.278  0.00  0.00    +0.000 C 
ATOM     22  C   UNL     1      -0.016   9.470  23.673  0.00  0.00    +0.000 C 
ATOM     23  C   UNL     1      -0.936  10.507  23.105  0.00  0.00    +0.000 C 
ENDBRANCH   3  21
BRANCH   1  25
ATOM     24  C   UNL     1       2.645  12.597  18.092  0.00  0.00    +0.000 C 
ATOM     25  C   UNL     1       1.242  12.221  18.595  0.00  0.00    +0.000 C 
BRANCH  25  26
ATOM     26  C   UNL     1       0.546  13.363  19.363  0.00  0.00    +0.000 C 
BRANCH  26  27
ATOM     27  C   UNL     1       1.424  14.099  20.318  0.00  0.00    +0.000 A 
ATOM     28  N   UNL     1       1.869  13.661  21.478  0.00  0.00    +0.000 NA
ATOM     29  N   UNL     1       2.584  14.670  22.076  0.00  0.00    +0.000 NA
ATOM     30  C   UNL     1       2.587  15.693  21.255  0.00  0.00    +0.000 A 
ATOM     31  N   UNL     1       1.917  15.364  20.119  0.00  0.00    +0.000 N 
ATOM     32  C   UNL     1       1.800  16.178  18.939  0.00  0.00    +0.000 C 
ENDBRANCH  26  27
ENDBRANCH  25  26
ENDBRANCH   1  25
TORSDOF 5
ENDMDL
MODEL 7
REMARK VINA RESULT:      -8.2      4.191      9.164
REMARK  Name = 
REMARK  7 active torsions:
REMARK  status: ('A' for Active; 'I' for Inactive)
REMARK    1  A    between atoms: C_1  and  C_2
REMARK    2  A    between atoms: C_2  and  C_3
REMARK    3  A    between atoms: C_2  and  C_10
REMARK    4  A    between atoms: C_3  and  C_4
REMARK    5  A    between atoms: N_8  and  C_9
REMARK    6  A    between atoms: C_12  and  C_13
REMARK    7  A    between atoms: C_25  and  C_26
REMARK                            x       y       z     vdW  Elec       q    Type
REMARK                         _______ _______ _______ _____ _____    ______ ____
ROOT
ATOM      1  C   UNL     1       4.157   5.549  17.343  0.00  0.00    +0.000 A 
ATOM      2  C   UNL     1       3.748   4.330  17.885  0.00  0.00    +0.000 A 
ATOM      3  C   UNL     1       2.841   4.300  18.944  0.00  0.00    +0.000 A 
ATOM      4  N   UNL     1       2.317   5.447  19.439  0.00  0.00    +0.000 NA
ATOM      5  C   UNL     1       2.651   6.634  18.900  0.00  0.00    +0.000 A 
ATOM      6  N   UNL     1       2.068   7.808  19.419  0.00  0.00    +0.000 N 
ATOM      7  C   UNL     1       2.313   9.123  18.855  0.00  0.00    +0.000 C 
ATOM      8  C   UNL     1       1.449  10.023  19.679  0.00  0.00    +0.000 A 
ATOM      9  C   UNL     1       0.809   9.269  20.659  0.00  0.00    +0.000 A 
ATOM     10  C   UNL     1      -0.046   9.828  21.592  0.00  0.00    +0.000 A 
ATOM     11  C   UNL     1      -0.260  11.203  21.524  0.00  0.00    +0.000 A 
ATOM     12  C   UNL     1       0.369  11.977  20.532  0.00  0.00    +0.000 A 
ATOM     13  C   UNL     1       1.234  11.394  19.583  0.00  0.00    +0.000 A 
ATOM     14  C   UNL     1       1.187   7.854  20.496  0.00  0.00    +0.000 C 
ATOM     15  O   UNL     1       0.737   6.993  21.223  0.00  0.00    +0.000 OA
ATOM     16  C   UNL     1       3.561   6.709  17.846  0.00  0.00    +0.000 A 
ENDROOT
BRANCH  13  17
ATOM     17  C   UNL     1       1.867  12.251  18.516  0.00  0.00    +0.000 C 
ATOM     18  F   UNL     1       2.869  13.046  18.979  0.00  0.00    +0.000 F 
ATOM     19  F   UNL     1       2.412  11.508  17.514  0.00  0.00    +0.000 F 
ATOM     20  F   UNL     1       0.973  13.087  17.922  0.00  0.00    +0.000 F 
ENDBRANCH  13  17
BRANCH   3  21
ATOM     21  C   UNL     1       2.457   2.980  19.575  0.00  0.00    +0.000 C 
ATOM     22  C   UNL     1       1.254   2.869  20.483  0.00  0.00    +0.000 C 
ATOM     23  C   UNL     1       1.205   2.274  19.108  0.00  0.00    +0.000 C 
ENDBRANCH   3  21
BRANCH   1  25
ATOM     24  C   UNL     1       4.943   4.688  15.072  0.00  0.00    +0.000 C 
ATOM     25  C   UNL     1       5.245   5.588  16.281  0.00  0.00    +0.000 C 
BRANCH  25  26
ATOM     26  C   UNL     1       6.672   5.400  16.837  0.00  0.00    +0.000 C 
BRANCH  26  27
ATOM     27  C   UNL     1       7.280   6.630  17.423  0.00  0.00    +0.000 A 
ATOM     28  N   UNL     1       7.281   7.838  16.896  0.00  0.00    +0.000 NA
ATOM     29  N   UNL     1       8.005   8.667  17.717  0.00  0.00    +0.000 NA
ATOM     30  C   UNL     1       8.405   7.956  18.745  0.00  0.00    +0.000 A 
ATOM     31  N   UNL     1       7.931   6.688  18.629  0.00  0.00    +0.000 N 
ATOM     32  C   UNL     1       8.059   5.644  19.610  0.00  0.00    +0.000 C 
ENDBRANCH  26  27
ENDBRANCH  25  26
ENDBRANCH   1  25
TORSDOF 5
ENDMDL
MODEL 8
REMARK VINA RESULT:      -8.1      4.096      9.757
REMARK  Name = 
REMARK  7 active torsions:
REMARK  status: ('A' for Active; 'I' for Inactive)
REMARK    1  A    between atoms: C_1  and  C_2
REMARK    2  A    between atoms: C_2  and  C_3
REMARK    3  A    between atoms: C_2  and  C_10
REMARK    4  A    between atoms: C_3  and  C_4
REMARK    5  A    between atoms: N_8  and  C_9
REMARK    6  A    between atoms: C_12  and  C_13
REMARK    7  A    between atoms: C_25  and  C_26
REMARK                            x       y       z     vdW  Elec       q    Type
REMARK                         _______ _______ _______ _____ _____    ______ ____
ROOT
ATOM      1  C   UNL     1       3.122   6.181  18.753  0.00  0.00    +0.000 A 
ATOM      2  C   UNL     1       2.615   5.015  19.326  0.00  0.00    +0.000 A 
ATOM      3  C   UNL     1       1.666   5.088  20.345  0.00  0.00    +0.000 A 
ATOM      4  N   UNL     1       1.197   6.286  20.770  0.00  0.00    +0.000 NA
ATOM      5  C   UNL     1       1.628   7.425  20.198  0.00  0.00    +0.000 A 
ATOM      6  N   UNL     1       1.101   8.655  20.643  0.00  0.00    +0.000 N 
ATOM      7  C   UNL     1       1.452   9.926  20.036  0.00  0.00    +0.000 C 
ATOM      8  C   UNL     1       0.615  10.913  20.785  0.00  0.00    +0.000 A 
ATOM      9  C   UNL     1      -0.111  10.244  21.767  0.00  0.00    +0.000 A 
ATOM     10  C   UNL     1      -0.965  10.895  22.639  0.00  0.00    +0.000 A 
ATOM     11  C   UNL     1      -1.088  12.277  22.506  0.00  0.00    +0.000 A 
ATOM     12  C   UNL     1      -0.371  12.966  21.510  0.00  0.00    +0.000 A 
ATOM     13  C   UNL     1       0.492  12.290  20.624  0.00  0.00    +0.000 A 
ATOM     14  C   UNL     1       0.182   8.802  21.678  0.00  0.00    +0.000 C 
ATOM     15  O   UNL     1      -0.350   8.004  22.420  0.00  0.00    +0.000 OA
ATOM     16  C   UNL     1       2.582   7.398  19.182  0.00  0.00    +0.000 A 
ENDROOT
BRANCH  13  17
ATOM     17  C   UNL     1       1.222  13.058  19.551  0.00  0.00    +0.000 C 
ATOM     18  F   UNL     1       2.576  12.977  19.648  0.00  0.00    +0.000 F 
ATOM     19  F   UNL     1       0.908  12.621  18.301  0.00  0.00    +0.000 F 
ATOM     20  F   UNL     1       0.925  14.386  19.571  0.00  0.00    +0.000 F 
ENDBRANCH  13  17
BRANCH   3  21
ATOM     21  C   UNL     1       1.174   3.823  21.013  0.00  0.00    +0.000 C 
ATOM     22  C   UNL     1       1.473   2.463  20.425  0.00  0.00    +0.000 C 
ATOM     23  C   UNL     1       2.171   2.902  21.677  0.00  0.00    +0.000 C 
ENDBRANCH   3  21
BRANCH   1  25
ATOM     24  C   UNL     1       4.279   7.301  16.770  0.00  0.00    +0.000 C 
ATOM     25  C   UNL     1       4.253   6.106  17.737  0.00  0.00    +0.000 C 
BRANCH  25  26
ATOM     26  C   UNL     1       4.365   4.744  17.022  0.00  0.00    +0.000 C 
BRANCH  26  27
ATOM     27  C   UNL     1       5.405   4.683  15.955  0.00  0.00    +0.000 A 
ATOM     28  N   UNL     1       5.201   4.687  14.653  0.00  0.00    +0.000 NA
ATOM     29  N   UNL     1       6.413   4.546  14.025  0.00  0.00    +0.000 NA
ATOM     30  C   UNL     1       7.337   4.491  14.954  0.00  0.00    +0.000 A 
ATOM     31  N   UNL     1       6.758   4.624  16.177  0.00  0.00    +0.000 N 
ATOM     32  C   UNL     1       7.448   4.727  17.434  0.00  0.00    +0.000 C 
ENDBRANCH  26  27
ENDBRANCH  25  26
ENDBRANCH   1  25
TORSDOF 5
ENDMDL
MODEL 9
REMARK VINA RESULT:      -8.1      4.035      9.464
REMARK  Name = 
REMARK  7 active torsions:
REMARK  status: ('A' for Active; 'I' for Inactive)
REMARK    1  A    between atoms: C_1  and  C_2
REMARK    2  A    between atoms: C_2  and  C_3
REMARK    3  A    between atoms: C_2  and  C_10
REMARK    4  A    between atoms: C_3  and  C_4
REMARK    5  A    between atoms: N_8  and  C_9
REMARK    6  A    between atoms: C_12  and  C_13
REMARK    7  A    between atoms: C_25  and  C_26
REMARK                            x       y       z     vdW  Elec       q    Type
REMARK                         _______ _______ _______ _____ _____    ______ ____
ROOT
ATOM      1  C   UNL     1       2.842   6.245  18.438  0.00  0.00    +0.000 A 
ATOM      2  C   UNL     1       2.672   5.167  19.308  0.00  0.00    +0.000 A 
ATOM      3  C   UNL     1       2.034   5.349  20.535  0.00  0.00    +0.000 A 
ATOM      4  N   UNL     1       1.540   6.561  20.886  0.00  0.00    +0.000 NA
ATOM      5  C   UNL     1       1.641   7.606  20.042  0.00  0.00    +0.000 A 
ATOM      6  N   UNL     1       1.093   8.847  20.424  0.00  0.00    +0.000 N 
ATOM      7  C   UNL     1       1.092  10.007  19.552  0.00  0.00    +0.000 C 
ATOM      8  C   UNL     1       0.363  11.042  20.347  0.00  0.00    +0.000 A 
ATOM      9  C   UNL     1       0.028  10.509  21.590  0.00  0.00    +0.000 A 
ATOM     10  C   UNL     1      -0.637  11.237  22.560  0.00  0.00    +0.000 A 
ATOM     11  C   UNL     1      -0.978  12.554  22.255  0.00  0.00    +0.000 A 
ATOM     12  C   UNL     1      -0.658  13.103  20.999  0.00  0.00    +0.000 A 
ATOM     13  C   UNL     1       0.016  12.348  20.017  0.00  0.00    +0.000 A 
ATOM     14  C   UNL     1       0.479   9.107  21.646  0.00  0.00    +0.000 C 
ATOM     15  O   UNL     1       0.281   8.420  22.625  0.00  0.00    +0.000 OA
ATOM     16  C   UNL     1       2.279   7.469  18.810  0.00  0.00    +0.000 A 
ENDROOT
BRANCH  13  17
ATOM     17  C   UNL     1       0.316  12.960  18.672  0.00  0.00    +0.000 C 
ATOM     18  F   UNL     1       0.250  14.319  18.665  0.00  0.00    +0.000 F 
ATOM     19  F   UNL     1       1.563  12.644  18.228  0.00  0.00    +0.000 F 
ATOM     20  F   UNL     1      -0.545  12.540  17.706  0.00  0.00    +0.000 F 
ENDBRANCH  13  17
BRANCH   3  21
ATOM     21  C   UNL     1       1.917   4.196  21.505  0.00  0.00    +0.000 C 
ATOM     22  C   UNL     1       1.252   2.900  21.101  0.00  0.00    +0.000 C 
ATOM     23  C   UNL     1       2.741   2.949  21.274  0.00  0.00    +0.000 C 
ENDBRANCH   3  21
BRANCH   1  25
ATOM     24  C   UNL     1       3.754   4.615  16.696  0.00  0.00    +0.000 C 
ATOM     25  C   UNL     1       3.654   6.077  17.162  0.00  0.00    +0.000 C 
BRANCH  25  26
ATOM     26  C   UNL     1       5.016   6.802  17.184  0.00  0.00    +0.000 C 
BRANCH  26  27
ATOM     27  C   UNL     1       6.200   5.909  17.032  0.00  0.00    +0.000 A 
ATOM     28  N   UNL     1       6.829   5.616  15.911  0.00  0.00    +0.000 NA
ATOM     29  N   UNL     1       7.818   4.706  16.195  0.00  0.00    +0.000 NA
ATOM     30  C   UNL     1       7.793   4.484  17.488  0.00  0.00    +0.000 A 
ATOM     31  N   UNL     1       6.830   5.255  18.060  0.00  0.00    +0.000 N 
ATOM     32  C   UNL     1       6.572   5.378  19.470  0.00  0.00    +0.000 C 
ENDBRANCH  26  27
ENDBRANCH  25  26
ENDBRANCH   1  25
TORSDOF 5
ENDMDL
