MODEL 1
REMARK VINA RESULT:      -9.5      0.000      0.000
REMARK  Name = 
REMARK  10 active torsions:
REMARK  status: ('A' for Active; 'I' for Inactive)
REMARK    1  A    between atoms: C_1  and  C_2
REMARK    2  A    between atoms: C_5  and  C_6
REMARK    3  A    between atoms: C_7  and  C_8
REMARK    4  A    between atoms: C_12  and  C_13
REMARK    5  A    between atoms: N_19  and  C_20
REMARK    6  A    between atoms: C_24  and  C_25
REMARK    7  A    between atoms: C_25  and  C_26
REMARK    8  A    between atoms: C_25  and  C_27
REMARK    9  A    between atoms: C_27  and  C_28
REMARK   10  A    between atoms: N_32  and  C_33
REMARK                            x       y       z     vdW  Elec       q    Type
REMARK                         _______ _______ _______ _____ _____    ______ ____
ROOT
ATOM      1  C   UNL     1       4.669   5.854  17.864  0.00  0.00    +0.000 A 
ATOM      2  C   UNL     1       4.171   7.121  17.548  0.00  0.00    +0.000 A 
ATOM      3  C   UNL     1       3.049   7.569  18.215  0.00  0.00    +0.000 A 
ATOM      4  C   UNL     1       2.421   6.843  19.215  0.00  0.00    +0.000 A 
ATOM      5  C   UNL     1       2.878   5.581  19.558  0.00  0.00    +0.000 A 
ATOM      6  C   UNL     1       4.001   5.095  18.856  0.00  0.00    +0.000 A 
ATOM      7  C   UNL     1       1.282   7.634  19.761  0.00  0.00    +0.000 C 
ATOM      8  N   UNL     1       1.293   8.846  18.959  0.00  0.00    +0.000 N 
ATOM      9  C   UNL     1       2.318   8.827  18.013  0.00  0.00    +0.000 C 
ATOM     10  O   UNL     1       2.635   9.623  17.147  0.00  0.00    +0.000 OA
ENDROOT
BRANCH   1  17
ATOM     11  C   UNL     1       4.998   4.559  14.826  0.00  0.00    +0.000 C 
ATOM     12  C   UNL     1       6.016   4.772  15.890  0.00  0.00    +0.000 A 
ATOM     13  N   UNL     1       7.281   4.399  15.657  0.00  0.00    +0.000 NA
ATOM     14  N   UNL     1       7.920   4.684  16.794  0.00  0.00    +0.000 N 
ATOM     15  C   UNL     1       7.125   5.236  17.762  0.00  0.00    +0.000 A 
ATOM     16  C   UNL     1       7.700   5.618  19.077  0.00  0.00    +0.000 C 
ATOM     17  C   UNL     1       5.855   5.320  17.203  0.00  0.00    +0.000 A 
ATOM     18  H   UNL     1       8.912   4.478  16.846  0.00  0.00    +0.000 HD
ENDBRANCH   1  17
BRANCH   8  19
ATOM     19  C   UNL     1       0.302   9.843  19.107  0.00  0.00    +0.000 A 
ATOM     20  C   UNL     1       0.498  10.947  19.939  0.00  0.00    +0.000 A 
ATOM     21  C   UNL     1      -0.464  11.952  20.030  0.00  0.00    +0.000 A 
ATOM     22  C   UNL     1      -1.649  11.856  19.304  0.00  0.00    +0.000 A 
ATOM     23  C   UNL     1      -1.897  10.750  18.489  0.00  0.00    +0.000 A 
ATOM     24  C   UNL     1      -0.905   9.753  18.389  0.00  0.00    +0.000 A 
BRANCH  23  25
ATOM     25  C   UNL     1      -3.209  10.590  17.726  0.00  0.00    +0.000 C 
ATOM     26  C   UNL     1      -2.919  10.307  16.251  0.00  0.00    +0.000 C 
BRANCH  25  27
ATOM     27  C   UNL     1      -4.146  11.808  17.858  0.00  0.00    +0.000 C 
BRANCH  27  28
ATOM     28  C   UNL     1      -5.327  11.526  18.725  0.00  0.00    +0.000 A 
ATOM     29  N   UNL     1      -6.271  10.635  18.498  0.00  0.00    +0.000 NA
ATOM     30  N   UNL     1      -7.115  10.620  19.585  0.00  0.00    +0.000 NA
ATOM     31  C   UNL     1      -6.676  11.513  20.442  0.00  0.00    +0.000 A 
ATOM     32  N   UNL     1      -5.587  12.141  19.922  0.00  0.00    +0.000 N 
ATOM     33  C   UNL     1      -4.870  13.232  20.523  0.00  0.00    +0.000 C 
ENDBRANCH  27  28
ENDBRANCH  25  27
ENDBRANCH  23  25
ENDBRANCH   8  19
BRANCH   5  34
ATOM     34  C   UNL     1       2.223   4.733  20.614  0.00  0.00    +0.000 C 
ATOM     35  F   UNL     1       0.881   4.583  20.440  0.00  0.00    +0.000 F 
ATOM     36  F   UNL     1       2.733   3.472  20.651  0.00  0.00    +0.000 F 
ATOM     37  F   UNL     1       2.383   5.244  21.864  0.00  0.00    +0.000 F 
ENDBRANCH   5  34
TORSDOF 6
ENDMDL
MODEL 2
REMARK VINA RESULT:      -9.3      2.710      3.992
REMARK  Name = 
REMARK  10 active torsions:
REMARK  status: ('A' for Active; 'I' for Inactive)
REMARK    1  A    between atoms: C_1  and  C_2
REMARK    2  A    between atoms: C_5  and  C_6
REMARK    3  A    between atoms: C_7  and  C_8
REMARK    4  A    between atoms: C_12  and  C_13
REMARK    5  A    between atoms: N_19  and  C_20
REMARK    6  A    between atoms: C_24  and  C_25
REMARK    7  A    between atoms: C_25  and  C_26
REMARK    8  A    between atoms: C_25  and  C_27
REMARK    9  A    between atoms: C_27  and  C_28
REMARK   10  A    between atoms: N_32  and  C_33
REMARK                            x       y       z     vdW  Elec       q    Type
REMARK                         _______ _______ _______ _____ _____    ______ ____
ROOT
ATOM      1  C   UNL     1       4.676   5.798  17.826  0.00  0.00    +0.000 A 
ATOM      2  C   UNL     1       4.193   7.087  17.586  0.00  0.00    +0.000 A 
ATOM      3  C   UNL     1       3.093   7.518  18.300  0.00  0.00    +0.000 A 
ATOM      4  C   UNL     1       2.475   6.752  19.276  0.00  0.00    +0.000 A 
ATOM      5  C   UNL     1       2.919   5.466  19.544  0.00  0.00    +0.000 A 
ATOM      6  C   UNL     1       4.018   5.000  18.793  0.00  0.00    +0.000 A 
ATOM      7  C   UNL     1       1.362   7.532  19.887  0.00  0.00    +0.000 C 
ATOM      8  N   UNL     1       1.375   8.782  19.147  0.00  0.00    +0.000 N 
ATOM      9  C   UNL     1       2.379   8.796  18.179  0.00  0.00    +0.000 C 
ATOM     10  O   UNL     1       2.690   9.630  17.348  0.00  0.00    +0.000 OA
ENDROOT
BRANCH   1  17
ATOM     11  C   UNL     1       4.908   4.614  14.735  0.00  0.00    +0.000 C 
ATOM     12  C   UNL     1       5.957   4.779  15.776  0.00  0.00    +0.000 A 
ATOM     13  N   UNL     1       7.212   4.406  15.494  0.00  0.00    +0.000 NA
ATOM     14  N   UNL     1       7.885   4.645  16.621  0.00  0.00    +0.000 N 
ATOM     15  C   UNL     1       7.123   5.166  17.631  0.00  0.00    +0.000 A 
ATOM     16  C   UNL     1       7.738   5.495  18.942  0.00  0.00    +0.000 C 
ATOM     17  C   UNL     1       5.839   5.280  17.112  0.00  0.00    +0.000 A 
ATOM     18  H   UNL     1       8.877   4.429  16.637  0.00  0.00    +0.000 HD
ENDBRANCH   1  17
BRANCH   8  19
ATOM     19  C   UNL     1       0.405   9.786  19.368  0.00  0.00    +0.000 A 
ATOM     20  C   UNL     1      -0.553  10.099  18.401  0.00  0.00    +0.000 A 
ATOM     21  C   UNL     1      -1.540  11.050  18.655  0.00  0.00    +0.000 A 
ATOM     22  C   UNL     1      -1.570  11.719  19.876  0.00  0.00    +0.000 A 
ATOM     23  C   UNL     1      -0.608  11.460  20.854  0.00  0.00    +0.000 A 
ATOM     24  C   UNL     1       0.369  10.478  20.592  0.00  0.00    +0.000 A 
BRANCH  23  25
ATOM     25  C   UNL     1      -0.583  12.217  22.180  0.00  0.00    +0.000 C 
ATOM     26  C   UNL     1      -1.912  12.022  22.913  0.00  0.00    +0.000 C 
BRANCH  25  27
ATOM     27  C   UNL     1      -0.280  13.720  22.020  0.00  0.00    +0.000 C 
BRANCH  27  28
ATOM     28  C   UNL     1       0.951  13.971  21.216  0.00  0.00    +0.000 A 
ATOM     29  N   UNL     1       2.188  13.674  21.562  0.00  0.00    +0.000 NA
ATOM     30  N   UNL     1       3.012  13.973  20.502  0.00  0.00    +0.000 NA
ATOM     31  C   UNL     1       2.263  14.459  19.540  0.00  0.00    +0.000 A 
ATOM     32  N   UNL     1       0.971  14.523  19.961  0.00  0.00    +0.000 N 
ATOM     33  C   UNL     1      -0.135  15.070  19.225  0.00  0.00    +0.000 C 
ENDBRANCH  27  28
ENDBRANCH  25  27
ENDBRANCH  23  25
ENDBRANCH   8  19
BRANCH   5  34
ATOM     34  C   UNL     1       2.272   4.576  20.570  0.00  0.00    +0.000 C 
ATOM     35  F   UNL     1       2.788   3.317  20.605  0.00  0.00    +0.000 F 
ATOM     36  F   UNL     1       2.409   5.065  21.833  0.00  0.00    +0.000 F 
ATOM     37  F   UNL     1       0.937   4.428  20.363  0.00  0.00    +0.000 F 
ENDBRANCH   5  34
TORSDOF 6
ENDMDL
MODEL 3
REMARK VINA RESULT:      -9.3      2.469      3.676
REMARK  Name = 
REMARK  10 active torsions:
REMARK  status: ('A' for Active; 'I' for Inactive)
REMARK    1  A    between atoms: C_1  and  C_2
REMARK    2  A    between atoms: C_5  and  C_6
REMARK    3  A    between atoms: C_7  and  C_8
REMARK    4  A    between atoms: C_12  and  C_13
REMARK    5  A    between atoms: N_19  and  C_20
REMARK    6  A    between atoms: C_24  and  C_25
REMARK    7  A    between atoms: C_25  and  C_26
REMARK    8  A    between atoms: C_25  and  C_27
REMARK    9  A    between atoms: C_27  and  C_28
REMARK   10  A    between atoms: N_32  and  C_33
REMARK                            x       y       z     vdW  Elec       q    Type
REMARK                         _______ _______ _______ _____ _____    ______ ____
ROOT
ATOM      1  C   UNL     1       4.742   5.624  17.885  0.00  0.00    +0.000 A 
ATOM      2  C   UNL     1       4.283   6.922  17.647  0.00  0.00    +0.000 A 
ATOM      3  C   UNL     1       3.172   7.360  18.340  0.00  0.00    +0.000 A 
ATOM      4  C   UNL     1       2.520   6.592  19.292  0.00  0.00    +0.000 A 
ATOM      5  C   UNL     1       2.939   5.297  19.556  0.00  0.00    +0.000 A 
ATOM      6  C   UNL     1       4.050   4.824  18.826  0.00  0.00    +0.000 A 
ATOM      7  C   UNL     1       1.403   7.380  19.884  0.00  0.00    +0.000 C 
ATOM      8  N   UNL     1       1.452   8.639  19.159  0.00  0.00    +0.000 N 
ATOM      9  C   UNL     1       2.479   8.649  18.216  0.00  0.00    +0.000 C 
ATOM     10  O   UNL     1       2.822   9.488  17.402  0.00  0.00    +0.000 OA
ENDROOT
BRANCH   1  17
ATOM     11  C   UNL     1       7.870   5.318  18.951  0.00  0.00    +0.000 C 
ATOM     12  C   UNL     1       7.265   4.946  17.644  0.00  0.00    +0.000 A 
ATOM     13  N   UNL     1       8.047   4.406  16.700  0.00  0.00    +0.000 NA
ATOM     14  N   UNL     1       7.229   4.226  15.661  0.00  0.00    +0.000 N 
ATOM     15  C   UNL     1       5.938   4.621  15.888  0.00  0.00    +0.000 A 
ATOM     16  C   UNL     1       4.910   4.469  14.826  0.00  0.00    +0.000 C 
ATOM     17  C   UNL     1       5.915   5.097  17.193  0.00  0.00    +0.000 A 
ATOM     18  H   UNL     1       7.617   3.822  14.814  0.00  0.00    +0.000 HD
ENDBRANCH   1  17
BRANCH   8  19
ATOM     19  C   UNL     1       0.490   9.653  19.368  0.00  0.00    +0.000 A 
ATOM     20  C   UNL     1      -0.256  10.179  18.312  0.00  0.00    +0.000 A 
ATOM     21  C   UNL     1      -1.243  11.137  18.540  0.00  0.00    +0.000 A 
ATOM     22  C   UNL     1      -1.482  11.601  19.832  0.00  0.00    +0.000 A 
ATOM     23  C   UNL     1      -0.732  11.127  20.910  0.00  0.00    +0.000 A 
ATOM     24  C   UNL     1       0.245  10.140  20.665  0.00  0.00    +0.000 A 
BRANCH  23  25
ATOM     25  C   UNL     1      -0.934  11.657  22.327  0.00  0.00    +0.000 C 
ATOM     26  C   UNL     1      -1.057  10.486  23.305  0.00  0.00    +0.000 C 
BRANCH  25  27
ATOM     27  C   UNL     1      -2.152  12.592  22.462  0.00  0.00    +0.000 C 
BRANCH  27  28
ATOM     28  C   UNL     1      -1.914  13.702  23.431  0.00  0.00    +0.000 A 
ATOM     29  N   UNL     1      -0.744  14.131  23.859  0.00  0.00    +0.000 NA
ATOM     30  N   UNL     1      -0.958  15.230  24.659  0.00  0.00    +0.000 NA
ATOM     31  C   UNL     1      -2.253  15.437  24.712  0.00  0.00    +0.000 A 
ATOM     32  N   UNL     1      -2.895  14.472  23.999  0.00  0.00    +0.000 N 
ATOM     33  C   UNL     1      -4.318  14.309  23.881  0.00  0.00    +0.000 C 
ENDBRANCH  27  28
ENDBRANCH  25  27
ENDBRANCH  23  25
ENDBRANCH   8  19
BRANCH   5  34
ATOM     34  C   UNL     1       2.256   4.405  20.556  0.00  0.00    +0.000 C 
ATOM     35  F   UNL     1       0.909   4.316  20.379  0.00  0.00    +0.000 F 
ATOM     36  F   UNL     1       2.720   3.127  20.505  0.00  0.00    +0.000 F 
ATOM     37  F   UNL     1       2.438   4.825  21.836  0.00  0.00    +0.000 F 
ENDBRANCH   5  34
TORSDOF 6
ENDMDL
MODEL 4
REMARK VINA RESULT:      -9.2      0.237      1.477
REMARK  Name = 
REMARK  10 active torsions:
REMARK  status: ('A' for Active; 'I' for Inactive)
REMARK    1  A    between atoms: C_1  and  C_2
REMARK    2  A    between atoms: C_5  and  C_6
REMARK    3  A    between atoms: C_7  and  C_8
REMARK    4  A    between atoms: C_12  and  C_13
REMARK    5  A    between atoms: N_19  and  C_20
REMARK    6  A    between atoms: C_24  and  C_25
REMARK    7  A    between atoms: C_25  and  C_26
REMARK    8  A    between atoms: C_25  and  C_27
REMARK    9  A    between atoms: C_27  and  C_28
REMARK   10  A    between atoms: N_32  and  C_33
REMARK                            x       y       z     vdW  Elec       q    Type
REMARK                         _______ _______ _______ _____ _____    ______ ____
ROOT
ATOM      1  C   UNL     1       4.722   5.857  18.003  0.00  0.00    +0.000 A 
ATOM      2  C   UNL     1       4.253   7.124  17.646  0.00  0.00    +0.000 A 
ATOM      3  C   UNL     1       3.114   7.599  18.265  0.00  0.00    +0.000 A 
ATOM      4  C   UNL     1       2.443   6.902  19.256  0.00  0.00    +0.000 A 
ATOM      5  C   UNL     1       2.871   5.640  19.639  0.00  0.00    +0.000 A 
ATOM      6  C   UNL     1       4.010   5.127  18.986  0.00  0.00    +0.000 A 
ATOM      7  C   UNL     1       1.297   7.718  19.747  0.00  0.00    +0.000 C 
ATOM      8  N   UNL     1       1.352   8.913  18.923  0.00  0.00    +0.000 N 
ATOM      9  C   UNL     1       2.408   8.863  18.014  0.00  0.00    +0.000 C 
ATOM     10  O   UNL     1       2.766   9.638  17.145  0.00  0.00    +0.000 OA
ENDROOT
BRANCH   1  17
ATOM     11  C   UNL     1       7.798   5.610  19.223  0.00  0.00    +0.000 C 
ATOM     12  C   UNL     1       7.252   5.168  17.912  0.00  0.00    +0.000 A 
ATOM     13  N   UNL     1       8.074   4.579  17.034  0.00  0.00    +0.000 NA
ATOM     14  N   UNL     1       7.303   4.343  15.971  0.00  0.00    +0.000 N 
ATOM     15  C   UNL     1       6.003   4.748  16.118  0.00  0.00    +0.000 A 
ATOM     16  C   UNL     1       5.024   4.540  15.022  0.00  0.00    +0.000 C 
ATOM     17  C   UNL     1       5.923   5.295  17.394  0.00  0.00    +0.000 A 
ATOM     18  H   UNL     1       7.727   3.893  15.166  0.00  0.00    +0.000 HD
ENDBRANCH   1  17
BRANCH   8  19
ATOM     19  C   UNL     1       0.370   9.926  19.017  0.00  0.00    +0.000 A 
ATOM     20  C   UNL     1       0.629  11.133  19.670  0.00  0.00    +0.000 A 
ATOM     21  C   UNL     1      -0.329  12.146  19.705  0.00  0.00    +0.000 A 
ATOM     22  C   UNL     1      -1.570  11.956  19.104  0.00  0.00    +0.000 A 
ATOM     23  C   UNL     1      -1.880  10.750  18.472  0.00  0.00    +0.000 A 
ATOM     24  C   UNL     1      -0.893   9.745  18.424  0.00  0.00    +0.000 A 
BRANCH  23  25
ATOM     25  C   UNL     1      -3.251  10.494  17.853  0.00  0.00    +0.000 C 
ATOM     26  C   UNL     1      -3.085   9.954  16.431  0.00  0.00    +0.000 C 
BRANCH  25  27
ATOM     27  C   UNL     1      -4.161  11.739  17.845  0.00  0.00    +0.000 C 
BRANCH  27  28
ATOM     28  C   UNL     1      -5.374  11.564  18.696  0.00  0.00    +0.000 A 
ATOM     29  N   UNL     1      -6.411  10.793  18.434  0.00  0.00    +0.000 NA
ATOM     30  N   UNL     1      -7.260  10.837  19.516  0.00  0.00    +0.000 NA
ATOM     31  C   UNL     1      -6.731  11.644  20.405  0.00  0.00    +0.000 A 
ATOM     32  N   UNL     1      -5.573  12.162  19.913  0.00  0.00    +0.000 N 
ATOM     33  C   UNL     1      -4.743  13.144  20.555  0.00  0.00    +0.000 C 
ENDBRANCH  27  28
ENDBRANCH  25  27
ENDBRANCH  23  25
ENDBRANCH   8  19
BRANCH   5  34
ATOM     34  C   UNL     1       2.168   4.822  20.688  0.00  0.00    +0.000 C 
ATOM     35  F   UNL     1       1.879   5.518  21.822  0.00  0.00    +0.000 F 
ATOM     36  F   UNL     1       0.979   4.330  20.244  0.00  0.00    +0.000 F 
ATOM     37  F   UNL     1       2.899   3.747  21.085  0.00  0.00    +0.000 F 
ENDBRANCH   5  34
TORSDOF 6
ENDMDL
MODEL 5
REMARK VINA RESULT:      -9.2      3.219      9.679
REMARK  Name = 
REMARK  10 active torsions:
REMARK  status: ('A' for Active; 'I' for Inactive)
REMARK    1  A    between atoms: C_1  and  C_2
REMARK    2  A    between atoms: C_5  and  C_6
REMARK    3  A    between atoms: C_7  and  C_8
REMARK    4  A    between atoms: C_12  and  C_13
REMARK    5  A    between atoms: N_19  and  C_20
REMARK    6  A    between atoms: C_24  and  C_25
REMARK    7  A    between atoms: C_25  and  C_26
REMARK    8  A    between atoms: C_25  and  C_27
REMARK    9  A    between atoms: C_27  and  C_28
REMARK   10  A    between atoms: N_32  and  C_33
REMARK                            x       y       z     vdW  Elec       q    Type
REMARK                         _______ _______ _______ _____ _____    ______ ____
ROOT
ATOM      1  C   UNL     1       0.538  11.904  19.749  0.00  0.00    +0.000 A 
ATOM      2  C   UNL     1       1.093  11.077  18.770  0.00  0.00    +0.000 A 
ATOM      3  C   UNL     1       1.371   9.765  19.102  0.00  0.00    +0.000 A 
ATOM      4  C   UNL     1       1.082   9.220  20.343  0.00  0.00    +0.000 A 
ATOM      5  C   UNL     1       0.535  10.006  21.344  0.00  0.00    +0.000 A 
ATOM      6  C   UNL     1       0.283  11.358  21.030  0.00  0.00    +0.000 A 
ATOM      7  C   UNL     1       1.455   7.777  20.348  0.00  0.00    +0.000 C 
ATOM      8  N   UNL     1       2.016   7.565  19.025  0.00  0.00    +0.000 N 
ATOM      9  C   UNL     1       2.002   8.735  18.267  0.00  0.00    +0.000 C 
ATOM     10  O   UNL     1       2.405   8.976  17.142  0.00  0.00    +0.000 OA
ENDROOT
BRANCH   1  17
ATOM     11  C   UNL     1       2.431  14.297  18.443  0.00  0.00    +0.000 C 
ATOM     12  C   UNL     1       1.013  14.337  18.891  0.00  0.00    +0.000 A 
ATOM     13  N   UNL     1       0.335  15.488  18.787  0.00  0.00    +0.000 NA
ATOM     14  N   UNL     1      -0.867  15.207  19.294  0.00  0.00    +0.000 N 
ATOM     15  C   UNL     1      -1.007  13.913  19.721  0.00  0.00    +0.000 A 
ATOM     16  C   UNL     1      -2.295  13.450  20.298  0.00  0.00    +0.000 C 
ATOM     17  C   UNL     1       0.213  13.299  19.465  0.00  0.00    +0.000 A 
ATOM     18  H   UNL     1      -1.558  15.949  19.319  0.00  0.00    +0.000 HD
ENDBRANCH   1  17
BRANCH   8  19
ATOM     19  C   UNL     1       2.575   6.323  18.646  0.00  0.00    +0.000 A 
ATOM     20  C   UNL     1       2.072   5.117  19.138  0.00  0.00    +0.000 A 
ATOM     21  C   UNL     1       2.594   3.897  18.711  0.00  0.00    +0.000 A 
ATOM     22  C   UNL     1       3.647   3.867  17.799  0.00  0.00    +0.000 A 
ATOM     23  C   UNL     1       4.201   5.052  17.312  0.00  0.00    +0.000 A 
ATOM     24  C   UNL     1       3.646   6.277  17.735  0.00  0.00    +0.000 A 
BRANCH  23  25
ATOM     25  C   UNL     1       5.390   5.051  16.354  0.00  0.00    +0.000 C 
ATOM     26  C   UNL     1       5.200   3.965  15.294  0.00  0.00    +0.000 C 
BRANCH  25  27
ATOM     27  C   UNL     1       6.747   4.869  17.064  0.00  0.00    +0.000 C 
BRANCH  27  28
ATOM     28  C   UNL     1       7.377   6.171  17.431  0.00  0.00    +0.000 A 
ATOM     29  N   UNL     1       7.507   7.226  16.652  0.00  0.00    +0.000 NA
ATOM     30  N   UNL     1       8.047   8.246  17.401  0.00  0.00    +0.000 NA
ATOM     31  C   UNL     1       8.247   7.786  18.614  0.00  0.00    +0.000 A 
ATOM     32  N   UNL     1       7.890   6.475  18.665  0.00  0.00    +0.000 N 
ATOM     33  C   UNL     1       8.034   5.600  19.796  0.00  0.00    +0.000 C 
ENDBRANCH  27  28
ENDBRANCH  25  27
ENDBRANCH  23  25
ENDBRANCH   8  19
BRANCH   5  34
ATOM     34  C   UNL     1       0.226   9.480  22.719  0.00  0.00    +0.000 C 
ATOM     35  F   UNL     1      -0.579   8.381  22.716  0.00  0.00    +0.000 F 
ATOM     36  F   UNL     1       1.350   9.112  23.393  0.00  0.00    +0.000 F 
ATOM     37  F   UNL     1      -0.400  10.400  23.499  0.00  0.00    +0.000 F 
ENDBRANCH   5  34
TORSDOF 6
ENDMDL
MODEL 6
REMARK VINA RESULT:      -9.1      1.948      2.973
REMARK  Name = 
REMARK  10 active torsions:
REMARK  status: ('A' for Active; 'I' for Inactive)
REMARK    1  A    between atoms: C_1  and  C_2
REMARK    2  A    between atoms: C_5  and  C_6
REMARK    3  A    between atoms: C_7  and  C_8
REMARK    4  A    between atoms: C_12  and  C_13
REMARK    5  A    between atoms: N_19  and  C_20
REMARK    6  A    between atoms: C_24  and  C_25
REMARK    7  A    between atoms: C_25  and  C_26
REMARK    8  A    between atoms: C_25  and  C_27
REMARK    9  A    between atoms: C_27  and  C_28
REMARK   10  A    between atoms: N_32  and  C_33
REMARK                            x       y       z     vdW  Elec       q    Type
REMARK                         _______ _______ _______ _____ _____    ______ ____
ROOT
ATOM      1  C   UNL     1       4.660   5.905  17.909  0.00  0.00    +0.000 A 
ATOM      2  C   UNL     1       4.160   7.168  17.581  0.00  0.00    +0.000 A 
ATOM      3  C   UNL     1       3.024   7.611  18.229  0.00  0.00    +0.000 A 
ATOM      4  C   UNL     1       2.385   6.885  19.221  0.00  0.00    +0.000 A 
ATOM      5  C   UNL     1       2.845   5.626  19.575  0.00  0.00    +0.000 A 
ATOM      6  C   UNL     1       3.982   5.145  18.893  0.00  0.00    +0.000 A 
ATOM      7  C   UNL     1       1.233   7.670  19.746  0.00  0.00    +0.000 C 
ATOM      8  N   UNL     1       1.249   8.879  18.941  0.00  0.00    +0.000 N 
ATOM      9  C   UNL     1       2.289   8.864  18.012  0.00  0.00    +0.000 C 
ATOM     10  O   UNL     1       2.615   9.660  17.148  0.00  0.00    +0.000 OA
ENDROOT
BRANCH   1  17
ATOM     11  C   UNL     1       5.053   4.635  14.869  0.00  0.00    +0.000 C 
ATOM     12  C   UNL     1       6.048   4.839  15.955  0.00  0.00    +0.000 A 
ATOM     13  N   UNL     1       7.318   4.469  15.746  0.00  0.00    +0.000 NA
ATOM     14  N   UNL     1       7.933   4.745  16.897  0.00  0.00    +0.000 N 
ATOM     15  C   UNL     1       7.118   5.289  17.853  0.00  0.00    +0.000 A 
ATOM     16  C   UNL     1       7.666   5.661  19.183  0.00  0.00    +0.000 C 
ATOM     17  C   UNL     1       5.861   5.377  17.268  0.00  0.00    +0.000 A 
ATOM     18  H   UNL     1       8.925   4.539  16.968  0.00  0.00    +0.000 HD
ENDBRANCH   1  17
BRANCH   8  19
ATOM     19  C   UNL     1       0.250   9.870  19.070  0.00  0.00    +0.000 A 
ATOM     20  C   UNL     1      -0.855   9.907  18.217  0.00  0.00    +0.000 A 
ATOM     21  C   UNL     1      -1.862  10.855  18.393  0.00  0.00    +0.000 A 
ATOM     22  C   UNL     1      -1.767  11.796  19.415  0.00  0.00    +0.000 A 
ATOM     23  C   UNL     1      -0.660  11.815  20.265  0.00  0.00    +0.000 A 
ATOM     24  C   UNL     1       0.338  10.835  20.090  0.00  0.00    +0.000 A 
BRANCH  23  25
ATOM     25  C   UNL     1      -0.502  12.869  21.359  0.00  0.00    +0.000 C 
ATOM     26  C   UNL     1       0.925  13.419  21.345  0.00  0.00    +0.000 C 
BRANCH  25  27
ATOM     27  C   UNL     1      -0.858  12.349  22.766  0.00  0.00    +0.000 C 
BRANCH  27  28
ATOM     28  C   UNL     1      -2.249  12.705  23.171  0.00  0.00    +0.000 A 
ATOM     29  N   UNL     1      -3.344  12.026  22.894  0.00  0.00    +0.000 NA
ATOM     30  N   UNL     1      -4.398  12.635  23.535  0.00  0.00    +0.000 NA
ATOM     31  C   UNL     1      -3.925  13.679  24.175  0.00  0.00    +0.000 A 
ATOM     32  N   UNL     1      -2.591  13.791  23.933  0.00  0.00    +0.000 N 
ATOM     33  C   UNL     1      -1.732  14.848  24.391  0.00  0.00    +0.000 C 
ENDBRANCH  27  28
ENDBRANCH  25  27
ENDBRANCH  23  25
ENDBRANCH   8  19
BRANCH   5  34
ATOM     34  C   UNL     1       2.179   4.777  20.623  0.00  0.00    +0.000 C 
ATOM     35  F   UNL     1       2.702   3.525  20.728  0.00  0.00    +0.000 F 
ATOM     36  F   UNL     1       2.278   5.323  21.866  0.00  0.00    +0.000 F 
ATOM     37  F   UNL     1       0.851   4.608  20.388  0.00  0.00    +0.000 F 
ENDBRANCH   5  34
TORSDOF 6
ENDMDL
MODEL 7
REMARK VINA RESULT:      -9.1      2.381      3.402
REMARK  Name = 
REMARK  10 active torsions:
REMARK  status: ('A' for Active; 'I' for Inactive)
REMARK    1  A    between atoms: C_1  and  C_2
REMARK    2  A    between atoms: C_5  and  C_6
REMARK    3  A    between atoms: C_7  and  C_8
REMARK    4  A    between atoms: C_12  and  C_13
REMARK    5  A    between atoms: N_19  and  C_20
REMARK    6  A    between atoms: C_24  and  C_25
REMARK    7  A    between atoms: C_25  and  C_26
REMARK    8  A    between atoms: C_25  and  C_27
REMARK    9  A    between atoms: C_27  and  C_28
REMARK   10  A    between atoms: N_32  and  C_33
REMARK                            x       y       z     vdW  Elec       q    Type
REMARK                         _______ _______ _______ _____ _____    ______ ____
ROOT
ATOM      1  C   UNL     1       4.660   5.822  17.887  0.00  0.00    +0.000 A 
ATOM      2  C   UNL     1       4.170   7.104  17.624  0.00  0.00    +0.000 A 
ATOM      3  C   UNL     1       3.060   7.537  18.322  0.00  0.00    +0.000 A 
ATOM      4  C   UNL     1       2.439   6.780  19.303  0.00  0.00    +0.000 A 
ATOM      5  C   UNL     1       2.889   5.502  19.593  0.00  0.00    +0.000 A 
ATOM      6  C   UNL     1       3.999   5.033  18.859  0.00  0.00    +0.000 A 
ATOM      7  C   UNL     1       1.314   7.560  19.892  0.00  0.00    +0.000 C 
ATOM      8  N   UNL     1       1.326   8.800  19.135  0.00  0.00    +0.000 N 
ATOM      9  C   UNL     1       2.338   8.808  18.176  0.00  0.00    +0.000 C 
ATOM     10  O   UNL     1       2.651   9.633  17.336  0.00  0.00    +0.000 OA
ENDROOT
BRANCH   1  17
ATOM     11  C   UNL     1       4.923   4.565  14.827  0.00  0.00    +0.000 C 
ATOM     12  C   UNL     1       5.965   4.771  15.868  0.00  0.00    +0.000 A 
ATOM     13  N   UNL     1       7.226   4.409  15.601  0.00  0.00    +0.000 NA
ATOM     14  N   UNL     1       7.891   4.685  16.725  0.00  0.00    +0.000 N 
ATOM     15  C   UNL     1       7.117   5.221  17.719  0.00  0.00    +0.000 A 
ATOM     16  C   UNL     1       7.721   5.590  19.024  0.00  0.00    +0.000 C 
ATOM     17  C   UNL     1       5.834   5.303  17.191  0.00  0.00    +0.000 A 
ATOM     18  H   UNL     1       8.886   4.484  16.751  0.00  0.00    +0.000 HD
ENDBRANCH   1  17
BRANCH   8  19
ATOM     19  C   UNL     1       0.346   9.799  19.333  0.00  0.00    +0.000 A 
ATOM     20  C   UNL     1      -0.590  10.108  18.343  0.00  0.00    +0.000 A 
ATOM     21  C   UNL     1      -1.587  11.055  18.574  0.00  0.00    +0.000 A 
ATOM     22  C   UNL     1      -1.649  11.724  19.794  0.00  0.00    +0.000 A 
ATOM     23  C   UNL     1      -0.710  11.469  20.795  0.00  0.00    +0.000 A 
ATOM     24  C   UNL     1       0.278  10.492  20.555  0.00  0.00    +0.000 A 
BRANCH  23  25
ATOM     25  C   UNL     1      -0.720  12.226  22.120  0.00  0.00    +0.000 C 
ATOM     26  C   UNL     1      -1.630  11.509  23.119  0.00  0.00    +0.000 C 
BRANCH  25  27
ATOM     27  C   UNL     1      -1.145  13.702  21.979  0.00  0.00    +0.000 C 
BRANCH  27  28
ATOM     28  C   UNL     1      -1.598  14.291  23.273  0.00  0.00    +0.000 A 
ATOM     29  N   UNL     1      -0.829  14.668  24.275  0.00  0.00    +0.000 NA
ATOM     30  N   UNL     1      -1.628  15.251  25.231  0.00  0.00    +0.000 NA
ATOM     31  C   UNL     1      -2.867  15.202  24.798  0.00  0.00    +0.000 A 
ATOM     32  N   UNL     1      -2.901  14.563  23.598  0.00  0.00    +0.000 N 
ATOM     33  C   UNL     1      -4.080  14.242  22.841  0.00  0.00    +0.000 C 
ENDBRANCH  27  28
ENDBRANCH  25  27
ENDBRANCH  23  25
ENDBRANCH   8  19
BRANCH   5  34
ATOM     34  C   UNL     1       2.240   4.622  20.626  0.00  0.00    +0.000 C 
ATOM     35  F   UNL     1       0.887   4.533  20.497  0.00  0.00    +0.000 F 
ATOM     36  F   UNL     1       2.700   3.342  20.573  0.00  0.00    +0.000 F 
ATOM     37  F   UNL     1       2.467   5.054  21.894  0.00  0.00    +0.000 F 
ENDBRANCH   5  34
TORSDOF 6
ENDMDL
MODEL 8
REMARK VINA RESULT:      -9.1      2.726      3.960
REMARK  Name = 
REMARK  10 active torsions:
REMARK  status: ('A' for Active; 'I' for Inactive)
REMARK    1  A    between atoms: C_1  and  C_2
REMARK    2  A    between atoms: C_5  and  C_6
REMARK    3  A    between atoms: C_7  and  C_8
REMARK    4  A    between atoms: C_12  and  C_13
REMARK    5  A    between atoms: N_19  and  C_20
REMARK    6  A    between atoms: C_24  and  C_25
REMARK    7  A    between atoms: C_25  and  C_26
REMARK    8  A    between atoms: C_25  and  C_27
REMARK    9  A    between atoms: C_27  and  C_28
REMARK   10  A    between atoms: N_32  and  C_33
REMARK                            x       y       z     vdW  Elec       q    Type
REMARK                         _______ _______ _______ _____ _____    ______ ____
ROOT
ATOM      1  C   UNL     1       4.662   5.824  17.879  0.00  0.00    +0.000 A 
ATOM      2  C   UNL     1       4.192   7.115  17.628  0.00  0.00    +0.000 A 
ATOM      3  C   UNL     1       3.077   7.550  18.316  0.00  0.00    +0.000 A 
ATOM      4  C   UNL     1       2.431   6.787  19.276  0.00  0.00    +0.000 A 
ATOM      5  C   UNL     1       2.862   5.499  19.553  0.00  0.00    +0.000 A 
ATOM      6  C   UNL     1       3.977   5.028  18.829  0.00  0.00    +0.000 A 
ATOM      7  C   UNL     1       1.308   7.571  19.860  0.00  0.00    +0.000 C 
ATOM      8  N   UNL     1       1.345   8.822  19.122  0.00  0.00    +0.000 N 
ATOM      9  C   UNL     1       2.372   8.832  18.179  0.00  0.00    +0.000 C 
ATOM     10  O   UNL     1       2.708   9.666  17.356  0.00  0.00    +0.000 OA
ENDROOT
BRANCH   1  17
ATOM     11  C   UNL     1       4.956   4.610  14.804  0.00  0.00    +0.000 C 
ATOM     12  C   UNL     1       5.985   4.788  15.864  0.00  0.00    +0.000 A 
ATOM     13  N   UNL     1       7.245   4.414  15.610  0.00  0.00    +0.000 NA
ATOM     14  N   UNL     1       7.896   4.664  16.748  0.00  0.00    +0.000 N 
ATOM     15  C   UNL     1       7.113   5.194  17.738  0.00  0.00    +0.000 A 
ATOM     16  C   UNL     1       7.702   5.536  19.057  0.00  0.00    +0.000 C 
ATOM     17  C   UNL     1       5.840   5.300  17.192  0.00  0.00    +0.000 A 
ATOM     18  H   UNL     1       8.888   4.450  16.785  0.00  0.00    +0.000 HD
ENDBRANCH   1  17
BRANCH   8  19
ATOM     19  C   UNL     1       0.374   9.831  19.320  0.00  0.00    +0.000 A 
ATOM     20  C   UNL     1      -0.533  10.176  18.317  0.00  0.00    +0.000 A 
ATOM     21  C   UNL     1      -1.522  11.131  18.546  0.00  0.00    +0.000 A 
ATOM     22  C   UNL     1      -1.604  11.772  19.780  0.00  0.00    +0.000 A 
ATOM     23  C   UNL     1      -0.693  11.480  20.796  0.00  0.00    +0.000 A 
ATOM     24  C   UNL     1       0.286  10.495  20.557  0.00  0.00    +0.000 A 
BRANCH  23  25
ATOM     25  C   UNL     1      -0.725  12.205  22.140  0.00  0.00    +0.000 C 
ATOM     26  C   UNL     1      -1.735  11.530  23.069  0.00  0.00    +0.000 C 
BRANCH  25  27
ATOM     27  C   UNL     1      -1.040  13.710  22.015  0.00  0.00    +0.000 C 
BRANCH  27  28
ATOM     28  C   UNL     1       0.155  14.566  22.267  0.00  0.00    +0.000 A 
ATOM     29  N   UNL     1       1.415  14.229  22.076  0.00  0.00    +0.000 NA
ATOM     30  N   UNL     1       2.196  15.333  22.329  0.00  0.00    +0.000 NA
ATOM     31  C   UNL     1       1.397  16.312  22.684  0.00  0.00    +0.000 A 
ATOM     32  N   UNL     1       0.114  15.863  22.708  0.00  0.00    +0.000 N 
ATOM     33  C   UNL     1      -1.040  16.613  23.121  0.00  0.00    +0.000 C 
ENDBRANCH  27  28
ENDBRANCH  25  27
ENDBRANCH  23  25
ENDBRANCH   8  19
BRANCH   5  34
ATOM     34  C   UNL     1       2.187   4.611  20.562  0.00  0.00    +0.000 C 
ATOM     35  F   UNL     1       0.827   4.657  20.509  0.00  0.00    +0.000 F 
ATOM     36  F   UNL     1       2.518   3.302  20.398  0.00  0.00    +0.000 F 
ATOM     37  F   UNL     1       2.521   4.930  21.841  0.00  0.00    +0.000 F 
ENDBRANCH   5  34
TORSDOF 6
ENDMDL
MODEL 9
REMARK VINA RESULT:      -9.0      0.890      1.101
REMARK  Name = 
REMARK  10 active torsions:
REMARK  status: ('A' for Active; 'I' for Inactive)
REMARK    1  A    between atoms: C_1  and  C_2
REMARK    2  A    between atoms: C_5  and  C_6
REMARK    3  A    between atoms: C_7  and  C_8
REMARK    4  A    between atoms: C_12  and  C_13
REMARK    5  A    between atoms: N_19  and  C_20
REMARK    6  A    between atoms: C_24  and  C_25
REMARK    7  A    between atoms: C_25  and  C_26
REMARK    8  A    between atoms: C_25  and  C_27
REMARK    9  A    between atoms: C_27  and  C_28
REMARK   10  A    between atoms: N_32  and  C_33
REMARK                            x       y       z     vdW  Elec       q    Type
REMARK                         _______ _______ _______ _____ _____    ______ ____
ROOT
ATOM      1  C   UNL     1       4.571   6.542  17.504  0.00  0.00    +0.000 A 
ATOM      2  C   UNL     1       3.971   7.792  17.336  0.00  0.00    +0.000 A 
ATOM      3  C   UNL     1       2.866   8.097  18.106  0.00  0.00    +0.000 A 
ATOM      4  C   UNL     1       2.353   7.242  19.069  0.00  0.00    +0.000 A 
ATOM      5  C   UNL     1       2.916   5.990  19.266  0.00  0.00    +0.000 A 
ATOM      6  C   UNL     1       4.021   5.652  18.458  0.00  0.00    +0.000 A 
ATOM      7  C   UNL     1       1.202   7.897  19.750  0.00  0.00    +0.000 C 
ATOM      8  N   UNL     1       1.080   9.172  19.065  0.00  0.00    +0.000 N 
ATOM      9  C   UNL     1       2.040   9.311  18.064  0.00  0.00    +0.000 C 
ATOM     10  O   UNL     1       2.247  10.202  17.259  0.00  0.00    +0.000 OA
ENDROOT
BRANCH   1  17
ATOM     11  C   UNL     1       4.891   4.213  15.162  0.00  0.00    +0.000 C 
ATOM     12  C   UNL     1       5.896   5.165  15.707  0.00  0.00    +0.000 A 
ATOM     13  N   UNL     1       7.147   5.127  15.230  0.00  0.00    +0.000 NA
ATOM     14  N   UNL     1       7.793   6.059  15.933  0.00  0.00    +0.000 N 
ATOM     15  C   UNL     1       7.014   6.712  16.850  0.00  0.00    +0.000 A 
ATOM     16  C   UNL     1       7.593   7.784  17.699  0.00  0.00    +0.000 C 
ATOM     17  C   UNL     1       5.746   6.156  16.728  0.00  0.00    +0.000 A 
ATOM     18  H   UNL     1       8.778   6.205  15.737  0.00  0.00    +0.000 HD
ENDBRANCH   1  17
BRANCH   8  19
ATOM     19  C   UNL     1       0.035  10.077  19.362  0.00  0.00    +0.000 A 
ATOM     20  C   UNL     1       0.130  10.975  20.427  0.00  0.00    +0.000 A 
ATOM     21  C   UNL     1      -0.882  11.902  20.672  0.00  0.00    +0.000 A 
ATOM     22  C   UNL     1      -2.017  11.929  19.866  0.00  0.00    +0.000 A 
ATOM     23  C   UNL     1      -2.165  11.024  18.813  0.00  0.00    +0.000 A 
ATOM     24  C   UNL     1      -1.122  10.109  18.563  0.00  0.00    +0.000 A 
BRANCH  23  25
ATOM     25  C   UNL     1      -3.422  10.994  17.948  0.00  0.00    +0.000 C 
ATOM     26  C   UNL     1      -3.040  11.152  16.475  0.00  0.00    +0.000 C 
BRANCH  25  27
ATOM     27  C   UNL     1      -4.463  12.060  18.344  0.00  0.00    +0.000 C 
BRANCH  27  28
ATOM     28  C   UNL     1      -5.686  11.463  18.957  0.00  0.00    +0.000 A 
ATOM     29  N   UNL     1      -6.059  10.201  18.891  0.00  0.00    +0.000 NA
ATOM     30  N   UNL     1      -7.182  10.046  19.671  0.00  0.00    +0.000 NA
ATOM     31  C   UNL     1      -7.476  11.219  20.182  0.00  0.00    +0.000 A 
ATOM     32  N   UNL     1      -6.595  12.147  19.721  0.00  0.00    +0.000 N 
ATOM     33  C   UNL     1      -6.631  13.558  19.989  0.00  0.00    +0.000 C 
ENDBRANCH  27  28
ENDBRANCH  25  27
ENDBRANCH  23  25
ENDBRANCH   8  19
BRANCH   5  34
ATOM     34  C   UNL     1       2.388   5.007  20.275  0.00  0.00    +0.000 C 
ATOM     35  F   UNL     1       3.091   3.842  20.323  0.00  0.00    +0.000 F 
ATOM     36  F   UNL     1       2.414   5.506  21.541  0.00  0.00    +0.000 F 
ATOM     37  F   UNL     1       1.098   4.655  20.032  0.00  0.00    +0.000 F 
ENDBRANCH   5  34
TORSDOF 6
ENDMDL
