MODEL 1
REMARK VINA RESULT:      -8.3      0.000      0.000
REMARK  Name = 
REMARK  8 active torsions:
REMARK  status: ('A' for Active; 'I' for Inactive)
REMARK    1  A    between atoms: C_1  and  C_2
REMARK    2  A    between atoms: C_2  and  C_3
REMARK    3  A    between atoms: C_7  and  C_8
REMARK    4  A    between atoms: C_13  and  C_14
REMARK    5  A    between atoms: C_14  and  C_15
REMARK    6  A    between atoms: C_14  and  S_16
REMARK    7  A    between atoms: S_16  and  C_17
REMARK    8  A    between atoms: N_21  and  C_22
REMARK                            x       y       z     vdW  Elec       q    Type
REMARK                         _______ _______ _______ _____ _____    ______ ____
ROOT
ATOM      1  C   UNL     1       1.778   8.144  19.567  0.00  0.00    +0.000 C 
ATOM      2  O   UNL     1       1.825   8.436  18.372  0.00  0.00    +0.000 OA
ATOM      3  N   UNL     1       2.310   7.009  20.142  0.00  0.00    +0.000 N 
ATOM      4  C   UNL     1       2.935   5.996  19.421  0.00  0.00    +0.000 A 
ATOM      5  C   UNL     1       3.861   6.283  18.424  0.00  0.00    +0.000 A 
ATOM      6  C   UNL     1       4.438   5.231  17.700  0.00  0.00    +0.000 A 
ATOM      7  C   UNL     1       4.005   3.935  17.986  0.00  0.00    +0.000 A 
ATOM      8  C   UNL     1       3.097   3.745  19.015  0.00  0.00    +0.000 A 
ATOM      9  N   UNL     1       2.594   4.742  19.773  0.00  0.00    +0.000 NA
ATOM     10  H   UNL     1       1.908   6.732  21.029  0.00  0.00    +0.000 HD
ENDROOT
BRANCH   1  15
ATOM     11  C   UNL     1      -0.039  11.039  20.901  0.00  0.00    +0.000 A 
ATOM     12  C   UNL     1      -0.379  10.645  22.193  0.00  0.00    +0.000 A 
ATOM     13  C   UNL     1       0.018   9.387  22.649  0.00  0.00    +0.000 A 
ATOM     14  C   UNL     1       0.735   8.555  21.799  0.00  0.00    +0.000 A 
ATOM     15  C   UNL     1       1.041   9.021  20.526  0.00  0.00    +0.000 A 
ATOM     16  N   UNL     1       0.689  10.255  20.068  0.00  0.00    +0.000 NA
BRANCH  11  18
ATOM     17  C   UNL     1      -1.851  12.768  20.887  0.00  0.00    +0.000 C 
ATOM     18  C   UNL     1      -0.478  12.381  20.370  0.00  0.00    +0.000 C 
ENDBRANCH  11  18
ENDBRANCH   1  15
BRANCH   6  19
ATOM     19  C   UNL     1       5.489   5.461  16.630  0.00  0.00    +0.000 C 
ATOM     20  C   UNL     1       5.077   6.597  15.685  0.00  0.00    +0.000 C 
BRANCH  19  21
ATOM     21  S   UNL     1       5.823   3.971  15.625  0.00  0.00    +0.000 S 
BRANCH  21  22
ATOM     22  C   UNL     1       6.849   4.627  14.402  0.00  0.00    +0.000 A 
ATOM     23  N   UNL     1       7.817   5.499  14.564  0.00  0.00    +0.000 NA
ATOM     24  N   UNL     1       8.368   5.743  13.324  0.00  0.00    +0.000 NA
ATOM     25  C   UNL     1       7.710   5.017  12.448  0.00  0.00    +0.000 A 
ATOM     26  N   UNL     1       6.746   4.294  13.085  0.00  0.00    +0.000 N 
ATOM     27  C   UNL     1       5.834   3.369  12.469  0.00  0.00    +0.000 C 
ENDBRANCH  21  22
ENDBRANCH  19  21
ENDBRANCH   6  19
TORSDOF 5
ENDMDL
MODEL 2
REMARK VINA RESULT:      -8.1      2.025      2.937
REMARK  Name = 
REMARK  8 active torsions:
REMARK  status: ('A' for Active; 'I' for Inactive)
REMARK    1  A    between atoms: C_1  and  C_2
REMARK    2  A    between atoms: C_2  and  C_3
REMARK    3  A    between atoms: C_7  and  C_8
REMARK    4  A    between atoms: C_13  and  C_14
REMARK    5  A    between atoms: C_14  and  C_15
REMARK    6  A    between atoms: C_14  and  S_16
REMARK    7  A    between atoms: S_16  and  C_17
REMARK    8  A    between atoms: N_21  and  C_22
REMARK                            x       y       z     vdW  Elec       q    Type
REMARK                         _______ _______ _______ _____ _____    ______ ____
ROOT
ATOM      1  C   UNL     1       1.991   7.918  19.099  0.00  0.00    +0.000 C 
ATOM      2  O   UNL     1       2.282   8.391  18.001  0.00  0.00    +0.000 OA
ATOM      3  N   UNL     1       2.175   6.607  19.487  0.00  0.00    +0.000 N 
ATOM      4  C   UNL     1       2.673   5.614  18.649  0.00  0.00    +0.000 A 
ATOM      5  C   UNL     1       3.781   5.839  17.838  0.00  0.00    +0.000 A 
ATOM      6  C   UNL     1       4.224   4.822  16.985  0.00  0.00    +0.000 A 
ATOM      7  C   UNL     1       3.487   3.636  16.953  0.00  0.00    +0.000 A 
ATOM      8  C   UNL     1       2.412   3.494  17.816  0.00  0.00    +0.000 A 
ATOM      9  N   UNL     1       2.023   4.436  18.700  0.00  0.00    +0.000 NA
ATOM     10  H   UNL     1       1.592   6.286  20.250  0.00  0.00    +0.000 HD
ENDROOT
BRANCH   1  15
ATOM     11  C   UNL     1      -0.099  10.545  20.578  0.00  0.00    +0.000 A 
ATOM     12  C   UNL     1      -0.003  10.307  21.948  0.00  0.00    +0.000 A 
ATOM     13  C   UNL     1       0.791   9.254  22.403  0.00  0.00    +0.000 A 
ATOM     14  C   UNL     1       1.460   8.463  21.479  0.00  0.00    +0.000 A 
ATOM     15  C   UNL     1       1.320   8.766  20.129  0.00  0.00    +0.000 A 
ATOM     16  N   UNL     1       0.572   9.805  19.662  0.00  0.00    +0.000 NA
BRANCH  11  18
ATOM     17  C   UNL     1      -1.547  11.327  18.690  0.00  0.00    +0.000 C 
ATOM     18  C   UNL     1      -0.973  11.658  20.054  0.00  0.00    +0.000 C 
ENDBRANCH  11  18
ENDBRANCH   1  15
BRANCH   6  19
ATOM     19  C   UNL     1       5.452   4.975  16.106  0.00  0.00    +0.000 C 
ATOM     20  C   UNL     1       5.378   4.047  14.887  0.00  0.00    +0.000 C 
BRANCH  19  21
ATOM     21  S   UNL     1       7.013   4.633  16.993  0.00  0.00    +0.000 S 
BRANCH  21  22
ATOM     22  C   UNL     1       7.483   6.229  17.451  0.00  0.00    +0.000 A 
ATOM     23  N   UNL     1       7.444   7.311  16.708  0.00  0.00    +0.000 NA
ATOM     24  N   UNL     1       7.915   8.357  17.472  0.00  0.00    +0.000 NA
ATOM     25  C   UNL     1       8.231   7.875  18.652  0.00  0.00    +0.000 A 
ATOM     26  N   UNL     1       7.972   6.538  18.685  0.00  0.00    +0.000 N 
ATOM     27  C   UNL     1       8.169   5.662  19.808  0.00  0.00    +0.000 C 
ENDBRANCH  21  22
ENDBRANCH  19  21
ENDBRANCH   6  19
TORSDOF 5
ENDMDL
MODEL 3
REMARK VINA RESULT:      -7.8      2.136      3.351
REMARK  Name = 
REMARK  8 active torsions:
REMARK  status: ('A' for Active; 'I' for Inactive)
REMARK    1  A    between atoms: C_1  and  C_2
REMARK    2  A    between atoms: C_2  and  C_3
REMARK    3  A    between atoms: C_7  and  C_8
REMARK    4  A    between atoms: C_13  and  C_14
REMARK    5  A    between atoms: C_14  and  C_15
REMARK    6  A    between atoms: C_14  and  S_16
REMARK    7  A    between atoms: S_16  and  C_17
REMARK    8  A    between atoms: N_21  and  C_22
REMARK                            x       y       z     vdW  Elec       q    Type
REMARK                         _______ _______ _______ _____ _____    ______ ____
ROOT
ATOM      1  C   UNL     1       2.188   8.352  18.212  0.00  0.00    +0.000 C 
ATOM      2  O   UNL     1       2.238   8.565  17.001  0.00  0.00    +0.000 OA
ATOM      3  N   UNL     1       2.653   7.222  18.853  0.00  0.00    +0.000 N 
ATOM      4  C   UNL     1       3.201   6.127  18.191  0.00  0.00    +0.000 A 
ATOM      5  C   UNL     1       4.130   6.290  17.168  0.00  0.00    +0.000 A 
ATOM      6  C   UNL     1       4.628   5.160  16.507  0.00  0.00    +0.000 A 
ATOM      7  C   UNL     1       4.116   3.915  16.878  0.00  0.00    +0.000 A 
ATOM      8  C   UNL     1       3.211   3.849  17.926  0.00  0.00    +0.000 A 
ATOM      9  N   UNL     1       2.784   4.922  18.624  0.00  0.00    +0.000 NA
ATOM     10  H   UNL     1       2.246   7.028  19.758  0.00  0.00    +0.000 HD
ENDROOT
BRANCH   1  15
ATOM     11  C   UNL     1       0.703   9.792  21.242  0.00  0.00    +0.000 A 
ATOM     12  C   UNL     1       0.385  11.094  20.863  0.00  0.00    +0.000 A 
ATOM     13  C   UNL     1       0.655  11.510  19.558  0.00  0.00    +0.000 A 
ATOM     14  C   UNL     1       1.240  10.617  18.671  0.00  0.00    +0.000 A 
ATOM     15  C   UNL     1       1.523   9.333  19.121  0.00  0.00    +0.000 A 
ATOM     16  N   UNL     1       1.244   8.895  20.382  0.00  0.00    +0.000 NA
BRANCH  11  18
ATOM     17  C   UNL     1      -0.773   9.987  23.257  0.00  0.00    +0.000 C 
ATOM     18  C   UNL     1       0.451   9.323  22.653  0.00  0.00    +0.000 C 
ENDBRANCH  11  18
ENDBRANCH   1  15
BRANCH   6  19
ATOM     19  C   UNL     1       5.677   5.253  15.415  0.00  0.00    +0.000 C 
ATOM     20  C   UNL     1       5.267   4.437  14.183  0.00  0.00    +0.000 C 
BRANCH  19  21
ATOM     21  S   UNL     1       7.327   4.682  15.958  0.00  0.00    +0.000 S 
BRANCH  21  22
ATOM     22  C   UNL     1       7.293   5.128  17.624  0.00  0.00    +0.000 A 
ATOM     23  N   UNL     1       7.064   4.342  18.650  0.00  0.00    +0.000 NA
ATOM     24  N   UNL     1       7.129   5.116  19.789  0.00  0.00    +0.000 NA
ATOM     25  C   UNL     1       7.388   6.349  19.417  0.00  0.00    +0.000 A 
ATOM     26  N   UNL     1       7.504   6.402  18.060  0.00  0.00    +0.000 N 
ATOM     27  C   UNL     1       7.802   7.572  17.279  0.00  0.00    +0.000 C 
ENDBRANCH  21  22
ENDBRANCH  19  21
ENDBRANCH   6  19
TORSDOF 5
ENDMDL
MODEL 4
REMARK VINA RESULT:      -7.7      1.418      2.307
REMARK  Name = 
REMARK  8 active torsions:
REMARK  status: ('A' for Active; 'I' for Inactive)
REMARK    1  A    between atoms: C_1  and  C_2
REMARK    2  A    between atoms: C_2  and  C_3
REMARK    3  A    between atoms: C_7  and  C_8
REMARK    4  A    between atoms: C_13  and  C_14
REMARK    5  A    between atoms: C_14  and  C_15
REMARK    6  A    between atoms: C_14  and  S_16
REMARK    7  A    between atoms: S_16  and  C_17
REMARK    8  A    between atoms: N_21  and  C_22
REMARK                            x       y       z     vdW  Elec       q    Type
REMARK                         _______ _______ _______ _____ _____    ______ ____
ROOT
ATOM      1  C   UNL     1       2.364   7.897  18.323  0.00  0.00    +0.000 C 
ATOM      2  O   UNL     1       3.019   8.239  17.338  0.00  0.00    +0.000 OA
ATOM      3  N   UNL     1       2.306   6.623  18.850  0.00  0.00    +0.000 N 
ATOM      4  C   UNL     1       2.949   5.523  18.289  0.00  0.00    +0.000 A 
ATOM      5  C   UNL     1       4.268   5.601  17.852  0.00  0.00    +0.000 A 
ATOM      6  C   UNL     1       4.862   4.479  17.262  0.00  0.00    +0.000 A 
ATOM      7  C   UNL     1       4.070   3.341  17.092  0.00  0.00    +0.000 A 
ATOM      8  C   UNL     1       2.774   3.349  17.583  0.00  0.00    +0.000 A 
ATOM      9  N   UNL     1       2.216   4.396  18.225  0.00  0.00    +0.000 NA
ATOM     10  H   UNL     1       1.492   6.414  19.413  0.00  0.00    +0.000 HD
ENDROOT
BRANCH   1  15
ATOM     11  C   UNL     1       0.536   9.588  21.017  0.00  0.00    +0.000 A 
ATOM     12  C   UNL     1      -0.040  10.686  20.381  0.00  0.00    +0.000 A 
ATOM     13  C   UNL     1       0.166  10.868  19.013  0.00  0.00    +0.000 A 
ATOM     14  C   UNL     1       0.948   9.955  18.320  0.00  0.00    +0.000 A 
ATOM     15  C   UNL     1       1.485   8.882  19.022  0.00  0.00    +0.000 A 
ATOM     16  N   UNL     1       1.276   8.668  20.351  0.00  0.00    +0.000 NA
BRANCH  11  18
ATOM     17  C   UNL     1      -0.777  10.225  23.052  0.00  0.00    +0.000 C 
ATOM     18  C   UNL     1       0.356   9.381  22.500  0.00  0.00    +0.000 C 
ENDBRANCH  11  18
ENDBRANCH   1  15
BRANCH   6  19
ATOM     19  C   UNL     1       6.309   4.471  16.803  0.00  0.00    +0.000 C 
ATOM     20  C   UNL     1       7.262   4.727  17.977  0.00  0.00    +0.000 C 
BRANCH  19  21
ATOM     21  S   UNL     1       6.653   5.711  15.505  0.00  0.00    +0.000 S 
BRANCH  21  22
ATOM     22  C   UNL     1       6.540   4.736  14.086  0.00  0.00    +0.000 A 
ATOM     23  N   UNL     1       5.679   3.772  13.853  0.00  0.00    +0.000 NA
ATOM     24  N   UNL     1       5.953   3.263  12.602  0.00  0.00    +0.000 NA
ATOM     25  C   UNL     1       6.977   3.930  12.118  0.00  0.00    +0.000 A 
ATOM     26  N   UNL     1       7.376   4.871  13.019  0.00  0.00    +0.000 N 
ATOM     27  C   UNL     1       8.452   5.809  12.845  0.00  0.00    +0.000 C 
ENDBRANCH  21  22
ENDBRANCH  19  21
ENDBRANCH   6  19
TORSDOF 5
ENDMDL
MODEL 5
REMARK VINA RESULT:      -7.7      3.744      9.014
REMARK  Name = 
REMARK  8 active torsions:
REMARK  status: ('A' for Active; 'I' for Inactive)
REMARK    1  A    between atoms: C_1  and  C_2
REMARK    2  A    between atoms: C_2  and  C_3
REMARK    3  A    between atoms: C_7  and  C_8
REMARK    4  A    between atoms: C_13  and  C_14
REMARK    5  A    between atoms: C_14  and  C_15
REMARK    6  A    between atoms: C_14  and  S_16
REMARK    7  A    between atoms: S_16  and  C_17
REMARK    8  A    between atoms: N_21  and  C_22
REMARK                            x       y       z     vdW  Elec       q    Type
REMARK                         _______ _______ _______ _____ _____    ______ ____
ROOT
ATOM      1  C   UNL     1       2.647   7.883  18.131  0.00  0.00    +0.000 C 
ATOM      2  O   UNL     1       2.868   8.884  17.449  0.00  0.00    +0.000 OA
ATOM      3  N   UNL     1       1.843   7.831  19.251  0.00  0.00    +0.000 N 
ATOM      4  C   UNL     1       1.208   8.942  19.800  0.00  0.00    +0.000 A 
ATOM      5  C   UNL     1       0.539   9.863  19.000  0.00  0.00    +0.000 A 
ATOM      6  C   UNL     1      -0.054  10.984  19.593  0.00  0.00    +0.000 A 
ATOM      7  C   UNL     1       0.105  11.147  20.971  0.00  0.00    +0.000 A 
ATOM      8  C   UNL     1       0.765  10.164  21.689  0.00  0.00    +0.000 A 
ATOM      9  N   UNL     1       1.272   9.040  21.141  0.00  0.00    +0.000 NA
ATOM     10  H   UNL     1       2.025   7.069  19.892  0.00  0.00    +0.000 HD
ENDROOT
BRANCH   1  15
ATOM     11  C   UNL     1       5.284   5.503  17.215  0.00  0.00    +0.000 A 
ATOM     12  C   UNL     1       4.650   4.265  17.296  0.00  0.00    +0.000 A 
ATOM     13  C   UNL     1       3.301   4.212  17.649  0.00  0.00    +0.000 A 
ATOM     14  C   UNL     1       2.625   5.394  17.920  0.00  0.00    +0.000 A 
ATOM     15  C   UNL     1       3.324   6.591  17.812  0.00  0.00    +0.000 A 
ATOM     16  N   UNL     1       4.634   6.670  17.443  0.00  0.00    +0.000 NA
BRANCH  11  18
ATOM     17  C   UNL     1       7.391   6.838  17.444  0.00  0.00    +0.000 C 
ATOM     18  C   UNL     1       6.748   5.591  16.865  0.00  0.00    +0.000 C 
ENDBRANCH  11  18
ENDBRANCH   1  15
BRANCH   6  19
ATOM     19  C   UNL     1      -0.840  12.007  18.793  0.00  0.00    +0.000 C 
ATOM     20  C   UNL     1      -0.570  13.429  19.299  0.00  0.00    +0.000 C 
BRANCH  19  21
ATOM     21  S   UNL     1      -2.644  11.716  18.836  0.00  0.00    +0.000 S 
BRANCH  21  22
ATOM     22  C   UNL     1      -2.915  11.112  17.243  0.00  0.00    +0.000 A 
ATOM     23  N   UNL     1      -2.073  10.432  16.500  0.00  0.00    +0.000 NA
ATOM     24  N   UNL     1      -2.701  10.159  15.303  0.00  0.00    +0.000 NA
ATOM     25  C   UNL     1      -3.903  10.688  15.357  0.00  0.00    +0.000 A 
ATOM     26  N   UNL     1      -4.082  11.295  16.564  0.00  0.00    +0.000 N 
ATOM     27  C   UNL     1      -5.272  11.970  17.006  0.00  0.00    +0.000 C 
ENDBRANCH  21  22
ENDBRANCH  19  21
ENDBRANCH   6  19
TORSDOF 5
ENDMDL
MODEL 6
REMARK VINA RESULT:      -7.7      2.022      2.955
REMARK  Name = 
REMARK  8 active torsions:
REMARK  status: ('A' for Active; 'I' for Inactive)
REMARK    1  A    between atoms: C_1  and  C_2
REMARK    2  A    between atoms: C_2  and  C_3
REMARK    3  A    between atoms: C_7  and  C_8
REMARK    4  A    between atoms: C_13  and  C_14
REMARK    5  A    between atoms: C_14  and  C_15
REMARK    6  A    between atoms: C_14  and  S_16
REMARK    7  A    between atoms: S_16  and  C_17
REMARK    8  A    between atoms: N_21  and  C_22
REMARK                            x       y       z     vdW  Elec       q    Type
REMARK                         _______ _______ _______ _____ _____    ______ ____
ROOT
ATOM      1  C   UNL     1       2.055   7.871  18.854  0.00  0.00    +0.000 C 
ATOM      2  O   UNL     1       2.031   8.222  17.674  0.00  0.00    +0.000 OA
ATOM      3  N   UNL     1       2.620   6.710  19.338  0.00  0.00    +0.000 N 
ATOM      4  C   UNL     1       3.201   5.736  18.530  0.00  0.00    +0.000 A 
ATOM      5  C   UNL     1       4.066   6.075  17.495  0.00  0.00    +0.000 A 
ATOM      6  C   UNL     1       4.598   5.063  16.686  0.00  0.00    +0.000 A 
ATOM      7  C   UNL     1       4.182   3.752  16.932  0.00  0.00    +0.000 A 
ATOM      8  C   UNL     1       3.337   3.509  18.002  0.00  0.00    +0.000 A 
ATOM      9  N   UNL     1       2.881   4.465  18.838  0.00  0.00    +0.000 NA
ATOM     10  H   UNL     1       2.272   6.387  20.232  0.00  0.00    +0.000 HD
ENDROOT
BRANCH   1  15
ATOM     11  C   UNL     1       0.064  10.545  20.385  0.00  0.00    +0.000 A 
ATOM     12  C   UNL     1       0.047  10.207  21.736  0.00  0.00    +0.000 A 
ATOM     13  C   UNL     1       0.729   9.066  22.163  0.00  0.00    +0.000 A 
ATOM     14  C   UNL     1       1.401   8.291  21.228  0.00  0.00    +0.000 A 
ATOM     15  C   UNL     1       1.377   8.696  19.898  0.00  0.00    +0.000 A 
ATOM     16  N   UNL     1       0.741   9.819  19.462  0.00  0.00    +0.000 NA
BRANCH  11  18
ATOM     17  C   UNL     1       0.198  12.985  19.835  0.00  0.00    +0.000 C 
ATOM     18  C   UNL     1      -0.688  11.754  19.889  0.00  0.00    +0.000 C 
ENDBRANCH  11  18
ENDBRANCH   1  15
BRANCH   6  19
ATOM     19  C   UNL     1       5.583   5.349  15.569  0.00  0.00    +0.000 C 
ATOM     20  C   UNL     1       5.148   4.675  14.262  0.00  0.00    +0.000 C 
BRANCH  19  21
ATOM     21  S   UNL     1       7.284   4.803  15.958  0.00  0.00    +0.000 S 
BRANCH  21  22
ATOM     22  C   UNL     1       7.387   5.224  17.628  0.00  0.00    +0.000 A 
ATOM     23  N   UNL     1       7.306   4.413  18.656  0.00  0.00    +0.000 NA
ATOM     24  N   UNL     1       7.436   5.175  19.798  0.00  0.00    +0.000 NA
ATOM     25  C   UNL     1       7.585   6.426  19.425  0.00  0.00    +0.000 A 
ATOM     26  N   UNL     1       7.564   6.503  18.065  0.00  0.00    +0.000 N 
ATOM     27  C   UNL     1       7.715   7.699  17.280  0.00  0.00    +0.000 C 
ENDBRANCH  21  22
ENDBRANCH  19  21
ENDBRANCH   6  19
TORSDOF 5
ENDMDL
MODEL 7
REMARK VINA RESULT:      -7.6      4.082      9.059
REMARK  Name = 
REMARK  8 active torsions:
REMARK  status: ('A' for Active; 'I' for Inactive)
REMARK    1  A    between atoms: C_1  and  C_2
REMARK    2  A    between atoms: C_2  and  C_3
REMARK    3  A    between atoms: C_7  and  C_8
REMARK    4  A    between atoms: C_13  and  C_14
REMARK    5  A    between atoms: C_14  and  C_15
REMARK    6  A    between atoms: C_14  and  S_16
REMARK    7  A    between atoms: S_16  and  C_17
REMARK    8  A    between atoms: N_21  and  C_22
REMARK                            x       y       z     vdW  Elec       q    Type
REMARK                         _______ _______ _______ _____ _____    ______ ____
ROOT
ATOM      1  C   UNL     1       2.668   7.107  18.809  0.00  0.00    +0.000 C 
ATOM      2  O   UNL     1       3.022   8.002  18.042  0.00  0.00    +0.000 OA
ATOM      3  N   UNL     1       1.846   7.264  19.906  0.00  0.00    +0.000 N 
ATOM      4  C   UNL     1       1.345   8.492  20.329  0.00  0.00    +0.000 A 
ATOM      5  C   UNL     1       0.809   9.405  19.427  0.00  0.00    +0.000 A 
ATOM      6  C   UNL     1       0.350  10.642  19.894  0.00  0.00    +0.000 A 
ATOM      7  C   UNL     1       0.506  10.920  21.254  0.00  0.00    +0.000 A 
ATOM      8  C   UNL     1       1.028   9.937  22.081  0.00  0.00    +0.000 A 
ATOM      9  N   UNL     1       1.401   8.712  21.656  0.00  0.00    +0.000 NA
ATOM     10  H   UNL     1       1.922   6.552  20.621  0.00  0.00    +0.000 HD
ENDROOT
BRANCH   1  15
ATOM     11  C   UNL     1       3.410   3.586  19.520  0.00  0.00    +0.000 A 
ATOM     12  C   UNL     1       4.027   3.140  18.354  0.00  0.00    +0.000 A 
ATOM     13  C   UNL     1       4.222   4.034  17.300  0.00  0.00    +0.000 A 
ATOM     14  C   UNL     1       3.787   5.345  17.437  0.00  0.00    +0.000 A 
ATOM     15  C   UNL     1       3.185   5.717  18.633  0.00  0.00    +0.000 A 
ATOM     16  N   UNL     1       3.008   4.870  19.686  0.00  0.00    +0.000 NA
BRANCH  11  18
ATOM     17  C   UNL     1       2.031   3.116  21.558  0.00  0.00    +0.000 C 
ATOM     18  C   UNL     1       3.159   2.636  20.665  0.00  0.00    +0.000 C 
ENDBRANCH  11  18
ENDBRANCH   1  15
BRANCH   6  19
ATOM     19  C   UNL     1      -0.289  11.671  18.979  0.00  0.00    +0.000 C 
ATOM     20  C   UNL     1       0.434  13.020  19.073  0.00  0.00    +0.000 C 
BRANCH  19  21
ATOM     21  S   UNL     1      -2.061  11.944  19.339  0.00  0.00    +0.000 S 
BRANCH  21  22
ATOM     22  C   UNL     1      -2.771  11.504  17.830  0.00  0.00    +0.000 A 
ATOM     23  N   UNL     1      -2.151  11.061  16.761  0.00  0.00    +0.000 NA
ATOM     24  N   UNL     1      -3.103  10.840  15.789  0.00  0.00    +0.000 NA
ATOM     25  C   UNL     1      -4.271  11.163  16.297  0.00  0.00    +0.000 A 
ATOM     26  N   UNL     1      -4.109  11.583  17.584  0.00  0.00    +0.000 N 
ATOM     27  C   UNL     1      -5.155  12.003  18.477  0.00  0.00    +0.000 C 
ENDBRANCH  21  22
ENDBRANCH  19  21
ENDBRANCH   6  19
TORSDOF 5
ENDMDL
MODEL 8
REMARK VINA RESULT:      -7.6      2.352      9.383
REMARK  Name = 
REMARK  8 active torsions:
REMARK  status: ('A' for Active; 'I' for Inactive)
REMARK    1  A    between atoms: C_1  and  C_2
REMARK    2  A    between atoms: C_2  and  C_3
REMARK    3  A    between atoms: C_7  and  C_8
REMARK    4  A    between atoms: C_13  and  C_14
REMARK    5  A    between atoms: C_14  and  C_15
REMARK    6  A    between atoms: C_14  and  S_16
REMARK    7  A    between atoms: S_16  and  C_17
REMARK    8  A    between atoms: N_21  and  C_22
REMARK                            x       y       z     vdW  Elec       q    Type
REMARK                         _______ _______ _______ _____ _____    ______ ____
ROOT
ATOM      1  C   UNL     1       5.715   4.741  15.770  0.00  0.00    +0.000 C 
ATOM      2  O   UNL     1       6.089   5.673  16.482  0.00  0.00    +0.000 OA
ATOM      3  N   UNL     1       4.795   3.775  16.121  0.00  0.00    +0.000 N 
ATOM      4  C   UNL     1       4.198   3.695  17.376  0.00  0.00    +0.000 A 
ATOM      5  C   UNL     1       3.696   4.826  18.013  0.00  0.00    +0.000 A 
ATOM      6  C   UNL     1       3.137   4.702  19.291  0.00  0.00    +0.000 A 
ATOM      7  C   UNL     1       3.161   3.440  19.889  0.00  0.00    +0.000 A 
ATOM      8  C   UNL     1       3.658   2.368  19.166  0.00  0.00    +0.000 A 
ATOM      9  N   UNL     1       4.127   2.459  17.904  0.00  0.00    +0.000 NA
ATOM     10  H   UNL     1       4.844   2.907  15.604  0.00  0.00    +0.000 HD
ENDROOT
BRANCH   1  15
ATOM     11  C   UNL     1       6.244   3.413  12.391  0.00  0.00    +0.000 A 
ATOM     12  C   UNL     1       7.302   4.176  11.902  0.00  0.00    +0.000 A 
ATOM     13  C   UNL     1       7.873   5.153  12.718  0.00  0.00    +0.000 A 
ATOM     14  C   UNL     1       7.368   5.346  13.997  0.00  0.00    +0.000 A 
ATOM     15  C   UNL     1       6.315   4.541  14.416  0.00  0.00    +0.000 A 
ATOM     16  N   UNL     1       5.758   3.563  13.648  0.00  0.00    +0.000 NA
BRANCH  11  18
ATOM     17  C   UNL     1       6.580   1.326  11.047  0.00  0.00    +0.000 C 
ATOM     18  C   UNL     1       5.587   2.370  11.522  0.00  0.00    +0.000 C 
ENDBRANCH  11  18
ENDBRANCH   1  15
BRANCH   6  19
ATOM     19  C   UNL     1       2.528   5.880  20.029  0.00  0.00    +0.000 C 
ATOM     20  C   UNL     1       1.147   5.524  20.593  0.00  0.00    +0.000 C 
BRANCH  19  21
ATOM     21  S   UNL     1       2.353   7.368  18.981  0.00  0.00    +0.000 S 
BRANCH  21  22
ATOM     22  C   UNL     1       1.577   8.450  20.079  0.00  0.00    +0.000 A 
ATOM     23  N   UNL     1       1.597   8.397  21.390  0.00  0.00    +0.000 NA
ATOM     24  N   UNL     1       0.843   9.451  21.860  0.00  0.00    +0.000 NA
ATOM     25  C   UNL     1       0.383  10.105  20.817  0.00  0.00    +0.000 A 
ATOM     26  N   UNL     1       0.824   9.511  19.673  0.00  0.00    +0.000 N 
ATOM     27  C   UNL     1       0.549   9.945  18.331  0.00  0.00    +0.000 C 
ENDBRANCH  21  22
ENDBRANCH  19  21
ENDBRANCH   6  19
TORSDOF 5
ENDMDL
MODEL 9
REMARK VINA RESULT:      -7.6      1.676      2.487
REMARK  Name = 
REMARK  8 active torsions:
REMARK  status: ('A' for Active; 'I' for Inactive)
REMARK    1  A    between atoms: C_1  and  C_2
REMARK    2  A    between atoms: C_2  and  C_3
REMARK    3  A    between atoms: C_7  and  C_8
REMARK    4  A    between atoms: C_13  and  C_14
REMARK    5  A    between atoms: C_14  and  C_15
REMARK    6  A    between atoms: C_14  and  S_16
REMARK    7  A    between atoms: S_16  and  C_17
REMARK    8  A    between atoms: N_21  and  C_22
REMARK                            x       y       z     vdW  Elec       q    Type
REMARK                         _______ _______ _______ _____ _____    ______ ____
ROOT
ATOM      1  C   UNL     1       2.369   7.943  19.071  0.00  0.00    +0.000 C 
ATOM      2  O   UNL     1       3.071   8.197  18.092  0.00  0.00    +0.000 OA
ATOM      3  N   UNL     1       2.462   6.815  19.860  0.00  0.00    +0.000 N 
ATOM      4  C   UNL     1       3.343   5.766  19.610  0.00  0.00    +0.000 A 
ATOM      5  C   UNL     1       4.673   6.002  19.275  0.00  0.00    +0.000 A 
ATOM      6  C   UNL     1       5.513   4.917  18.998  0.00  0.00    +0.000 A 
ATOM      7  C   UNL     1       4.949   3.639  19.019  0.00  0.00    +0.000 A 
ATOM      8  C   UNL     1       3.621   3.501  19.389  0.00  0.00    +0.000 A 
ATOM      9  N   UNL     1       2.822   4.532  19.736  0.00  0.00    +0.000 NA
ATOM     10  H   UNL     1       1.633   6.574  20.387  0.00  0.00    +0.000 HD
ENDROOT
BRANCH   1  15
ATOM     11  C   UNL     1      -0.058   9.730  21.162  0.00  0.00    +0.000 A 
ATOM     12  C   UNL     1      -0.700  10.581  20.264  0.00  0.00    +0.000 A 
ATOM     13  C   UNL     1      -0.332  10.554  18.918  0.00  0.00    +0.000 A 
ATOM     14  C   UNL     1       0.671   9.686  18.508  0.00  0.00    +0.000 A 
ATOM     15  C   UNL     1       1.260   8.864  19.462  0.00  0.00    +0.000 A 
ATOM     16  N   UNL     1       0.900   8.853  20.776  0.00  0.00    +0.000 NA
BRANCH  11  18
ATOM     17  C   UNL     1      -1.206  10.999  22.992  0.00  0.00    +0.000 C 
ATOM     18  C   UNL     1      -0.414   9.757  22.627  0.00  0.00    +0.000 C 
ENDBRANCH  11  18
ENDBRANCH   1  15
BRANCH   6  19
ATOM     19  C   UNL     1       6.985   5.091  18.671  0.00  0.00    +0.000 C 
ATOM     20  C   UNL     1       7.772   5.557  19.902  0.00  0.00    +0.000 C 
BRANCH  19  21
ATOM     21  S   UNL     1       7.281   6.282  17.316  0.00  0.00    +0.000 S 
BRANCH  21  22
ATOM     22  C   UNL     1       6.731   5.372  15.957  0.00  0.00    +0.000 A 
ATOM     23  N   UNL     1       7.290   4.302  15.441  0.00  0.00    +0.000 NA
ATOM     24  N   UNL     1       6.521   3.908  14.368  0.00  0.00    +0.000 NA
ATOM     25  C   UNL     1       5.523   4.756  14.263  0.00  0.00    +0.000 A 
ATOM     26  N   UNL     1       5.614   5.694  15.247  0.00  0.00    +0.000 N 
ATOM     27  C   UNL     1       4.697   6.778  15.473  0.00  0.00    +0.000 C 
ENDBRANCH  21  22
ENDBRANCH  19  21
ENDBRANCH   6  19
TORSDOF 5
ENDMDL
