MODEL 1
REMARK VINA RESULT:      -9.8      0.000      0.000
REMARK  Name = 
REMARK  10 active torsions:
REMARK  status: ('A' for Active; 'I' for Inactive)
REMARK    1  A    between atoms: C_1  and  C_2
REMARK    2  A    between atoms: C_2  and  C_3
REMARK    3  A    between atoms: C_2  and  C_10
REMARK    4  A    between atoms: C_3  and  C_4
REMARK    5  A    between atoms: N_8  and  C_9
REMARK    6  A    between atoms: C_14  and  N_15
REMARK    7  A    between atoms: C_20  and  C_21
REMARK    8  A    between atoms: C_25  and  O_26
REMARK    9  A    between atoms: C_28  and  C_29
REMARK   10  A    between atoms: C_31  and  C_32
REMARK                            x       y       z     vdW  Elec       q    Type
REMARK                         _______ _______ _______ _____ _____    ______ ____
ROOT
ATOM      1  N   UNL     1       2.044   7.704  19.403  0.00  0.00    +0.000 N 
ATOM      2  C   UNL     1       1.462   8.068  20.678  0.00  0.00    +0.000 C 
ATOM      3  C   UNL     1       0.912   9.423  20.456  0.00  0.00    +0.000 A 
ATOM      4  C   UNL     1       1.211   9.862  19.171  0.00  0.00    +0.000 A 
ATOM      5  C   UNL     1       0.843  11.141  18.740  0.00  0.00    +0.000 A 
ATOM      6  C   UNL     1       0.189  11.985  19.653  0.00  0.00    +0.000 A 
ATOM      7  C   UNL     1      -0.153  11.475  20.937  0.00  0.00    +0.000 A 
ATOM      8  C   UNL     1       0.207  10.194  21.364  0.00  0.00    +0.000 A 
ATOM      9  C   UNL     1       1.927   8.747  18.476  0.00  0.00    +0.000 C 
ATOM     10  O   UNL     1       2.307   8.822  17.319  0.00  0.00    +0.000 OA
ENDROOT
BRANCH   6  11
ATOM     11  C   UNL     1      -0.212  13.419  19.467  0.00  0.00    +0.000 C 
ATOM     12  O   UNL     1      -1.430  13.648  19.489  0.00  0.00    +0.000 OA
ATOM     13  N   UNL     1       0.683  14.478  19.398  0.00  0.00    +0.000 N 
ATOM     14  C   UNL     1       0.166  15.838  19.519  0.00  0.00    +0.000 C 
ATOM     15  C   UNL     1       0.971  16.650  18.520  0.00  0.00    +0.000 C 
ATOM     16  C   UNL     1       2.328  15.957  18.502  0.00  0.00    +0.000 C 
ATOM     17  C   UNL     1       2.072  14.506  18.954  0.00  0.00    +0.000 C 
ATOM     18  C   UNL     1       3.068  14.134  20.050  0.00  0.00    +0.000 C 
BRANCH  15  19
ATOM     19  O   UNL     1       1.103  18.014  18.889  0.00  0.00    +0.000 OA
ATOM     20  H   UNL     1       2.044  18.258  18.843  0.00  0.00    +0.000 HD
ENDBRANCH  15  19
ENDBRANCH   6  11
BRANCH   1  25
ATOM     21  C   UNL     1       4.145   4.947  17.971  0.00  0.00    +0.000 A 
ATOM     22  C   UNL     1       3.866   3.901  18.848  0.00  0.00    +0.000 A 
ATOM     23  C   UNL     1       2.976   4.098  19.916  0.00  0.00    +0.000 A 
ATOM     24  C   UNL     1       2.345   5.339  20.129  0.00  0.00    +0.000 A 
ATOM     25  C   UNL     1       2.598   6.399  19.263  0.00  0.00    +0.000 A 
ATOM     26  C   UNL     1       3.486   6.163  18.192  0.00  0.00    +0.000 A 
BRANCH  21  28
ATOM     27  C   UNL     1       4.757   3.630  15.851  0.00  0.00    +0.000 C 
ATOM     28  C   UNL     1       5.105   4.798  16.795  0.00  0.00    +0.000 C 
BRANCH  28  29
ATOM     29  C   UNL     1       6.589   4.776  17.223  0.00  0.00    +0.000 C 
BRANCH  29  30
ATOM     30  C   UNL     1       7.205   6.110  17.489  0.00  0.00    +0.000 A 
ATOM     31  N   UNL     1       7.205   7.157  16.686  0.00  0.00    +0.000 NA
ATOM     32  N   UNL     1       7.855   8.190  17.321  0.00  0.00    +0.000 NA
ATOM     33  C   UNL     1       8.220   7.760  18.505  0.00  0.00    +0.000 A 
ATOM     34  N   UNL     1       7.846   6.461  18.650  0.00  0.00    +0.000 N 
ATOM     35  C   UNL     1       8.072   5.640  19.809  0.00  0.00    +0.000 C 
ENDBRANCH  29  30
ENDBRANCH  28  29
ENDBRANCH  21  28
ENDBRANCH   1  25
BRANCH   8  36
ATOM     36  C   UNL     1      -0.157   9.708  22.743  0.00  0.00    +0.000 C 
ATOM     37  F   UNL     1       0.919   9.405  23.518  0.00  0.00    +0.000 F 
ATOM     38  F   UNL     1      -0.871  10.628  23.443  0.00  0.00    +0.000 F 
ATOM     39  F   UNL     1      -0.913   8.579  22.710  0.00  0.00    +0.000 F 
ENDBRANCH   8  36
TORSDOF 7
ENDMDL
MODEL 2
REMARK VINA RESULT:      -9.6      0.578      1.034
REMARK  Name = 
REMARK  10 active torsions:
REMARK  status: ('A' for Active; 'I' for Inactive)
REMARK    1  A    between atoms: C_1  and  C_2
REMARK    2  A    between atoms: C_2  and  C_3
REMARK    3  A    between atoms: C_2  and  C_10
REMARK    4  A    between atoms: C_3  and  C_4
REMARK    5  A    between atoms: N_8  and  C_9
REMARK    6  A    between atoms: C_14  and  N_15
REMARK    7  A    between atoms: C_20  and  C_21
REMARK    8  A    between atoms: C_25  and  O_26
REMARK    9  A    between atoms: C_28  and  C_29
REMARK   10  A    between atoms: C_31  and  C_32
REMARK                            x       y       z     vdW  Elec       q    Type
REMARK                         _______ _______ _______ _____ _____    ______ ____
ROOT
ATOM      1  N   UNL     1       2.018   7.832  19.274  0.00  0.00    +0.000 N 
ATOM      2  C   UNL     1       1.443   8.131  20.569  0.00  0.00    +0.000 C 
ATOM      3  C   UNL     1       0.889   9.494  20.418  0.00  0.00    +0.000 A 
ATOM      4  C   UNL     1       1.179   9.997  19.154  0.00  0.00    +0.000 A 
ATOM      5  C   UNL     1       0.806  11.295  18.790  0.00  0.00    +0.000 A 
ATOM      6  C   UNL     1       0.155  12.092  19.747  0.00  0.00    +0.000 A 
ATOM      7  C   UNL     1      -0.177  11.517  21.007  0.00  0.00    +0.000 A 
ATOM      8  C   UNL     1       0.188  10.217  21.367  0.00  0.00    +0.000 A 
ATOM      9  C   UNL     1       1.893   8.919  18.400  0.00  0.00    +0.000 C 
ATOM     10  O   UNL     1       2.266   9.053  17.247  0.00  0.00    +0.000 OA
ENDROOT
BRANCH   6  11
ATOM     11  C   UNL     1      -0.250  13.532  19.636  0.00  0.00    +0.000 C 
ATOM     12  O   UNL     1      -1.458  13.767  19.779  0.00  0.00    +0.000 OA
ATOM     13  N   UNL     1       0.642  14.587  19.507  0.00  0.00    +0.000 N 
ATOM     14  C   UNL     1       0.150  15.946  19.710  0.00  0.00    +0.000 C 
ATOM     15  C   UNL     1       0.863  16.778  18.659  0.00  0.00    +0.000 C 
ATOM     16  C   UNL     1       2.207  16.079  18.495  0.00  0.00    +0.000 C 
ATOM     17  C   UNL     1       1.983  14.618  18.934  0.00  0.00    +0.000 C 
ATOM     18  C   UNL     1       3.076  14.213  19.920  0.00  0.00    +0.000 C 
BRANCH  15  19
ATOM     19  O   UNL     1       1.041  18.132  19.047  0.00  0.00    +0.000 OA
ATOM     20  H   UNL     1       1.940  18.237  19.404  0.00  0.00    +0.000 HD
ENDBRANCH  15  19
ENDBRANCH   6  11
BRANCH   1  25
ATOM     21  C   UNL     1       4.007   5.122  17.612  0.00  0.00    +0.000 A 
ATOM     22  C   UNL     1       3.831   4.064  18.501  0.00  0.00    +0.000 A 
ATOM     23  C   UNL     1       3.047   4.237  19.653  0.00  0.00    +0.000 A 
ATOM     24  C   UNL     1       2.423   5.465  19.941  0.00  0.00    +0.000 A 
ATOM     25  C   UNL     1       2.574   6.537  19.066  0.00  0.00    +0.000 A 
ATOM     26  C   UNL     1       3.356   6.325  17.910  0.00  0.00    +0.000 A 
BRANCH  21  28
ATOM     27  C   UNL     1       5.193   3.544  15.967  0.00  0.00    +0.000 C 
ATOM     28  C   UNL     1       4.849   4.998  16.347  0.00  0.00    +0.000 C 
BRANCH  28  29
ATOM     29  C   UNL     1       6.098   5.906  16.357  0.00  0.00    +0.000 C 
BRANCH  29  30
ATOM     30  C   UNL     1       6.929   5.848  17.598  0.00  0.00    +0.000 A 
ATOM     31  N   UNL     1       7.154   4.789  18.351  0.00  0.00    +0.000 NA
ATOM     32  N   UNL     1       7.991   5.159  19.380  0.00  0.00    +0.000 NA
ATOM     33  C   UNL     1       8.276   6.429  19.221  0.00  0.00    +0.000 A 
ATOM     34  N   UNL     1       7.625   6.906  18.126  0.00  0.00    +0.000 N 
ATOM     35  C   UNL     1       7.682   8.254  17.629  0.00  0.00    +0.000 C 
ENDBRANCH  29  30
ENDBRANCH  28  29
ENDBRANCH  21  28
ENDBRANCH   1  25
BRANCH   8  36
ATOM     36  C   UNL     1      -0.166   9.663  22.723  0.00  0.00    +0.000 C 
ATOM     37  F   UNL     1       0.916   9.335  23.480  0.00  0.00    +0.000 F 
ATOM     38  F   UNL     1      -0.888  10.541  23.467  0.00  0.00    +0.000 F 
ATOM     39  F   UNL     1      -0.910   8.528  22.638  0.00  0.00    +0.000 F 
ENDBRANCH   8  36
TORSDOF 7
ENDMDL
MODEL 3
REMARK VINA RESULT:      -9.5      1.424      1.908
REMARK  Name = 
REMARK  10 active torsions:
REMARK  status: ('A' for Active; 'I' for Inactive)
REMARK    1  A    between atoms: C_1  and  C_2
REMARK    2  A    between atoms: C_2  and  C_3
REMARK    3  A    between atoms: C_2  and  C_10
REMARK    4  A    between atoms: C_3  and  C_4
REMARK    5  A    between atoms: N_8  and  C_9
REMARK    6  A    between atoms: C_14  and  N_15
REMARK    7  A    between atoms: C_20  and  C_21
REMARK    8  A    between atoms: C_25  and  O_26
REMARK    9  A    between atoms: C_28  and  C_29
REMARK   10  A    between atoms: C_31  and  C_32
REMARK                            x       y       z     vdW  Elec       q    Type
REMARK                         _______ _______ _______ _____ _____    ______ ____
ROOT
ATOM      1  N   UNL     1       1.764   7.248  19.924  0.00  0.00    +0.000 N 
ATOM      2  C   UNL     1       1.181   7.925  21.063  0.00  0.00    +0.000 C 
ATOM      3  C   UNL     1       0.916   9.296  20.577  0.00  0.00    +0.000 A 
ATOM      4  C   UNL     1       1.377   9.446  19.274  0.00  0.00    +0.000 A 
ATOM      5  C   UNL     1       1.290  10.676  18.613  0.00  0.00    +0.000 A 
ATOM      6  C   UNL     1       0.751  11.768  19.313  0.00  0.00    +0.000 A 
ATOM      7  C   UNL     1       0.234  11.557  20.622  0.00  0.00    +0.000 A 
ATOM      8  C   UNL     1       0.314  10.326  21.279  0.00  0.00    +0.000 A 
ATOM      9  C   UNL     1       1.910   8.118  18.836  0.00  0.00    +0.000 C 
ATOM     10  O   UNL     1       2.373   7.923  17.724  0.00  0.00    +0.000 OA
ENDROOT
BRANCH   6  11
ATOM     11  C   UNL     1       0.644  13.196  18.865  0.00  0.00    +0.000 C 
ATOM     12  O   UNL     1      -0.385  13.494  18.244  0.00  0.00    +0.000 OA
ATOM     13  N   UNL     1       1.551  14.191  19.205  0.00  0.00    +0.000 N 
ATOM     14  C   UNL     1       1.182  15.583  18.966  0.00  0.00    +0.000 C 
ATOM     15  C   UNL     1       2.459  16.244  18.478  0.00  0.00    +0.000 C 
ATOM     16  C   UNL     1       3.561  15.479  19.201  0.00  0.00    +0.000 C 
ATOM     17  C   UNL     1       2.968  14.097  19.539  0.00  0.00    +0.000 C 
ATOM     18  C   UNL     1       3.226  13.781  21.010  0.00  0.00    +0.000 C 
BRANCH  15  19
ATOM     19  O   UNL     1       2.520  17.630  18.783  0.00  0.00    +0.000 OA
ATOM     20  H   UNL     1       3.233  18.032  18.256  0.00  0.00    +0.000 HD
ENDBRANCH  15  19
ENDBRANCH   6  11
BRANCH   1  25
ATOM     21  C   UNL     1       2.831   3.809  18.872  0.00  0.00    +0.000 A 
ATOM     22  C   UNL     1       2.780   3.121  20.081  0.00  0.00    +0.000 A 
ATOM     23  C   UNL     1       2.387   3.788  21.254  0.00  0.00    +0.000 A 
ATOM     24  C   UNL     1       2.034   5.150  21.242  0.00  0.00    +0.000 A 
ATOM     25  C   UNL     1       2.067   5.861  20.046  0.00  0.00    +0.000 A 
ATOM     26  C   UNL     1       2.453   5.158  18.884  0.00  0.00    +0.000 A 
BRANCH  21  28
ATOM     27  C   UNL     1       3.806   1.715  17.747  0.00  0.00    +0.000 C 
ATOM     28  C   UNL     1       3.254   3.144  17.567  0.00  0.00    +0.000 C 
BRANCH  28  29
ATOM     29  C   UNL     1       4.192   4.024  16.712  0.00  0.00    +0.000 C 
BRANCH  29  30
ATOM     30  C   UNL     1       5.553   4.259  17.279  0.00  0.00    +0.000 A 
ATOM     31  N   UNL     1       5.883   4.301  18.556  0.00  0.00    +0.000 NA
ATOM     32  N   UNL     1       7.240   4.513  18.646  0.00  0.00    +0.000 NA
ATOM     33  C   UNL     1       7.713   4.577  17.424  0.00  0.00    +0.000 A 
ATOM     34  N   UNL     1       6.693   4.435  16.536  0.00  0.00    +0.000 N 
ATOM     35  C   UNL     1       6.811   4.453  15.103  0.00  0.00    +0.000 C 
ENDBRANCH  29  30
ENDBRANCH  28  29
ENDBRANCH  21  28
ENDBRANCH   1  25
BRANCH   8  36
ATOM     36  C   UNL     1      -0.226  10.159  22.676  0.00  0.00    +0.000 C 
ATOM     37  F   UNL     1       0.706   9.744  23.577  0.00  0.00    +0.000 F 
ATOM     38  F   UNL     1      -0.735  11.316  23.175  0.00  0.00    +0.000 F 
ATOM     39  F   UNL     1      -1.227   9.241  22.736  0.00  0.00    +0.000 F 
ENDBRANCH   8  36
TORSDOF 7
ENDMDL
MODEL 4
REMARK VINA RESULT:      -9.4      1.537      2.368
REMARK  Name = 
REMARK  10 active torsions:
REMARK  status: ('A' for Active; 'I' for Inactive)
REMARK    1  A    between atoms: C_1  and  C_2
REMARK    2  A    between atoms: C_2  and  C_3
REMARK    3  A    between atoms: C_2  and  C_10
REMARK    4  A    between atoms: C_3  and  C_4
REMARK    5  A    between atoms: N_8  and  C_9
REMARK    6  A    between atoms: C_14  and  N_15
REMARK    7  A    between atoms: C_20  and  C_21
REMARK    8  A    between atoms: C_25  and  O_26
REMARK    9  A    between atoms: C_28  and  C_29
REMARK   10  A    between atoms: C_31  and  C_32
REMARK                            x       y       z     vdW  Elec       q    Type
REMARK                         _______ _______ _______ _____ _____    ______ ____
ROOT
ATOM      1  N   UNL     1       2.425   7.188  19.171  0.00  0.00    +0.000 N 
ATOM      2  C   UNL     1       1.714   7.630  20.353  0.00  0.00    +0.000 C 
ATOM      3  C   UNL     1       1.215   8.976  19.999  0.00  0.00    +0.000 A 
ATOM      4  C   UNL     1       1.659   9.339  18.731  0.00  0.00    +0.000 A 
ATOM      5  C   UNL     1       1.362  10.596  18.194  0.00  0.00    +0.000 A 
ATOM      6  C   UNL     1       0.627  11.498  18.983  0.00  0.00    +0.000 A 
ATOM      7  C   UNL     1       0.140  11.064  20.248  0.00  0.00    +0.000 A 
ATOM      8  C   UNL     1       0.430   9.805  20.781  0.00  0.00    +0.000 A 
ATOM      9  C   UNL     1       2.426   8.179  18.181  0.00  0.00    +0.000 C 
ATOM     10  O   UNL     1       2.931   8.185  17.070  0.00  0.00    +0.000 OA
ENDROOT
BRANCH   6  11
ATOM     11  C   UNL     1       0.273  12.923  18.676  0.00  0.00    +0.000 C 
ATOM     12  O   UNL     1      -0.822  13.103  18.126  0.00  0.00    +0.000 OA
ATOM     13  N   UNL     1       1.027  14.018  19.074  0.00  0.00    +0.000 N 
ATOM     14  C   UNL     1       0.431  15.347  18.982  0.00  0.00    +0.000 C 
ATOM     15  C   UNL     1       1.560  16.247  18.510  0.00  0.00    +0.000 C 
ATOM     16  C   UNL     1       2.805  15.611  19.115  0.00  0.00    +0.000 C 
ATOM     17  C   UNL     1       2.457  14.127  19.343  0.00  0.00    +0.000 C 
ATOM     18  C   UNL     1       2.839  13.730  20.767  0.00  0.00    +0.000 C 
BRANCH  15  19
ATOM     19  O   UNL     1       1.418  17.592  18.943  0.00  0.00    +0.000 OA
ATOM     20  H   UNL     1       2.247  18.067  18.757  0.00  0.00    +0.000 HD
ENDBRANCH  15  19
ENDBRANCH   6  11
BRANCH   1  25
ATOM     21  C   UNL     1       4.629   4.336  18.136  0.00  0.00    +0.000 A 
ATOM     22  C   UNL     1       4.232   3.342  19.027  0.00  0.00    +0.000 A 
ATOM     23  C   UNL     1       3.228   3.605  19.973  0.00  0.00    +0.000 A 
ATOM     24  C   UNL     1       2.598   4.862  20.047  0.00  0.00    +0.000 A 
ATOM     25  C   UNL     1       2.968   5.872  19.163  0.00  0.00    +0.000 A 
ATOM     26  C   UNL     1       3.971   5.570  18.216  0.00  0.00    +0.000 A 
BRANCH  21  28
ATOM     27  C   UNL     1       7.093   4.680  17.493  0.00  0.00    +0.000 C 
ATOM     28  C   UNL     1       5.717   4.114  17.090  0.00  0.00    +0.000 C 
BRANCH  28  29
ATOM     29  C   UNL     1       5.297   4.561  15.673  0.00  0.00    +0.000 C 
BRANCH  29  30
ATOM     30  C   UNL     1       6.417   4.861  14.731  0.00  0.00    +0.000 A 
ATOM     31  N   UNL     1       7.468   5.622  14.967  0.00  0.00    +0.000 NA
ATOM     32  N   UNL     1       8.270   5.611  13.849  0.00  0.00    +0.000 NA
ATOM     33  C   UNL     1       7.704   4.829  12.962  0.00  0.00    +0.000 A 
ATOM     34  N   UNL     1       6.536   4.346  13.465  0.00  0.00    +0.000 N 
ATOM     35  C   UNL     1       5.628   3.458  12.790  0.00  0.00    +0.000 C 
ENDBRANCH  29  30
ENDBRANCH  28  29
ENDBRANCH  21  28
ENDBRANCH   1  25
BRANCH   8  36
ATOM     36  C   UNL     1      -0.090   9.402  22.137  0.00  0.00    +0.000 C 
ATOM     37  F   UNL     1      -0.853   8.275  22.117  0.00  0.00    +0.000 F 
ATOM     38  F   UNL     1       0.911   9.157  23.022  0.00  0.00    +0.000 F 
ATOM     39  F   UNL     1      -0.873  10.363  22.696  0.00  0.00    +0.000 F 
ENDBRANCH   8  36
TORSDOF 7
ENDMDL
MODEL 5
REMARK VINA RESULT:      -9.2      1.410      2.210
REMARK  Name = 
REMARK  10 active torsions:
REMARK  status: ('A' for Active; 'I' for Inactive)
REMARK    1  A    between atoms: C_1  and  C_2
REMARK    2  A    between atoms: C_2  and  C_3
REMARK    3  A    between atoms: C_2  and  C_10
REMARK    4  A    between atoms: C_3  and  C_4
REMARK    5  A    between atoms: N_8  and  C_9
REMARK    6  A    between atoms: C_14  and  N_15
REMARK    7  A    between atoms: C_20  and  C_21
REMARK    8  A    between atoms: C_25  and  O_26
REMARK    9  A    between atoms: C_28  and  C_29
REMARK   10  A    between atoms: C_31  and  C_32
REMARK                            x       y       z     vdW  Elec       q    Type
REMARK                         _______ _______ _______ _____ _____    ______ ____
ROOT
ATOM      1  N   UNL     1       1.988   7.823  19.240  0.00  0.00    +0.000 N 
ATOM      2  C   UNL     1       1.429   8.103  20.546  0.00  0.00    +0.000 C 
ATOM      3  C   UNL     1       0.856   9.460  20.415  0.00  0.00    +0.000 A 
ATOM      4  C   UNL     1       1.121   9.978  19.152  0.00  0.00    +0.000 A 
ATOM      5  C   UNL     1       0.727  11.275  18.805  0.00  0.00    +0.000 A 
ATOM      6  C   UNL     1       0.082  12.055  19.779  0.00  0.00    +0.000 A 
ATOM      7  C   UNL     1      -0.226  11.465  21.038  0.00  0.00    +0.000 A 
ATOM      8  C   UNL     1       0.161  10.166  21.381  0.00  0.00    +0.000 A 
ATOM      9  C   UNL     1       1.837   8.916  18.378  0.00  0.00    +0.000 C 
ATOM     10  O   UNL     1       2.192   9.065  17.220  0.00  0.00    +0.000 OA
ENDROOT
BRANCH   6  11
ATOM     11  C   UNL     1      -0.343  13.491  19.687  0.00  0.00    +0.000 C 
ATOM     12  O   UNL     1      -1.551  13.710  19.851  0.00  0.00    +0.000 OA
ATOM     13  N   UNL     1       0.535  14.558  19.554  0.00  0.00    +0.000 N 
ATOM     14  C   UNL     1       0.030  15.909  19.777  0.00  0.00    +0.000 C 
ATOM     15  C   UNL     1       0.717  16.759  18.722  0.00  0.00    +0.000 C 
ATOM     16  C   UNL     1       2.066  16.077  18.531  0.00  0.00    +0.000 C 
ATOM     17  C   UNL     1       1.866  14.610  18.960  0.00  0.00    +0.000 C 
ATOM     18  C   UNL     1       2.979  14.210  19.926  0.00  0.00    +0.000 C 
BRANCH  15  19
ATOM     19  O   UNL     1       0.884  18.112  19.119  0.00  0.00    +0.000 OA
ATOM     20  H   UNL     1       1.512  18.141  19.862  0.00  0.00    +0.000 HD
ENDBRANCH  15  19
ENDBRANCH   6  11
BRANCH   1  25
ATOM     21  C   UNL     1       4.449   5.269  18.019  0.00  0.00    +0.000 A 
ATOM     22  C   UNL     1       3.890   4.090  18.507  0.00  0.00    +0.000 A 
ATOM     23  C   UNL     1       2.692   4.130  19.239  0.00  0.00    +0.000 A 
ATOM     24  C   UNL     1       2.027   5.344  19.495  0.00  0.00    +0.000 A 
ATOM     25  C   UNL     1       2.557   6.537  19.012  0.00  0.00    +0.000 A 
ATOM     26  C   UNL     1       3.754   6.459  18.268  0.00  0.00    +0.000 A 
BRANCH  21  28
ATOM     27  C   UNL     1       6.215   6.709  16.832  0.00  0.00    +0.000 C 
ATOM     28  C   UNL     1       5.749   5.292  17.223  0.00  0.00    +0.000 C 
BRANCH  28  29
ATOM     29  C   UNL     1       5.739   4.330  16.015  0.00  0.00    +0.000 C 
BRANCH  29  30
ATOM     30  C   UNL     1       6.607   4.727  14.865  0.00  0.00    +0.000 A 
ATOM     31  N   UNL     1       7.695   5.471  14.915  0.00  0.00    +0.000 NA
ATOM     32  N   UNL     1       8.208   5.573  13.641  0.00  0.00    +0.000 NA
ATOM     33  C   UNL     1       7.435   4.874  12.845  0.00  0.00    +0.000 A 
ATOM     34  N   UNL     1       6.413   4.336  13.565  0.00  0.00    +0.000 N 
ATOM     35  C   UNL     1       5.357   3.509  13.046  0.00  0.00    +0.000 C 
ENDBRANCH  29  30
ENDBRANCH  28  29
ENDBRANCH  21  28
ENDBRANCH   1  25
BRANCH   8  36
ATOM     36  C   UNL     1      -0.167   9.596  22.737  0.00  0.00    +0.000 C 
ATOM     37  F   UNL     1       0.930   9.281  23.478  0.00  0.00    +0.000 F 
ATOM     38  F   UNL     1      -0.895  10.455  23.497  0.00  0.00    +0.000 F 
ATOM     39  F   UNL     1      -0.892   8.448  22.652  0.00  0.00    +0.000 F 
ENDBRANCH   8  36
TORSDOF 7
ENDMDL
MODEL 6
REMARK VINA RESULT:      -9.2      1.240      2.132
REMARK  Name = 
REMARK  10 active torsions:
REMARK  status: ('A' for Active; 'I' for Inactive)
REMARK    1  A    between atoms: C_1  and  C_2
REMARK    2  A    between atoms: C_2  and  C_3
REMARK    3  A    between atoms: C_2  and  C_10
REMARK    4  A    between atoms: C_3  and  C_4
REMARK    5  A    between atoms: N_8  and  C_9
REMARK    6  A    between atoms: C_14  and  N_15
REMARK    7  A    between atoms: C_20  and  C_21
REMARK    8  A    between atoms: C_25  and  O_26
REMARK    9  A    between atoms: C_28  and  C_29
REMARK   10  A    between atoms: C_31  and  C_32
REMARK                            x       y       z     vdW  Elec       q    Type
REMARK                         _______ _______ _______ _____ _____    ______ ____
ROOT
ATOM      1  N   UNL     1       2.203   7.709  19.438  0.00  0.00    +0.000 N 
ATOM      2  C   UNL     1       1.564   8.015  20.701  0.00  0.00    +0.000 C 
ATOM      3  C   UNL     1       0.834   9.276  20.446  0.00  0.00    +0.000 A 
ATOM      4  C   UNL     1       1.082   9.725  19.153  0.00  0.00    +0.000 A 
ATOM      5  C   UNL     1       0.545  10.932  18.692  0.00  0.00    +0.000 A 
ATOM      6  C   UNL     1      -0.229  11.697  19.582  0.00  0.00    +0.000 A 
ATOM      7  C   UNL     1      -0.509  11.170  20.874  0.00  0.00    +0.000 A 
ATOM      8  C   UNL     1       0.020   9.960  21.331  0.00  0.00    +0.000 A 
ATOM      9  C   UNL     1       1.952   8.707  18.488  0.00  0.00    +0.000 C 
ATOM     10  O   UNL     1       2.330   8.810  17.333  0.00  0.00    +0.000 OA
ENDROOT
BRANCH   6  11
ATOM     11  C   UNL     1      -0.823  13.057  19.362  0.00  0.00    +0.000 C 
ATOM     12  O   UNL     1      -2.056  13.097  19.250  0.00  0.00    +0.000 OA
ATOM     13  N   UNL     1      -0.099  14.241  19.400  0.00  0.00    +0.000 N 
ATOM     14  C   UNL     1      -0.829  15.503  19.472  0.00  0.00    +0.000 C 
ATOM     15  C   UNL     1      -0.054  16.451  18.574  0.00  0.00    +0.000 C 
ATOM     16  C   UNL     1       1.387  15.974  18.703  0.00  0.00    +0.000 C 
ATOM     17  C   UNL     1       1.309  14.490  19.114  0.00  0.00    +0.000 C 
ATOM     18  C   UNL     1       2.225  14.247  20.311  0.00  0.00    +0.000 C 
BRANCH  15  19
ATOM     19  O   UNL     1      -0.174  17.811  18.965  0.00  0.00    +0.000 OA
ATOM     20  H   UNL     1       0.246  18.367  18.285  0.00  0.00    +0.000 HD
ENDBRANCH  15  19
ENDBRANCH   6  11
BRANCH   1  25
ATOM     21  C   UNL     1       5.136   5.448  18.843  0.00  0.00    +0.000 A 
ATOM     22  C   UNL     1       4.585   4.200  19.125  0.00  0.00    +0.000 A 
ATOM     23  C   UNL     1       3.238   4.096  19.509  0.00  0.00    +0.000 A 
ATOM     24  C   UNL     1       2.414   5.232  19.615  0.00  0.00    +0.000 A 
ATOM     25  C   UNL     1       2.934   6.491  19.331  0.00  0.00    +0.000 A 
ATOM     26  C   UNL     1       4.288   6.559  18.934  0.00  0.00    +0.000 A 
BRANCH  21  28
ATOM     27  C   UNL     1       6.898   7.005  17.807  0.00  0.00    +0.000 C 
ATOM     28  C   UNL     1       6.592   5.627  18.426  0.00  0.00    +0.000 C 
BRANCH  28  29
ATOM     29  C   UNL     1       7.120   4.468  17.553  0.00  0.00    +0.000 C 
BRANCH  29  30
ATOM     30  C   UNL     1       6.869   4.597  16.086  0.00  0.00    +0.000 A 
ATOM     31  N   UNL     1       7.641   5.196  15.201  0.00  0.00    +0.000 NA
ATOM     32  N   UNL     1       7.059   5.065  13.960  0.00  0.00    +0.000 NA
ATOM     33  C   UNL     1       5.956   4.372  14.111  0.00  0.00    +0.000 A 
ATOM     34  N   UNL     1       5.789   4.067  15.426  0.00  0.00    +0.000 N 
ATOM     35  C   UNL     1       4.697   3.320  15.989  0.00  0.00    +0.000 C 
ENDBRANCH  29  30
ENDBRANCH  28  29
ENDBRANCH  21  28
ENDBRANCH   1  25
BRANCH   8  36
ATOM     36  C   UNL     1      -0.287   9.457  22.718  0.00  0.00    +0.000 C 
ATOM     37  F   UNL     1      -0.890   8.237  22.737  0.00  0.00    +0.000 F 
ATOM     38  F   UNL     1       0.829   9.332  23.482  0.00  0.00    +0.000 F 
ATOM     39  F   UNL     1      -1.125  10.288  23.394  0.00  0.00    +0.000 F 
ENDBRANCH   8  36
TORSDOF 7
ENDMDL
MODEL 7
REMARK VINA RESULT:      -9.2      1.190      1.618
REMARK  Name = 
REMARK  10 active torsions:
REMARK  status: ('A' for Active; 'I' for Inactive)
REMARK    1  A    between atoms: C_1  and  C_2
REMARK    2  A    between atoms: C_2  and  C_3
REMARK    3  A    between atoms: C_2  and  C_10
REMARK    4  A    between atoms: C_3  and  C_4
REMARK    5  A    between atoms: N_8  and  C_9
REMARK    6  A    between atoms: C_14  and  N_15
REMARK    7  A    between atoms: C_20  and  C_21
REMARK    8  A    between atoms: C_25  and  O_26
REMARK    9  A    between atoms: C_28  and  C_29
REMARK   10  A    between atoms: C_31  and  C_32
REMARK                            x       y       z     vdW  Elec       q    Type
REMARK                         _______ _______ _______ _____ _____    ______ ____
ROOT
ATOM      1  N   UNL     1       1.767   7.364  19.871  0.00  0.00    +0.000 N 
ATOM      2  C   UNL     1       1.184   8.002  21.033  0.00  0.00    +0.000 C 
ATOM      3  C   UNL     1       0.901   9.384  20.589  0.00  0.00    +0.000 A 
ATOM      4  C   UNL     1       1.351   9.576  19.287  0.00  0.00    +0.000 A 
ATOM      5  C   UNL     1       1.246  10.823  18.663  0.00  0.00    +0.000 A 
ATOM      6  C   UNL     1       0.700  11.889  19.397  0.00  0.00    +0.000 A 
ATOM      7  C   UNL     1       0.195  11.635  20.704  0.00  0.00    +0.000 A 
ATOM      8  C   UNL     1       0.292  10.386  21.324  0.00  0.00    +0.000 A 
ATOM      9  C   UNL     1       1.895   8.267  18.808  0.00  0.00    +0.000 C 
ATOM     10  O   UNL     1       2.352   8.109  17.688  0.00  0.00    +0.000 OA
ENDROOT
BRANCH   6  11
ATOM     11  C   UNL     1       0.575  13.328  18.992  0.00  0.00    +0.000 C 
ATOM     12  O   UNL     1      -0.473  13.637  18.408  0.00  0.00    +0.000 OA
ATOM     13  N   UNL     1       1.486  14.318  19.333  0.00  0.00    +0.000 N 
ATOM     14  C   UNL     1       1.105  15.714  19.141  0.00  0.00    +0.000 C 
ATOM     15  C   UNL     1       2.365  16.394  18.636  0.00  0.00    +0.000 C 
ATOM     16  C   UNL     1       3.490  15.616  19.307  0.00  0.00    +0.000 C 
ATOM     17  C   UNL     1       2.912  14.222  19.624  0.00  0.00    +0.000 C 
ATOM     18  C   UNL     1       3.214  13.868  21.078  0.00  0.00    +0.000 C 
BRANCH  15  19
ATOM     19  O   UNL     1       2.429  17.772  18.977  0.00  0.00    +0.000 OA
ATOM     20  H   UNL     1       1.527  18.088  19.156  0.00  0.00    +0.000 HD
ENDBRANCH  15  19
ENDBRANCH   6  11
BRANCH   1  25
ATOM     21  C   UNL     1       2.885   3.975  18.719  0.00  0.00    +0.000 A 
ATOM     22  C   UNL     1       2.831   3.247  19.905  0.00  0.00    +0.000 A 
ATOM     23  C   UNL     1       2.419   3.871  21.095  0.00  0.00    +0.000 A 
ATOM     24  C   UNL     1       2.050   5.229  21.123  0.00  0.00    +0.000 A 
ATOM     25  C   UNL     1       2.085   5.978  19.951  0.00  0.00    +0.000 A 
ATOM     26  C   UNL     1       2.490   5.317  18.771  0.00  0.00    +0.000 A 
BRANCH  21  28
ATOM     27  C   UNL     1       2.863   1.900  17.204  0.00  0.00    +0.000 C 
ATOM     28  C   UNL     1       3.329   3.357  17.397  0.00  0.00    +0.000 C 
BRANCH  28  29
ATOM     29  C   UNL     1       4.839   3.525  17.125  0.00  0.00    +0.000 C 
BRANCH  29  30
ATOM     30  C   UNL     1       5.296   4.921  16.854  0.00  0.00    +0.000 A 
ATOM     31  N   UNL     1       5.125   5.608  15.741  0.00  0.00    +0.000 NA
ATOM     32  N   UNL     1       5.671   6.859  15.916  0.00  0.00    +0.000 NA
ATOM     33  C   UNL     1       6.146   6.917  17.138  0.00  0.00    +0.000 A 
ATOM     34  N   UNL     1       5.944   5.724  17.759  0.00  0.00    +0.000 N 
ATOM     35  C   UNL     1       6.329   5.395  19.105  0.00  0.00    +0.000 C 
ENDBRANCH  29  30
ENDBRANCH  28  29
ENDBRANCH  21  28
ENDBRANCH   1  25
BRANCH   8  36
ATOM     36  C   UNL     1      -0.236  10.174  22.720  0.00  0.00    +0.000 C 
ATOM     37  F   UNL     1      -1.254   9.274  22.788  0.00  0.00    +0.000 F 
ATOM     38  F   UNL     1       0.720   9.719  23.571  0.00  0.00    +0.000 F 
ATOM     39  F   UNL     1      -0.724  11.319  23.266  0.00  0.00    +0.000 F 
ENDBRANCH   8  36
TORSDOF 7
ENDMDL
MODEL 8
REMARK VINA RESULT:      -9.1      1.506      2.056
REMARK  Name = 
REMARK  10 active torsions:
REMARK  status: ('A' for Active; 'I' for Inactive)
REMARK    1  A    between atoms: C_1  and  C_2
REMARK    2  A    between atoms: C_2  and  C_3
REMARK    3  A    between atoms: C_2  and  C_10
REMARK    4  A    between atoms: C_3  and  C_4
REMARK    5  A    between atoms: N_8  and  C_9
REMARK    6  A    between atoms: C_14  and  N_15
REMARK    7  A    between atoms: C_20  and  C_21
REMARK    8  A    between atoms: C_25  and  O_26
REMARK    9  A    between atoms: C_28  and  C_29
REMARK   10  A    between atoms: C_31  and  C_32
REMARK                            x       y       z     vdW  Elec       q    Type
REMARK                         _______ _______ _______ _____ _____    ______ ____
ROOT
ATOM      1  N   UNL     1       1.853   7.318  19.931  0.00  0.00    +0.000 N 
ATOM      2  C   UNL     1       1.249   7.952  21.085  0.00  0.00    +0.000 C 
ATOM      3  C   UNL     1       0.915   9.315  20.621  0.00  0.00    +0.000 A 
ATOM      4  C   UNL     1       1.354   9.504  19.315  0.00  0.00    +0.000 A 
ATOM      5  C   UNL     1       1.201  10.737  18.672  0.00  0.00    +0.000 A 
ATOM      6  C   UNL     1       0.618  11.793  19.392  0.00  0.00    +0.000 A 
ATOM      7  C   UNL     1       0.126  11.539  20.704  0.00  0.00    +0.000 A 
ATOM      8  C   UNL     1       0.271  10.305  21.343  0.00  0.00    +0.000 A 
ATOM      9  C   UNL     1       1.945   8.209  18.854  0.00  0.00    +0.000 C 
ATOM     10  O   UNL     1       2.405   8.051  17.735  0.00  0.00    +0.000 OA
ENDROOT
BRANCH   6  11
ATOM     11  C   UNL     1       0.438  13.220  18.965  0.00  0.00    +0.000 C 
ATOM     12  O   UNL     1      -0.634  13.487  18.405  0.00  0.00    +0.000 OA
ATOM     13  N   UNL     1       1.328  14.242  19.265  0.00  0.00    +0.000 N 
ATOM     14  C   UNL     1       0.900  15.622  19.059  0.00  0.00    +0.000 C 
ATOM     15  C   UNL     1       2.125  16.331  18.508  0.00  0.00    +0.000 C 
ATOM     16  C   UNL     1       3.290  15.598  19.162  0.00  0.00    +0.000 C 
ATOM     17  C   UNL     1       2.764  14.194  19.519  0.00  0.00    +0.000 C 
ATOM     18  C   UNL     1       3.114  13.876  20.970  0.00  0.00    +0.000 C 
BRANCH  15  19
ATOM     19  O   UNL     1       2.156  17.715  18.823  0.00  0.00    +0.000 OA
ATOM     20  H   UNL     1       2.534  17.822  19.713  0.00  0.00    +0.000 HD
ENDBRANCH  15  19
ENDBRANCH   6  11
BRANCH   1  25
ATOM     21  C   UNL     1       3.727   4.154  19.199  0.00  0.00    +0.000 A 
ATOM     22  C   UNL     1       3.156   3.274  20.116  0.00  0.00    +0.000 A 
ATOM     23  C   UNL     1       2.142   3.720  20.979  0.00  0.00    +0.000 A 
ATOM     24  C   UNL     1       1.676   5.048  20.943  0.00  0.00    +0.000 A 
ATOM     25  C   UNL     1       2.222   5.946  20.031  0.00  0.00    +0.000 A 
ATOM     26  C   UNL     1       3.229   5.462  19.169  0.00  0.00    +0.000 A 
BRANCH  21  28
ATOM     27  C   UNL     1       6.164   4.484  18.452  0.00  0.00    +0.000 C 
ATOM     28  C   UNL     1       4.835   3.732  18.239  0.00  0.00    +0.000 C 
BRANCH  28  29
ATOM     29  C   UNL     1       4.392   3.742  16.759  0.00  0.00    +0.000 C 
BRANCH  29  30
ATOM     30  C   UNL     1       5.425   4.196  15.779  0.00  0.00    +0.000 A 
ATOM     31  N   UNL     1       6.230   3.433  15.067  0.00  0.00    +0.000 NA
ATOM     32  N   UNL     1       7.005   4.245  14.271  0.00  0.00    +0.000 NA
ATOM     33  C   UNL     1       6.643   5.485  14.499  0.00  0.00    +0.000 A 
ATOM     34  N   UNL     1       5.666   5.505  15.444  0.00  0.00    +0.000 N 
ATOM     35  C   UNL     1       5.015   6.677  15.963  0.00  0.00    +0.000 C 
ENDBRANCH  29  30
ENDBRANCH  28  29
ENDBRANCH  21  28
ENDBRANCH   1  25
BRANCH   8  36
ATOM     36  C   UNL     1      -0.246  10.095  22.743  0.00  0.00    +0.000 C 
ATOM     37  F   UNL     1       0.718   9.730  23.632  0.00  0.00    +0.000 F 
ATOM     38  F   UNL     1      -0.821  11.214  23.255  0.00  0.00    +0.000 F 
ATOM     39  F   UNL     1      -1.187   9.116  22.803  0.00  0.00    +0.000 F 
ENDBRANCH   8  36
TORSDOF 7
ENDMDL
MODEL 9
REMARK VINA RESULT:      -8.9      1.386      2.147
REMARK  Name = 
REMARK  10 active torsions:
REMARK  status: ('A' for Active; 'I' for Inactive)
REMARK    1  A    between atoms: C_1  and  C_2
REMARK    2  A    between atoms: C_2  and  C_3
REMARK    3  A    between atoms: C_2  and  C_10
REMARK    4  A    between atoms: C_3  and  C_4
REMARK    5  A    between atoms: N_8  and  C_9
REMARK    6  A    between atoms: C_14  and  N_15
REMARK    7  A    between atoms: C_20  and  C_21
REMARK    8  A    between atoms: C_25  and  O_26
REMARK    9  A    between atoms: C_28  and  C_29
REMARK   10  A    between atoms: C_31  and  C_32
REMARK                            x       y       z     vdW  Elec       q    Type
REMARK                         _______ _______ _______ _____ _____    ______ ____
ROOT
ATOM      1  N   UNL     1       1.999   7.834  19.141  0.00  0.00    +0.000 N 
ATOM      2  C   UNL     1       1.463   8.062  20.467  0.00  0.00    +0.000 C 
ATOM      3  C   UNL     1       1.000   9.466  20.437  0.00  0.00    +0.000 A 
ATOM      4  C   UNL     1       1.306  10.052  19.213  0.00  0.00    +0.000 A 
ATOM      5  C   UNL     1       1.016  11.397  18.963  0.00  0.00    +0.000 A 
ATOM      6  C   UNL     1       0.434  12.153  19.994  0.00  0.00    +0.000 A 
ATOM      7  C   UNL     1       0.080  11.500  21.208  0.00  0.00    +0.000 A 
ATOM      8  C   UNL     1       0.362  10.153  21.455  0.00  0.00    +0.000 A 
ATOM      9  C   UNL     1       1.936   8.995  18.361  0.00  0.00    +0.000 C 
ATOM     10  O   UNL     1       2.302   9.199  17.215  0.00  0.00    +0.000 OA
ENDROOT
BRANCH   6  11
ATOM     11  C   UNL     1       0.125  13.621  20.008  0.00  0.00    +0.000 C 
ATOM     12  O   UNL     1       1.077  14.377  19.771  0.00  0.00    +0.000 OA
ATOM     13  N   UNL     1      -1.152  14.149  20.145  0.00  0.00    +0.000 N 
ATOM     14  C   UNL     1      -1.359  15.562  19.843  0.00  0.00    +0.000 C 
ATOM     15  C   UNL     1      -2.337  16.045  20.899  0.00  0.00    +0.000 C 
ATOM     16  C   UNL     1      -3.193  14.818  21.188  0.00  0.00    +0.000 C 
ATOM     17  C   UNL     1      -2.330  13.599  20.806  0.00  0.00    +0.000 C 
ATOM     18  C   UNL     1      -3.143  12.661  19.918  0.00  0.00    +0.000 C 
BRANCH  15  19
ATOM     19  O   UNL     1      -3.141  17.130  20.458  0.00  0.00    +0.000 OA
ATOM     20  H   UNL     1      -2.708  17.962  20.718  0.00  0.00    +0.000 HD
ENDBRANCH  15  19
ENDBRANCH   6  11
BRANCH   1  25
ATOM     21  C   UNL     1       4.082   5.187  17.491  0.00  0.00    +0.000 A 
ATOM     22  C   UNL     1       3.583   4.030  18.085  0.00  0.00    +0.000 A 
ATOM     23  C   UNL     1       2.549   4.117  19.033  0.00  0.00    +0.000 A 
ATOM     24  C   UNL     1       1.992   5.356  19.402  0.00  0.00    +0.000 A 
ATOM     25  C   UNL     1       2.465   6.527  18.818  0.00  0.00    +0.000 A 
ATOM     26  C   UNL     1       3.494   6.403  17.859  0.00  0.00    +0.000 A 
BRANCH  21  28
ATOM     27  C   UNL     1       4.997   4.122  15.339  0.00  0.00    +0.000 C 
ATOM     28  C   UNL     1       5.205   5.159  16.460  0.00  0.00    +0.000 C 
BRANCH  28  29
ATOM     29  C   UNL     1       6.609   5.054  17.094  0.00  0.00    +0.000 C 
BRANCH  29  30
ATOM     30  C   UNL     1       7.248   6.351  17.470  0.00  0.00    +0.000 A 
ATOM     31  N   UNL     1       7.245   7.468  16.768  0.00  0.00    +0.000 NA
ATOM     32  N   UNL     1       7.921   8.430  17.483  0.00  0.00    +0.000 NA
ATOM     33  C   UNL     1       8.305   7.888  18.614  0.00  0.00    +0.000 A 
ATOM     34  N   UNL     1       7.917   6.584  18.645  0.00  0.00    +0.000 N 
ATOM     35  C   UNL     1       8.156   5.656  19.717  0.00  0.00    +0.000 C 
ENDBRANCH  29  30
ENDBRANCH  28  29
ENDBRANCH  21  28
ENDBRANCH   1  25
BRANCH   8  36
ATOM     36  C   UNL     1      -0.011   9.514  22.768  0.00  0.00    +0.000 C 
ATOM     37  F   UNL     1      -0.760   8.386  22.633  0.00  0.00    +0.000 F 
ATOM     38  F   UNL     1       1.078   9.152  23.494  0.00  0.00    +0.000 F 
ATOM     39  F   UNL     1      -0.741  10.346  23.557  0.00  0.00    +0.000 F 
ENDBRANCH   8  36
TORSDOF 7
ENDMDL
