MODEL 1
REMARK VINA RESULT:      -9.3      0.000      0.000
REMARK  Name = 
REMARK  6 active torsions:
REMARK  status: ('A' for Active; 'I' for Inactive)
REMARK    1  A    between atoms: C_1  and  N_2
REMARK    2  A    between atoms: C_6  and  C_7
REMARK    3  A    between atoms: C_7  and  C_8
REMARK    4  A    between atoms: C_8  and  C_9
REMARK    5  A    between atoms: C_13  and  N_14
REMARK    6  A    between atoms: C_21  and  C_22
REMARK                            x       y       z     vdW  Elec       q    Type
REMARK                         _______ _______ _______ _____ _____    ______ ____
ROOT
ATOM      1  C   UNL     1       5.417   5.280  18.862  0.00  0.00    +0.000 A 
ATOM      2  C   UNL     1       4.933   4.028  19.265  0.00  0.00    +0.000 A 
ATOM      3  C   UNL     1       3.622   3.865  19.738  0.00  0.00    +0.000 A 
ATOM      4  C   UNL     1       2.741   4.953  19.805  0.00  0.00    +0.000 A 
ATOM      5  C   UNL     1       3.174   6.212  19.407  0.00  0.00    +0.000 A 
ATOM      6  C   UNL     1       4.502   6.341  18.977  0.00  0.00    +0.000 A 
ENDROOT
BRANCH   5   7
ATOM      7  N   UNL     1       2.336   7.358  19.375  0.00  0.00    +0.000 N 
ATOM      8  C   UNL     1       1.569   7.713  20.558  0.00  0.00    +0.000 C 
ATOM      9  C   UNL     1       0.983   9.033  20.223  0.00  0.00    +0.000 A 
ATOM     10  C   UNL     1       1.302   9.363  18.909  0.00  0.00    +0.000 A 
ATOM     11  C   UNL     1       0.850  10.533  18.333  0.00  0.00    +0.000 A 
ATOM     12  C   UNL     1       0.064  11.380  19.120  0.00  0.00    +0.000 A 
ATOM     13  C   UNL     1      -0.233  11.061  20.462  0.00  0.00    +0.000 A 
ATOM     14  C   UNL     1       0.233   9.873  21.041  0.00  0.00    +0.000 A 
ATOM     15  C   UNL     1       2.186   8.305  18.363  0.00  0.00    +0.000 C 
ATOM     16  O   UNL     1       2.662   8.353  17.244  0.00  0.00    +0.000 OA
BRANCH  14  17
ATOM     17  C   UNL     1      -0.042   9.553  22.493  0.00  0.00    +0.000 C 
ATOM     18  F   UNL     1       1.072   9.246  23.213  0.00  0.00    +0.000 F 
ATOM     19  F   UNL     1      -0.634  10.589  23.147  0.00  0.00    +0.000 F 
ATOM     20  F   UNL     1      -0.875   8.487  22.642  0.00  0.00    +0.000 F 
ENDBRANCH  14  17
ENDBRANCH   5   7
BRANCH   1  21
ATOM     21  C   UNL     1       6.903   5.557  18.293  0.00  0.00    +0.000 C 
ATOM     22  C   UNL     1       7.964   5.942  19.358  0.00  0.00    +0.000 C 
ATOM     23  O   UNL     1       8.210   7.225  18.752  0.00  0.00    +0.000 OA
ATOM     24  C   UNL     1       7.213   6.981  17.738  0.00  0.00    +0.000 C 
BRANCH  21  25
ATOM     25  C   UNL     1       7.366   4.420  17.348  0.00  0.00    +0.000 C 
BRANCH  25  31
ATOM     26  C   UNL     1       4.676   3.495  15.963  0.00  0.00    +0.000 C 
ATOM     27  N   UNL     1       5.779   4.185  15.349  0.00  0.00    +0.000 N 
ATOM     28  C   UNL     1       5.839   4.540  14.034  0.00  0.00    +0.000 A 
ATOM     29  N   UNL     1       6.989   5.118  13.788  0.00  0.00    +0.000 NA
ATOM     30  N   UNL     1       7.704   5.130  14.959  0.00  0.00    +0.000 NA
ATOM     31  C   UNL     1       6.964   4.596  15.913  0.00  0.00    +0.000 A 
ENDBRANCH  25  31
ENDBRANCH  21  25
ENDBRANCH   1  21
TORSDOF 5
ENDMDL
MODEL 2
REMARK VINA RESULT:      -8.6      0.816      1.223
REMARK  Name = 
REMARK  6 active torsions:
REMARK  status: ('A' for Active; 'I' for Inactive)
REMARK    1  A    between atoms: C_1  and  N_2
REMARK    2  A    between atoms: C_6  and  C_7
REMARK    3  A    between atoms: C_7  and  C_8
REMARK    4  A    between atoms: C_8  and  C_9
REMARK    5  A    between atoms: C_13  and  N_14
REMARK    6  A    between atoms: C_21  and  C_22
REMARK                            x       y       z     vdW  Elec       q    Type
REMARK                         _______ _______ _______ _____ _____    ______ ____
ROOT
ATOM      1  C   UNL     1       4.749   5.077  18.259  0.00  0.00    +0.000 A 
ATOM      2  C   UNL     1       4.252   3.900  18.834  0.00  0.00    +0.000 A 
ATOM      3  C   UNL     1       3.075   3.895  19.597  0.00  0.00    +0.000 A 
ATOM      4  C   UNL     1       2.341   5.073  19.794  0.00  0.00    +0.000 A 
ATOM      5  C   UNL     1       2.789   6.263  19.235  0.00  0.00    +0.000 A 
ATOM      6  C   UNL     1       3.991   6.233  18.512  0.00  0.00    +0.000 A 
ENDROOT
BRANCH   5   7
ATOM      7  N   UNL     1       2.081   7.490  19.322  0.00  0.00    +0.000 N 
ATOM      8  C   UNL     1       1.348   7.804  20.538  0.00  0.00    +0.000 C 
ATOM      9  C   UNL     1       0.909   9.206  20.340  0.00  0.00    +0.000 A 
ATOM     10  C   UNL     1       1.272   9.631  19.064  0.00  0.00    +0.000 A 
ATOM     11  C   UNL     1       0.952  10.895  18.612  0.00  0.00    +0.000 A 
ATOM     12  C   UNL     1       0.256  11.738  19.483  0.00  0.00    +0.000 A 
ATOM     13  C   UNL     1      -0.083  11.319  20.787  0.00  0.00    +0.000 A 
ATOM     14  C   UNL     1       0.249  10.036  21.242  0.00  0.00    +0.000 A 
ATOM     15  C   UNL     1       2.040   8.545  18.411  0.00  0.00    +0.000 C 
ATOM     16  O   UNL     1       2.525   8.653  17.300  0.00  0.00    +0.000 OA
BRANCH  14  17
ATOM     17  C   UNL     1      -0.068   9.603  22.655  0.00  0.00    +0.000 C 
ATOM     18  F   UNL     1      -0.865   8.502  22.731  0.00  0.00    +0.000 F 
ATOM     19  F   UNL     1       1.052   9.302  23.367  0.00  0.00    +0.000 F 
ATOM     20  F   UNL     1      -0.716  10.569  23.361  0.00  0.00    +0.000 F 
ENDBRANCH  14  17
ENDBRANCH   5   7
BRANCH   1  21
ATOM     21  C   UNL     1       6.085   5.172  17.357  0.00  0.00    +0.000 C 
ATOM     22  C   UNL     1       7.424   5.131  18.142  0.00  0.00    +0.000 C 
ATOM     23  O   UNL     1       7.816   6.438  17.679  0.00  0.00    +0.000 OA
ATOM     24  C   UNL     1       6.583   6.592  16.946  0.00  0.00    +0.000 C 
BRANCH  21  25
ATOM     25  C   UNL     1       6.038   4.176  16.172  0.00  0.00    +0.000 C 
BRANCH  25  31
ATOM     26  C   UNL     1       5.323   3.484  13.169  0.00  0.00    +0.000 C 
ATOM     27  N   UNL     1       6.388   4.329  13.637  0.00  0.00    +0.000 N 
ATOM     28  C   UNL     1       7.286   4.965  12.833  0.00  0.00    +0.000 A 
ATOM     29  N   UNL     1       8.147   5.623  13.571  0.00  0.00    +0.000 NA
ATOM     30  N   UNL     1       7.817   5.403  14.884  0.00  0.00    +0.000 NA
ATOM     31  C   UNL     1       6.735   4.648  14.929  0.00  0.00    +0.000 A 
ENDBRANCH  25  31
ENDBRANCH  21  25
ENDBRANCH   1  21
TORSDOF 5
ENDMDL
MODEL 3
REMARK VINA RESULT:      -8.6      3.948      8.339
REMARK  Name = 
REMARK  6 active torsions:
REMARK  status: ('A' for Active; 'I' for Inactive)
REMARK    1  A    between atoms: C_1  and  N_2
REMARK    2  A    between atoms: C_6  and  C_7
REMARK    3  A    between atoms: C_7  and  C_8
REMARK    4  A    between atoms: C_8  and  C_9
REMARK    5  A    between atoms: C_13  and  N_14
REMARK    6  A    between atoms: C_21  and  C_22
REMARK                            x       y       z     vdW  Elec       q    Type
REMARK                         _______ _______ _______ _____ _____    ______ ____
ROOT
ATOM      1  C   UNL     1      -0.734  11.088  20.417  0.00  0.00    +0.000 A 
ATOM      2  C   UNL     1      -0.796  11.205  21.812  0.00  0.00    +0.000 A 
ATOM      3  C   UNL     1      -0.146  10.291  22.655  0.00  0.00    +0.000 A 
ATOM      4  C   UNL     1       0.609   9.235  22.126  0.00  0.00    +0.000 A 
ATOM      5  C   UNL     1       0.707   9.085  20.748  0.00  0.00    +0.000 A 
ATOM      6  C   UNL     1       0.011   9.996  19.940  0.00  0.00    +0.000 A 
ENDROOT
BRANCH   5   7
ATOM      7  N   UNL     1       1.502   8.091  20.119  0.00  0.00    +0.000 N 
ATOM      8  C   UNL     1       1.553   6.754  20.690  0.00  0.00    +0.000 C 
ATOM      9  C   UNL     1       2.304   5.964  19.685  0.00  0.00    +0.000 A 
ATOM     10  C   UNL     1       2.742   6.805  18.665  0.00  0.00    +0.000 A 
ATOM     11  C   UNL     1       3.496   6.324  17.614  0.00  0.00    +0.000 A 
ATOM     12  C   UNL     1       3.800   4.959  17.606  0.00  0.00    +0.000 A 
ATOM     13  C   UNL     1       3.329   4.101  18.623  0.00  0.00    +0.000 A 
ATOM     14  C   UNL     1       2.560   4.596  19.685  0.00  0.00    +0.000 A 
ATOM     15  C   UNL     1       2.216   8.166  18.924  0.00  0.00    +0.000 C 
ATOM     16  O   UNL     1       2.403   9.102  18.169  0.00  0.00    +0.000 OA
BRANCH  14  17
ATOM     17  C   UNL     1       2.012   3.670  20.748  0.00  0.00    +0.000 C 
ATOM     18  F   UNL     1       2.388   3.998  22.014  0.00  0.00    +0.000 F 
ATOM     19  F   UNL     1       0.652   3.644  20.758  0.00  0.00    +0.000 F 
ATOM     20  F   UNL     1       2.414   2.382  20.572  0.00  0.00    +0.000 F 
ENDBRANCH  14  17
ENDBRANCH   5   7
BRANCH   1  21
ATOM     21  C   UNL     1      -1.438  12.099  19.373  0.00  0.00    +0.000 C 
ATOM     22  C   UNL     1      -2.990  12.122  19.409  0.00  0.00    +0.000 C 
ATOM     23  O   UNL     1      -3.099  11.686  18.041  0.00  0.00    +0.000 OA
ATOM     24  C   UNL     1      -1.665  11.594  17.915  0.00  0.00    +0.000 C 
BRANCH  21  25
ATOM     25  C   UNL     1      -0.802  13.510  19.437  0.00  0.00    +0.000 C 
BRANCH  25  31
ATOM     26  C   UNL     1       1.238  14.467  21.657  0.00  0.00    +0.000 C 
ATOM     27  N   UNL     1       1.552  13.943  20.355  0.00  0.00    +0.000 N 
ATOM     28  C   UNL     1       2.814  13.791  19.861  0.00  0.00    +0.000 A 
ATOM     29  N   UNL     1       2.752  13.326  18.637  0.00  0.00    +0.000 NA
ATOM     30  N   UNL     1       1.426  13.183  18.316  0.00  0.00    +0.000 NA
ATOM     31  C   UNL     1       0.697  13.525  19.362  0.00  0.00    +0.000 A 
ENDBRANCH  25  31
ENDBRANCH  21  25
ENDBRANCH   1  21
TORSDOF 5
ENDMDL
MODEL 4
REMARK VINA RESULT:      -8.4      2.331      3.003
REMARK  Name = 
REMARK  6 active torsions:
REMARK  status: ('A' for Active; 'I' for Inactive)
REMARK    1  A    between atoms: C_1  and  N_2
REMARK    2  A    between atoms: C_6  and  C_7
REMARK    3  A    between atoms: C_7  and  C_8
REMARK    4  A    between atoms: C_8  and  C_9
REMARK    5  A    between atoms: C_13  and  N_14
REMARK    6  A    between atoms: C_21  and  C_22
REMARK                            x       y       z     vdW  Elec       q    Type
REMARK                         _______ _______ _______ _____ _____    ______ ____
ROOT
ATOM      1  C   UNL     1       4.560   4.546  17.144  0.00  0.00    +0.000 A 
ATOM      2  C   UNL     1       3.714   3.479  16.815  0.00  0.00    +0.000 A 
ATOM      3  C   UNL     1       2.410   3.390  17.326  0.00  0.00    +0.000 A 
ATOM      4  C   UNL     1       1.900   4.384  18.173  0.00  0.00    +0.000 A 
ATOM      5  C   UNL     1       2.700   5.466  18.519  0.00  0.00    +0.000 A 
ATOM      6  C   UNL     1       4.009   5.498  18.019  0.00  0.00    +0.000 A 
ENDROOT
BRANCH   5   7
ATOM      7  N   UNL     1       2.251   6.554  19.314  0.00  0.00    +0.000 N 
ATOM      8  C   UNL     1       2.118   7.870  18.710  0.00  0.00    +0.000 C 
ATOM      9  C   UNL     1       1.460   8.682  19.761  0.00  0.00    +0.000 A 
ATOM     10  C   UNL     1       1.322   7.920  20.919  0.00  0.00    +0.000 A 
ATOM     11  C   UNL     1       0.766   8.452  22.065  0.00  0.00    +0.000 A 
ATOM     12  C   UNL     1       0.340   9.783  22.021  0.00  0.00    +0.000 A 
ATOM     13  C   UNL     1       0.451  10.545  20.839  0.00  0.00    +0.000 A 
ATOM     14  C   UNL     1       1.012   9.997  19.677  0.00  0.00    +0.000 A 
ATOM     15  C   UNL     1       1.807   6.548  20.636  0.00  0.00    +0.000 C 
ATOM     16  O   UNL     1       1.765   5.650  21.455  0.00  0.00    +0.000 OA
BRANCH  14  17
ATOM     17  C   UNL     1       1.086  10.796  18.395  0.00  0.00    +0.000 C 
ATOM     18  F   UNL     1       0.655  12.081  18.518  0.00  0.00    +0.000 F 
ATOM     19  F   UNL     1       2.354  10.873  17.907  0.00  0.00    +0.000 F 
ATOM     20  F   UNL     1       0.331  10.253  17.401  0.00  0.00    +0.000 F 
ENDBRANCH  14  17
ENDBRANCH   5   7
BRANCH   1  21
ATOM     21  C   UNL     1       6.066   4.735  16.593  0.00  0.00    +0.000 C 
ATOM     22  C   UNL     1       7.184   4.666  17.668  0.00  0.00    +0.000 C 
ATOM     23  O   UNL     1       7.623   6.011  17.399  0.00  0.00    +0.000 OA
ATOM     24  C   UNL     1       6.592   6.191  16.406  0.00  0.00    +0.000 C 
BRANCH  21  25
ATOM     25  C   UNL     1       6.336   3.827  15.367  0.00  0.00    +0.000 C 
BRANCH  25  31
ATOM     26  C   UNL     1       5.892   3.311  12.278  0.00  0.00    +0.000 C 
ATOM     27  N   UNL     1       6.783   4.266  12.882  0.00  0.00    +0.000 N 
ATOM     28  C   UNL     1       7.605   5.106  12.192  0.00  0.00    +0.000 A 
ATOM     29  N   UNL     1       8.311   5.818  13.036  0.00  0.00    +0.000 NA
ATOM     30  N   UNL     1       7.956   5.430  14.302  0.00  0.00    +0.000 NA
ATOM     31  C   UNL     1       7.009   4.514  14.215  0.00  0.00    +0.000 A 
ENDBRANCH  25  31
ENDBRANCH  21  25
ENDBRANCH   1  21
TORSDOF 5
ENDMDL
MODEL 5
REMARK VINA RESULT:      -8.4      3.841      8.581
REMARK  Name = 
REMARK  6 active torsions:
REMARK  status: ('A' for Active; 'I' for Inactive)
REMARK    1  A    between atoms: C_1  and  N_2
REMARK    2  A    between atoms: C_6  and  C_7
REMARK    3  A    between atoms: C_7  and  C_8
REMARK    4  A    between atoms: C_8  and  C_9
REMARK    5  A    between atoms: C_13  and  N_14
REMARK    6  A    between atoms: C_21  and  C_22
REMARK                            x       y       z     vdW  Elec       q    Type
REMARK                         _______ _______ _______ _____ _____    ______ ____
ROOT
ATOM      1  C   UNL     1       0.243  10.564  20.418  0.00  0.00    +0.000 A 
ATOM      2  C   UNL     1       0.068  10.515  21.807  0.00  0.00    +0.000 A 
ATOM      3  C   UNL     1       0.475   9.403  22.559  0.00  0.00    +0.000 A 
ATOM      4  C   UNL     1       1.095   8.306  21.945  0.00  0.00    +0.000 A 
ATOM      5  C   UNL     1       1.299   8.315  20.570  0.00  0.00    +0.000 A 
ATOM      6  C   UNL     1       0.842   9.427  19.849  0.00  0.00    +0.000 A 
ENDROOT
BRANCH   5   7
ATOM      7  N   UNL     1       1.977   7.283  19.869  0.00  0.00    +0.000 N 
ATOM      8  C   UNL     1       1.829   5.906  20.310  0.00  0.00    +0.000 C 
ATOM      9  C   UNL     1       2.503   5.116  19.253  0.00  0.00    +0.000 A 
ATOM     10  C   UNL     1       3.087   5.979  18.329  0.00  0.00    +0.000 A 
ATOM     11  C   UNL     1       3.808   5.499  17.255  0.00  0.00    +0.000 A 
ATOM     12  C   UNL     1       3.928   4.111  17.124  0.00  0.00    +0.000 A 
ATOM     13  C   UNL     1       3.310   3.236  18.042  0.00  0.00    +0.000 A 
ATOM     14  C   UNL     1       2.575   3.732  19.128  0.00  0.00    +0.000 A 
ATOM     15  C   UNL     1       2.738   7.370  18.704  0.00  0.00    +0.000 C 
ATOM     16  O   UNL     1       3.075   8.337  18.046  0.00  0.00    +0.000 OA
BRANCH  14  17
ATOM     17  C   UNL     1       1.870   2.796  20.084  0.00  0.00    +0.000 C 
ATOM     18  F   UNL     1       1.801   1.508  19.649  0.00  0.00    +0.000 F 
ATOM     19  F   UNL     1       2.479   2.746  21.300  0.00  0.00    +0.000 F 
ATOM     20  F   UNL     1       0.583   3.169  20.321  0.00  0.00    +0.000 F 
ENDBRANCH  14  17
ENDBRANCH   5   7
BRANCH   1  21
ATOM     21  C   UNL     1      -0.182  11.806  19.476  0.00  0.00    +0.000 C 
ATOM     22  C   UNL     1      -1.416  12.616  19.957  0.00  0.00    +0.000 C 
ATOM     23  O   UNL     1      -2.167  12.313  18.766  0.00  0.00    +0.000 OA
ATOM     24  C   UNL     1      -1.092  11.505  18.246  0.00  0.00    +0.000 C 
BRANCH  21  25
ATOM     25  C   UNL     1       1.039  12.695  19.129  0.00  0.00    +0.000 C 
BRANCH  25  31
ATOM     26  C   UNL     1       0.422  15.795  19.241  0.00  0.00    +0.000 C 
ATOM     27  N   UNL     1       1.134  15.014  20.216  0.00  0.00    +0.000 N 
ATOM     28  C   UNL     1       1.680  15.510  21.362  0.00  0.00    +0.000 A 
ATOM     29  N   UNL     1       2.288  14.548  22.011  0.00  0.00    +0.000 NA
ATOM     30  N   UNL     1       2.153  13.401  21.271  0.00  0.00    +0.000 NA
ATOM     31  C   UNL     1       1.428  13.670  20.200  0.00  0.00    +0.000 A 
ENDBRANCH  25  31
ENDBRANCH  21  25
ENDBRANCH   1  21
TORSDOF 5
ENDMDL
MODEL 6
REMARK VINA RESULT:      -8.4      4.014      8.683
REMARK  Name = 
REMARK  6 active torsions:
REMARK  status: ('A' for Active; 'I' for Inactive)
REMARK    1  A    between atoms: C_1  and  N_2
REMARK    2  A    between atoms: C_6  and  C_7
REMARK    3  A    between atoms: C_7  and  C_8
REMARK    4  A    between atoms: C_8  and  C_9
REMARK    5  A    between atoms: C_13  and  N_14
REMARK    6  A    between atoms: C_21  and  C_22
REMARK                            x       y       z     vdW  Elec       q    Type
REMARK                         _______ _______ _______ _____ _____    ______ ____
ROOT
ATOM      1  C   UNL     1      -0.673  11.104  20.717  0.00  0.00    +0.000 A 
ATOM      2  C   UNL     1      -0.804  11.099  22.111  0.00  0.00    +0.000 A 
ATOM      3  C   UNL     1      -0.239  10.084  22.898  0.00  0.00    +0.000 A 
ATOM      4  C   UNL     1       0.498   9.046  22.313  0.00  0.00    +0.000 A 
ATOM      5  C   UNL     1       0.663   9.014  20.934  0.00  0.00    +0.000 A 
ATOM      6  C   UNL     1       0.050  10.025  20.179  0.00  0.00    +0.000 A 
ENDROOT
BRANCH   5   7
ATOM      7  N   UNL     1       1.447   8.044  20.256  0.00  0.00    +0.000 N 
ATOM      8  C   UNL     1       1.532   6.695  20.795  0.00  0.00    +0.000 C 
ATOM      9  C   UNL     1       2.257   5.936  19.748  0.00  0.00    +0.000 A 
ATOM     10  C   UNL     1       2.651   6.805  18.733  0.00  0.00    +0.000 A 
ATOM     11  C   UNL     1       3.375   6.357  17.647  0.00  0.00    +0.000 A 
ATOM     12  C   UNL     1       3.694   4.996  17.597  0.00  0.00    +0.000 A 
ATOM     13  C   UNL     1       3.267   4.111  18.609  0.00  0.00    +0.000 A 
ATOM     14  C   UNL     1       2.528   4.572  19.708  0.00  0.00    +0.000 A 
ATOM     15  C   UNL     1       2.120   8.154  19.040  0.00  0.00    +0.000 C 
ATOM     16  O   UNL     1       2.271   9.109  18.301  0.00  0.00    +0.000 OA
BRANCH  14  17
ATOM     17  C   UNL     1       2.027   3.617  20.767  0.00  0.00    +0.000 C 
ATOM     18  F   UNL     1       2.432   3.927  22.029  0.00  0.00    +0.000 F 
ATOM     19  F   UNL     1       0.668   3.565  20.815  0.00  0.00    +0.000 F 
ATOM     20  F   UNL     1       2.446   2.339  20.555  0.00  0.00    +0.000 F 
ENDBRANCH  14  17
ENDBRANCH   5   7
BRANCH   1  21
ATOM     21  C   UNL     1      -1.277  12.236  19.736  0.00  0.00    +0.000 C 
ATOM     22  C   UNL     1      -2.670  11.919  19.129  0.00  0.00    +0.000 C 
ATOM     23  O   UNL     1      -2.169  11.958  17.779  0.00  0.00    +0.000 OA
ATOM     24  C   UNL     1      -0.828  12.217  18.243  0.00  0.00    +0.000 C 
BRANCH  21  25
ATOM     25  C   UNL     1      -1.194  13.643  20.380  0.00  0.00    +0.000 C 
BRANCH  25  31
ATOM     26  C   UNL     1       1.940  13.620  20.810  0.00  0.00    +0.000 C 
ATOM     27  N   UNL     1       1.183  14.509  19.968  0.00  0.00    +0.000 N 
ATOM     28  C   UNL     1       1.718  15.514  19.220  0.00  0.00    +0.000 A 
ATOM     29  N   UNL     1       0.759  16.157  18.600  0.00  0.00    +0.000 NA
ATOM     30  N   UNL     1      -0.429  15.573  18.959  0.00  0.00    +0.000 NA
ATOM     31  C   UNL     1      -0.176  14.555  19.761  0.00  0.00    +0.000 A 
ENDBRANCH  25  31
ENDBRANCH  21  25
ENDBRANCH   1  21
TORSDOF 5
ENDMDL
MODEL 7
REMARK VINA RESULT:      -8.4      3.827      8.539
REMARK  Name = 
REMARK  6 active torsions:
REMARK  status: ('A' for Active; 'I' for Inactive)
REMARK    1  A    between atoms: C_1  and  N_2
REMARK    2  A    between atoms: C_6  and  C_7
REMARK    3  A    between atoms: C_7  and  C_8
REMARK    4  A    between atoms: C_8  and  C_9
REMARK    5  A    between atoms: C_13  and  N_14
REMARK    6  A    between atoms: C_21  and  C_22
REMARK                            x       y       z     vdW  Elec       q    Type
REMARK                         _______ _______ _______ _____ _____    ______ ____
ROOT
ATOM      1  C   UNL     1      -0.772  10.853  19.864  0.00  0.00    +0.000 A 
ATOM      2  C   UNL     1      -0.655  11.260  21.199  0.00  0.00    +0.000 A 
ATOM      3  C   UNL     1       0.183  10.586  22.101  0.00  0.00    +0.000 A 
ATOM      4  C   UNL     1       0.952   9.489  21.687  0.00  0.00    +0.000 A 
ATOM      5  C   UNL     1       0.875   9.056  20.369  0.00  0.00    +0.000 A 
ATOM      6  C   UNL     1      -0.003   9.732  19.509  0.00  0.00    +0.000 A 
ENDROOT
BRANCH   5   7
ATOM      7  N   UNL     1       1.663   8.001  19.840  0.00  0.00    +0.000 N 
ATOM      8  C   UNL     1       1.649   6.703  20.497  0.00  0.00    +0.000 C 
ATOM      9  C   UNL     1       2.415   5.827  19.578  0.00  0.00    +0.000 A 
ATOM     10  C   UNL     1       2.921   6.587  18.526  0.00  0.00    +0.000 A 
ATOM     11  C   UNL     1       3.702   6.018  17.542  0.00  0.00    +0.000 A 
ATOM     12  C   UNL     1       3.963   4.647  17.634  0.00  0.00    +0.000 A 
ATOM     13  C   UNL     1       3.424   3.871  18.682  0.00  0.00    +0.000 A 
ATOM     14  C   UNL     1       2.627   4.456  19.676  0.00  0.00    +0.000 A 
ATOM     15  C   UNL     1       2.429   7.978  18.674  0.00  0.00    +0.000 C 
ATOM     16  O   UNL     1       2.676   8.857  17.870  0.00  0.00    +0.000 OA
BRANCH  14  17
ATOM     17  C   UNL     1       2.007   3.618  20.771  0.00  0.00    +0.000 C 
ATOM     18  F   UNL     1       0.647   3.672  20.807  0.00  0.00    +0.000 F 
ATOM     19  F   UNL     1       2.324   2.300  20.655  0.00  0.00    +0.000 F 
ATOM     20  F   UNL     1       2.418   3.997  22.012  0.00  0.00    +0.000 F 
ENDBRANCH  14  17
ENDBRANCH   5   7
BRANCH   1  21
ATOM     21  C   UNL     1      -1.700  11.576  18.757  0.00  0.00    +0.000 C 
ATOM     22  C   UNL     1      -3.069  12.097  19.270  0.00  0.00    +0.000 C 
ATOM     23  O   UNL     1      -3.809  11.247  18.373  0.00  0.00    +0.000 OA
ATOM     24  C   UNL     1      -2.593  10.669  17.855  0.00  0.00    +0.000 C 
BRANCH  21  25
ATOM     25  C   UNL     1      -0.901  12.634  17.955  0.00  0.00    +0.000 C 
BRANCH  25  31
ATOM     26  C   UNL     1       2.226  12.630  18.435  0.00  0.00    +0.000 C 
ATOM     27  N   UNL     1       1.264  13.552  18.975  0.00  0.00    +0.000 N 
ATOM     28  C   UNL     1       1.563  14.585  19.814  0.00  0.00    +0.000 A 
ATOM     29  N   UNL     1       0.461  15.208  20.152  0.00  0.00    +0.000 NA
ATOM     30  N   UNL     1      -0.583  14.565  19.536  0.00  0.00    +0.000 NA
ATOM     31  C   UNL     1      -0.099  13.583  18.797  0.00  0.00    +0.000 A 
ENDBRANCH  25  31
ENDBRANCH  21  25
ENDBRANCH   1  21
TORSDOF 5
ENDMDL
MODEL 8
REMARK VINA RESULT:      -8.3      3.923      8.495
REMARK  Name = 
REMARK  6 active torsions:
REMARK  status: ('A' for Active; 'I' for Inactive)
REMARK    1  A    between atoms: C_1  and  N_2
REMARK    2  A    between atoms: C_6  and  C_7
REMARK    3  A    between atoms: C_7  and  C_8
REMARK    4  A    between atoms: C_8  and  C_9
REMARK    5  A    between atoms: C_13  and  N_14
REMARK    6  A    between atoms: C_21  and  C_22
REMARK                            x       y       z     vdW  Elec       q    Type
REMARK                         _______ _______ _______ _____ _____    ______ ____
ROOT
ATOM      1  C   UNL     1       0.070  10.368  20.090  0.00  0.00    +0.000 A 
ATOM      2  C   UNL     1       0.146  10.530  21.479  0.00  0.00    +0.000 A 
ATOM      3  C   UNL     1       0.811   9.600  22.292  0.00  0.00    +0.000 A 
ATOM      4  C   UNL     1       1.445   8.481  21.734  0.00  0.00    +0.000 A 
ATOM      5  C   UNL     1       1.405   8.284  20.360  0.00  0.00    +0.000 A 
ATOM      6  C   UNL     1       0.697   9.215  19.586  0.00  0.00    +0.000 A 
ENDROOT
BRANCH   5   7
ATOM      7  N   UNL     1       2.073   7.220  19.697  0.00  0.00    +0.000 N 
ATOM      8  C   UNL     1       1.843   5.853  20.135  0.00  0.00    +0.000 C 
ATOM      9  C   UNL     1       2.536   5.029  19.117  0.00  0.00    +0.000 A 
ATOM     10  C   UNL     1       3.203   5.861  18.221  0.00  0.00    +0.000 A 
ATOM     11  C   UNL     1       3.956   5.344  17.187  0.00  0.00    +0.000 A 
ATOM     12  C   UNL     1       4.023   3.952  17.066  0.00  0.00    +0.000 A 
ATOM     13  C   UNL     1       3.322   3.110  17.955  0.00  0.00    +0.000 A 
ATOM     14  C   UNL     1       2.555   3.642  19.000  0.00  0.00    +0.000 A 
ATOM     15  C   UNL     1       2.895   7.268  18.572  0.00  0.00    +0.000 C 
ATOM     16  O   UNL     1       3.307   8.216  17.930  0.00  0.00    +0.000 OA
BRANCH  14  17
ATOM     17  C   UNL     1       1.762   2.743  19.923  0.00  0.00    +0.000 C 
ATOM     18  F   UNL     1       2.190   2.760  21.215  0.00  0.00    +0.000 F 
ATOM     19  F   UNL     1       0.444   3.077  19.962  0.00  0.00    +0.000 F 
ATOM     20  F   UNL     1       1.810   1.437  19.542  0.00  0.00    +0.000 F 
ENDBRANCH  14  17
ENDBRANCH   5   7
BRANCH   1  21
ATOM     21  C   UNL     1      -0.662  11.392  19.078  0.00  0.00    +0.000 C 
ATOM     22  C   UNL     1       0.226  12.544  18.537  0.00  0.00    +0.000 C 
ATOM     23  O   UNL     1      -0.614  13.560  19.120  0.00  0.00    +0.000 OA
ATOM     24  C   UNL     1      -1.482  12.564  19.700  0.00  0.00    +0.000 C 
BRANCH  21  25
ATOM     25  C   UNL     1      -1.430  10.634  17.966  0.00  0.00    +0.000 C 
BRANCH  25  31
ATOM     26  C   UNL     1      -3.029  10.769  15.240  0.00  0.00    +0.000 C 
ATOM     27  N   UNL     1      -3.505  11.137  16.547  0.00  0.00    +0.000 N 
ATOM     28  C   UNL     1      -4.748  11.629  16.812  0.00  0.00    +0.000 A 
ATOM     29  N   UNL     1      -4.849  11.897  18.091  0.00  0.00    +0.000 NA
ATOM     30  N   UNL     1      -3.647  11.591  18.674  0.00  0.00    +0.000 NA
ATOM     31  C   UNL     1      -2.840  11.100  17.750  0.00  0.00    +0.000 A 
ENDBRANCH  25  31
ENDBRANCH  21  25
ENDBRANCH   1  21
TORSDOF 5
ENDMDL
MODEL 9
REMARK VINA RESULT:      -8.3      4.084      9.382
REMARK  Name = 
REMARK  6 active torsions:
REMARK  status: ('A' for Active; 'I' for Inactive)
REMARK    1  A    between atoms: C_1  and  N_2
REMARK    2  A    between atoms: C_6  and  C_7
REMARK    3  A    between atoms: C_7  and  C_8
REMARK    4  A    between atoms: C_8  and  C_9
REMARK    5  A    between atoms: C_13  and  N_14
REMARK    6  A    between atoms: C_21  and  C_22
REMARK                            x       y       z     vdW  Elec       q    Type
REMARK                         _______ _______ _______ _____ _____    ______ ____
ROOT
ATOM      1  C   UNL     1      -0.783  10.830  20.631  0.00  0.00    +0.000 A 
ATOM      2  C   UNL     1      -0.791  10.928  22.029  0.00  0.00    +0.000 A 
ATOM      3  C   UNL     1      -0.086  10.020  22.833  0.00  0.00    +0.000 A 
ATOM      4  C   UNL     1       0.673   8.990  22.259  0.00  0.00    +0.000 A 
ATOM      5  C   UNL     1       0.719   8.860  20.877  0.00  0.00    +0.000 A 
ATOM      6  C   UNL     1      -0.031   9.763  20.110  0.00  0.00    +0.000 A 
ENDROOT
BRANCH   5   7
ATOM      7  N   UNL     1       1.511   7.893  20.204  0.00  0.00    +0.000 N 
ATOM      8  C   UNL     1       1.580   6.538  20.727  0.00  0.00    +0.000 C 
ATOM      9  C   UNL     1       2.321   5.788  19.686  0.00  0.00    +0.000 A 
ATOM     10  C   UNL     1       2.739   6.667  18.689  0.00  0.00    +0.000 A 
ATOM     11  C   UNL     1       3.482   6.228  17.612  0.00  0.00    +0.000 A 
ATOM     12  C   UNL     1       3.795   4.866  17.552  0.00  0.00    +0.000 A 
ATOM     13  C   UNL     1       3.344   3.971  18.545  0.00  0.00    +0.000 A 
ATOM     14  C   UNL     1       2.587   4.423  19.634  0.00  0.00    +0.000 A 
ATOM     15  C   UNL     1       2.208   8.015  19.002  0.00  0.00    +0.000 C 
ATOM     16  O   UNL     1       2.378   8.978  18.277  0.00  0.00    +0.000 OA
BRANCH  14  17
ATOM     17  C   UNL     1       2.060   3.458  20.673  0.00  0.00    +0.000 C 
ATOM     18  F   UNL     1       0.708   3.491  20.825  0.00  0.00    +0.000 F 
ATOM     19  F   UNL     1       2.370   2.165  20.380  0.00  0.00    +0.000 F 
ATOM     20  F   UNL     1       2.571   3.698  21.911  0.00  0.00    +0.000 F 
ENDBRANCH  14  17
ENDBRANCH   5   7
BRANCH   1  21
ATOM     21  C   UNL     1      -1.552  11.836  19.630  0.00  0.00    +0.000 C 
ATOM     22  C   UNL     1      -2.467  11.158  18.575  0.00  0.00    +0.000 C 
ATOM     23  O   UNL     1      -1.713  11.696  17.472  0.00  0.00    +0.000 OA
ATOM     24  C   UNL     1      -0.782  12.336  18.369  0.00  0.00    +0.000 C 
BRANCH  21  25
ATOM     25  C   UNL     1      -2.254  12.979  20.407  0.00  0.00    +0.000 C 
BRANCH  25  31
ATOM     26  C   UNL     1      -3.787  12.631  23.152  0.00  0.00    +0.000 C 
ATOM     27  N   UNL     1      -4.358  12.639  21.831  0.00  0.00    +0.000 N 
ATOM     28  C   UNL     1      -5.683  12.478  21.556  0.00  0.00    +0.000 A 
ATOM     29  N   UNL     1      -5.866  12.498  20.258  0.00  0.00    +0.000 NA
ATOM     30  N   UNL     1      -4.638  12.662  19.670  0.00  0.00    +0.000 NA
ATOM     31  C   UNL     1      -3.726  12.780  20.618  0.00  0.00    +0.000 A 
ENDBRANCH  25  31
ENDBRANCH  21  25
ENDBRANCH   1  21
TORSDOF 5
ENDMDL
