MODEL 1
REMARK VINA RESULT:      -8.9      0.000      0.000
REMARK  Name = 
REMARK  6 active torsions:
REMARK  status: ('A' for Active; 'I' for Inactive)
REMARK    1  A    between atoms: C_1  and  C_2
REMARK    2  A    between atoms: C_2  and  C_3
REMARK    3  A    between atoms: C_2  and  C_9
REMARK    4  A    between atoms: C_3  and  C_4
REMARK    5  A    between atoms: C_13  and  N_14
REMARK    6  A    between atoms: C_21  and  C_22
REMARK                            x       y       z     vdW  Elec       q    Type
REMARK                         _______ _______ _______ _____ _____    ______ ____
ROOT
ATOM      1  C   UNL     1       4.987   5.173  18.865  0.00  0.00    +0.000 A 
ATOM      2  C   UNL     1       4.417   3.943  19.200  0.00  0.00    +0.000 A 
ATOM      3  C   UNL     1       3.081   3.873  19.621  0.00  0.00    +0.000 A 
ATOM      4  C   UNL     1       2.291   5.028  19.719  0.00  0.00    +0.000 A 
ATOM      5  C   UNL     1       2.844   6.271  19.429  0.00  0.00    +0.000 A 
ATOM      6  C   UNL     1       4.195   6.310  19.034  0.00  0.00    +0.000 A 
ENDROOT
BRANCH   5   7
ATOM      7  N   UNL     1       2.124   7.493  19.469  0.00  0.00    +0.000 N 
ATOM      8  C   UNL     1       1.450   7.878  20.692  0.00  0.00    +0.000 C 
ATOM      9  C   UNL     1       0.882   9.211  20.399  0.00  0.00    +0.000 A 
ATOM     10  C   UNL     1       1.205   9.574  19.093  0.00  0.00    +0.000 A 
ATOM     11  C   UNL     1       0.804  10.786  18.573  0.00  0.00    +0.000 A 
ATOM     12  C   UNL     1       0.070  11.641  19.410  0.00  0.00    +0.000 A 
ATOM     13  C   UNL     1      -0.253  11.271  20.731  0.00  0.00    +0.000 A 
ATOM     14  C   UNL     1       0.152  10.035  21.252  0.00  0.00    +0.000 A 
ATOM     15  C   UNL     1       2.004   8.481  18.488  0.00  0.00    +0.000 C 
ATOM     16  O   UNL     1       2.439   8.527  17.351  0.00  0.00    +0.000 OA
BRANCH  14  17
ATOM     17  C   UNL     1      -0.179   9.627  22.668  0.00  0.00    +0.000 C 
ATOM     18  F   UNL     1      -0.851  10.582  23.371  0.00  0.00    +0.000 F 
ATOM     19  F   UNL     1      -0.958   8.514  22.723  0.00  0.00    +0.000 F 
ATOM     20  F   UNL     1       0.932   9.352  23.402  0.00  0.00    +0.000 F 
ENDBRANCH  14  17
ENDBRANCH   5   7
BRANCH   1  22
ATOM     21  C   UNL     1       7.504   5.747  19.178  0.00  0.00    +0.000 C 
ATOM     22  C   UNL     1       6.375   5.275  18.232  0.00  0.00    +0.000 C 
BRANCH  22  23
ATOM     23  C   UNL     1       6.352   6.169  16.969  0.00  0.00    +0.000 C 
BRANCH  23  24
ATOM     24  C   UNL     1       6.527   5.399  15.710  0.00  0.00    +0.000 A 
ATOM     25  N   UNL     1       7.446   5.513  14.773  0.00  0.00    +0.000 NA
ATOM     26  N   UNL     1       7.103   4.611  13.785  0.00  0.00    +0.000 NA
ATOM     27  C   UNL     1       6.010   4.016  14.199  0.00  0.00    +0.000 A 
ATOM     28  O   UNL     1       5.591   4.442  15.420  0.00  0.00    +0.000 OA
ENDBRANCH  23  24
ENDBRANCH  22  23
ENDBRANCH   1  22
TORSDOF 5
ENDMDL
MODEL 2
REMARK VINA RESULT:      -8.8      0.565      1.015
REMARK  Name = 
REMARK  6 active torsions:
REMARK  status: ('A' for Active; 'I' for Inactive)
REMARK    1  A    between atoms: C_1  and  C_2
REMARK    2  A    between atoms: C_2  and  C_3
REMARK    3  A    between atoms: C_2  and  C_9
REMARK    4  A    between atoms: C_3  and  C_4
REMARK    5  A    between atoms: C_13  and  N_14
REMARK    6  A    between atoms: C_21  and  C_22
REMARK                            x       y       z     vdW  Elec       q    Type
REMARK                         _______ _______ _______ _____ _____    ______ ____
ROOT
ATOM      1  C   UNL     1       5.094   5.531  18.601  0.00  0.00    +0.000 A 
ATOM      2  C   UNL     1       4.502   4.268  18.563  0.00  0.00    +0.000 A 
ATOM      3  C   UNL     1       3.115   4.130  18.719  0.00  0.00    +0.000 A 
ATOM      4  C   UNL     1       2.294   5.250  18.920  0.00  0.00    +0.000 A 
ATOM      5  C   UNL     1       2.861   6.517  19.001  0.00  0.00    +0.000 A 
ATOM      6  C   UNL     1       4.259   6.618  18.867  0.00  0.00    +0.000 A 
ENDROOT
BRANCH   5   7
ATOM      7  N   UNL     1       2.118   7.714  19.173  0.00  0.00    +0.000 N 
ATOM      8  C   UNL     1       1.484   7.976  20.448  0.00  0.00    +0.000 C 
ATOM      9  C   UNL     1       0.878   9.316  20.293  0.00  0.00    +0.000 A 
ATOM     10  C   UNL     1       1.142   9.797  19.012  0.00  0.00    +0.000 A 
ATOM     11  C   UNL     1       0.696  11.038  18.613  0.00  0.00    +0.000 A 
ATOM     12  C   UNL     1      -0.022  11.801  19.547  0.00  0.00    +0.000 A 
ATOM     13  C   UNL     1      -0.287  11.311  20.843  0.00  0.00    +0.000 A 
ATOM     14  C   UNL     1       0.164  10.046  21.239  0.00  0.00    +0.000 A 
ATOM     15  C   UNL     1       1.940   8.778  18.285  0.00  0.00    +0.000 C 
ATOM     16  O   UNL     1       2.329   8.932  17.142  0.00  0.00    +0.000 OA
BRANCH  14  17
ATOM     17  C   UNL     1      -0.103   9.511  22.626  0.00  0.00    +0.000 C 
ATOM     18  F   UNL     1       1.026   9.187  23.318  0.00  0.00    +0.000 F 
ATOM     19  F   UNL     1      -0.772  10.400  23.410  0.00  0.00    +0.000 F 
ATOM     20  F   UNL     1      -0.854   8.377  22.610  0.00  0.00    +0.000 F 
ENDBRANCH  14  17
ENDBRANCH   5   7
BRANCH   1  22
ATOM     21  C   UNL     1       6.886   7.026  17.453  0.00  0.00    +0.000 C 
ATOM     22  C   UNL     1       6.569   5.744  18.258  0.00  0.00    +0.000 C 
BRANCH  22  23
ATOM     23  C   UNL     1       7.158   4.515  17.526  0.00  0.00    +0.000 C 
BRANCH  23  24
ATOM     24  C   UNL     1       6.998   4.587  16.050  0.00  0.00    +0.000 A 
ATOM     25  N   UNL     1       7.628   5.338  15.170  0.00  0.00    +0.000 NA
ATOM     26  N   UNL     1       7.044   5.073  13.947  0.00  0.00    +0.000 NA
ATOM     27  C   UNL     1       6.112   4.179  14.176  0.00  0.00    +0.000 A 
ATOM     28  O   UNL     1       6.032   3.802  15.481  0.00  0.00    +0.000 OA
ENDBRANCH  23  24
ENDBRANCH  22  23
ENDBRANCH   1  22
TORSDOF 5
ENDMDL
MODEL 3
REMARK VINA RESULT:      -8.7      1.532      2.133
REMARK  Name = 
REMARK  6 active torsions:
REMARK  status: ('A' for Active; 'I' for Inactive)
REMARK    1  A    between atoms: C_1  and  C_2
REMARK    2  A    between atoms: C_2  and  C_3
REMARK    3  A    between atoms: C_2  and  C_9
REMARK    4  A    between atoms: C_3  and  C_4
REMARK    5  A    between atoms: C_13  and  N_14
REMARK    6  A    between atoms: C_21  and  C_22
REMARK                            x       y       z     vdW  Elec       q    Type
REMARK                         _______ _______ _______ _____ _____    ______ ____
ROOT
ATOM      1  C   UNL     1       4.183   4.939  18.486  0.00  0.00    +0.000 A 
ATOM      2  C   UNL     1       3.818   3.865  19.301  0.00  0.00    +0.000 A 
ATOM      3  C   UNL     1       2.800   4.013  20.254  0.00  0.00    +0.000 A 
ATOM      4  C   UNL     1       2.131   5.235  20.415  0.00  0.00    +0.000 A 
ATOM      5  C   UNL     1       2.499   6.332  19.644  0.00  0.00    +0.000 A 
ATOM      6  C   UNL     1       3.543   6.158  18.715  0.00  0.00    +0.000 A 
ENDROOT
BRANCH   5   7
ATOM      7  N   UNL     1       1.868   7.601  19.709  0.00  0.00    +0.000 N 
ATOM      8  C   UNL     1       1.161   7.979  20.916  0.00  0.00    +0.000 C 
ATOM      9  C   UNL     1       0.705   9.363  20.662  0.00  0.00    +0.000 A 
ATOM     10  C   UNL     1       1.119   9.759  19.391  0.00  0.00    +0.000 A 
ATOM     11  C   UNL     1       0.833  11.019  18.912  0.00  0.00    +0.000 A 
ATOM     12  C   UNL     1       0.120  11.887  19.754  0.00  0.00    +0.000 A 
ATOM     13  C   UNL     1      -0.296  11.483  21.039  0.00  0.00    +0.000 A 
ATOM     14  C   UNL     1      -0.006  10.198  21.517  0.00  0.00    +0.000 A 
ATOM     15  C   UNL     1       1.868   8.638  18.772  0.00  0.00    +0.000 C 
ATOM     16  O   UNL     1       2.362   8.703  17.661  0.00  0.00    +0.000 OA
BRANCH  14  17
ATOM     17  C   UNL     1      -0.437   9.753  22.895  0.00  0.00    +0.000 C 
ATOM     18  F   UNL     1      -1.285  10.624  23.514  0.00  0.00    +0.000 F 
ATOM     19  F   UNL     1      -1.086   8.558  22.880  0.00  0.00    +0.000 F 
ATOM     20  F   UNL     1       0.614   9.607  23.746  0.00  0.00    +0.000 F 
ENDBRANCH  14  17
ENDBRANCH   5   7
BRANCH   1  22
ATOM     21  C   UNL     1       4.974   3.490  16.478  0.00  0.00    +0.000 C 
ATOM     22  C   UNL     1       5.156   4.774  17.318  0.00  0.00    +0.000 C 
BRANCH  22  23
ATOM     23  C   UNL     1       6.626   4.878  17.793  0.00  0.00    +0.000 C 
BRANCH  23  24
ATOM     24  C   UNL     1       7.150   6.268  17.756  0.00  0.00    +0.000 A 
ATOM     25  N   UNL     1       6.985   7.207  16.847  0.00  0.00    +0.000 NA
ATOM     26  N   UNL     1       7.749   8.281  17.258  0.00  0.00    +0.000 NA
ATOM     27  C   UNL     1       8.313   7.916  18.385  0.00  0.00    +0.000 A 
ATOM     28  O   UNL     1       7.968   6.661  18.781  0.00  0.00    +0.000 OA
ENDBRANCH  23  24
ENDBRANCH  22  23
ENDBRANCH   1  22
TORSDOF 5
ENDMDL
MODEL 4
REMARK VINA RESULT:      -8.7      1.466      2.227
REMARK  Name = 
REMARK  6 active torsions:
REMARK  status: ('A' for Active; 'I' for Inactive)
REMARK    1  A    between atoms: C_1  and  C_2
REMARK    2  A    between atoms: C_2  and  C_3
REMARK    3  A    between atoms: C_2  and  C_9
REMARK    4  A    between atoms: C_3  and  C_4
REMARK    5  A    between atoms: C_13  and  N_14
REMARK    6  A    between atoms: C_21  and  C_22
REMARK                            x       y       z     vdW  Elec       q    Type
REMARK                         _______ _______ _______ _____ _____    ______ ____
ROOT
ATOM      1  C   UNL     1       4.085   5.489  17.590  0.00  0.00    +0.000 A 
ATOM      2  C   UNL     1       3.974   4.394  18.450  0.00  0.00    +0.000 A 
ATOM      3  C   UNL     1       3.170   4.473  19.596  0.00  0.00    +0.000 A 
ATOM      4  C   UNL     1       2.466   5.645  19.908  0.00  0.00    +0.000 A 
ATOM      5  C   UNL     1       2.589   6.764  19.091  0.00  0.00    +0.000 A 
ATOM      6  C   UNL     1       3.425   6.661  17.962  0.00  0.00    +0.000 A 
ENDROOT
BRANCH   5   7
ATOM      7  N   UNL     1       1.899   7.986  19.302  0.00  0.00    +0.000 N 
ATOM      8  C   UNL     1       1.256   8.224  20.578  0.00  0.00    +0.000 C 
ATOM      9  C   UNL     1       0.715   9.596  20.470  0.00  0.00    +0.000 A 
ATOM     10  C   UNL     1       1.022  10.117  19.214  0.00  0.00    +0.000 A 
ATOM     11  C   UNL     1       0.640  11.393  18.862  0.00  0.00    +0.000 A 
ATOM     12  C   UNL     1      -0.058  12.149  19.817  0.00  0.00    +0.000 A 
ATOM     13  C   UNL     1      -0.366  11.619  21.086  0.00  0.00    +0.000 A 
ATOM     14  C   UNL     1       0.020  10.318  21.436  0.00  0.00    +0.000 A 
ATOM     15  C   UNL     1       1.784   9.093  18.458  0.00  0.00    +0.000 C 
ATOM     16  O   UNL     1       2.199   9.276  17.328  0.00  0.00    +0.000 OA
BRANCH  14  17
ATOM     17  C   UNL     1      -0.295   9.740  22.795  0.00  0.00    +0.000 C 
ATOM     18  F   UNL     1       0.810   9.456  23.541  0.00  0.00    +0.000 F 
ATOM     19  F   UNL     1      -1.048  10.577  23.558  0.00  0.00    +0.000 F 
ATOM     20  F   UNL     1      -0.987   8.572  22.715  0.00  0.00    +0.000 F 
ENDBRANCH  14  17
ENDBRANCH   5   7
BRANCH   1  22
ATOM     21  C   UNL     1       5.029   3.955  15.715  0.00  0.00    +0.000 C 
ATOM     22  C   UNL     1       4.801   5.390  16.243  0.00  0.00    +0.000 C 
BRANCH  22  23
ATOM     23  C   UNL     1       6.149   6.152  16.266  0.00  0.00    +0.000 C 
BRANCH  23  24
ATOM     24  C   UNL     1       7.039   5.722  17.375  0.00  0.00    +0.000 A 
ATOM     25  N   UNL     1       7.735   4.613  17.516  0.00  0.00    +0.000 NA
ATOM     26  N   UNL     1       8.325   4.682  18.762  0.00  0.00    +0.000 NA
ATOM     27  C   UNL     1       7.948   5.828  19.280  0.00  0.00    +0.000 A 
ATOM     28  O   UNL     1       7.148   6.556  18.456  0.00  0.00    +0.000 OA
ENDBRANCH  23  24
ENDBRANCH  22  23
ENDBRANCH   1  22
TORSDOF 5
ENDMDL
MODEL 5
REMARK VINA RESULT:      -8.5      1.868      2.527
REMARK  Name = 
REMARK  6 active torsions:
REMARK  status: ('A' for Active; 'I' for Inactive)
REMARK    1  A    between atoms: C_1  and  C_2
REMARK    2  A    between atoms: C_2  and  C_3
REMARK    3  A    between atoms: C_2  and  C_9
REMARK    4  A    between atoms: C_3  and  C_4
REMARK    5  A    between atoms: C_13  and  N_14
REMARK    6  A    between atoms: C_21  and  C_22
REMARK                            x       y       z     vdW  Elec       q    Type
REMARK                         _______ _______ _______ _____ _____    ______ ____
ROOT
ATOM      1  C   UNL     1       4.398   5.836  17.408  0.00  0.00    +0.000 A 
ATOM      2  C   UNL     1       3.849   4.584  17.694  0.00  0.00    +0.000 A 
ATOM      3  C   UNL     1       2.642   4.484  18.401  0.00  0.00    +0.000 A 
ATOM      4  C   UNL     1       1.962   5.631  18.838  0.00  0.00    +0.000 A 
ATOM      5  C   UNL     1       2.504   6.889  18.601  0.00  0.00    +0.000 A 
ATOM      6  C   UNL     1       3.731   6.954  17.912  0.00  0.00    +0.000 A 
ENDROOT
BRANCH   5   7
ATOM      7  N   UNL     1       1.883   8.109  18.975  0.00  0.00    +0.000 N 
ATOM      8  C   UNL     1       1.290   8.227  20.291  0.00  0.00    +0.000 C 
ATOM      9  C   UNL     1       0.816   9.626  20.361  0.00  0.00    +0.000 A 
ATOM     10  C   UNL     1       1.113  10.274  19.163  0.00  0.00    +0.000 A 
ATOM     11  C   UNL     1       0.786  11.599  18.974  0.00  0.00    +0.000 A 
ATOM     12  C   UNL     1       0.155  12.271  20.033  0.00  0.00    +0.000 A 
ATOM     13  C   UNL     1      -0.144  11.611  21.243  0.00  0.00    +0.000 A 
ATOM     14  C   UNL     1       0.186  10.262  21.427  0.00  0.00    +0.000 A 
ATOM     15  C   UNL     1       1.800   9.312  18.268  0.00  0.00    +0.000 C 
ATOM     16  O   UNL     1       2.191   9.606  17.153  0.00  0.00    +0.000 OA
BRANCH  14  17
ATOM     17  C   UNL     1      -0.118   9.544  22.720  0.00  0.00    +0.000 C 
ATOM     18  F   UNL     1      -0.804  10.303  23.622  0.00  0.00    +0.000 F 
ATOM     19  F   UNL     1      -0.870   8.426  22.533  0.00  0.00    +0.000 F 
ATOM     20  F   UNL     1       1.008   9.142  23.369  0.00  0.00    +0.000 F 
ENDBRANCH  14  17
ENDBRANCH   5   7
BRANCH   1  22
ATOM     21  C   UNL     1       5.659   5.038  15.278  0.00  0.00    +0.000 C 
ATOM     22  C   UNL     1       5.610   5.997  16.490  0.00  0.00    +0.000 C 
BRANCH  22  23
ATOM     23  C   UNL     1       6.934   5.893  17.285  0.00  0.00    +0.000 C 
BRANCH  23  24
ATOM     24  C   UNL     1       7.477   7.218  17.682  0.00  0.00    +0.000 A 
ATOM     25  N   UNL     1       7.268   8.407  17.155  0.00  0.00    +0.000 NA
ATOM     26  N   UNL     1       8.075   9.286  17.851  0.00  0.00    +0.000 NA
ATOM     27  C   UNL     1       8.705   8.566  18.750  0.00  0.00    +0.000 A 
ATOM     28  O   UNL     1       8.366   7.250  18.723  0.00  0.00    +0.000 OA
ENDBRANCH  23  24
ENDBRANCH  22  23
ENDBRANCH   1  22
TORSDOF 5
ENDMDL
MODEL 6
REMARK VINA RESULT:      -8.4      2.707      3.649
REMARK  Name = 
REMARK  6 active torsions:
REMARK  status: ('A' for Active; 'I' for Inactive)
REMARK    1  A    between atoms: C_1  and  C_2
REMARK    2  A    between atoms: C_2  and  C_3
REMARK    3  A    between atoms: C_2  and  C_9
REMARK    4  A    between atoms: C_3  and  C_4
REMARK    5  A    between atoms: C_13  and  N_14
REMARK    6  A    between atoms: C_21  and  C_22
REMARK                            x       y       z     vdW  Elec       q    Type
REMARK                         _______ _______ _______ _____ _____    ______ ____
ROOT
ATOM      1  C   UNL     1       4.464   4.508  16.628  0.00  0.00    +0.000 A 
ATOM      2  C   UNL     1       3.846   3.257  16.586  0.00  0.00    +0.000 A 
ATOM      3  C   UNL     1       2.719   2.997  17.378  0.00  0.00    +0.000 A 
ATOM      4  C   UNL     1       2.190   3.978  18.229  0.00  0.00    +0.000 A 
ATOM      5  C   UNL     1       2.808   5.220  18.321  0.00  0.00    +0.000 A 
ATOM      6  C   UNL     1       3.953   5.441  17.532  0.00  0.00    +0.000 A 
ENDROOT
BRANCH   5   7
ATOM      7  N   UNL     1       2.337   6.288  19.128  0.00  0.00    +0.000 N 
ATOM      8  C   UNL     1       2.093   7.580  18.520  0.00  0.00    +0.000 C 
ATOM      9  C   UNL     1       1.550   8.410  19.617  0.00  0.00    +0.000 A 
ATOM     10  C   UNL     1       1.486   7.650  20.783  0.00  0.00    +0.000 A 
ATOM     11  C   UNL     1       1.001   8.187  21.955  0.00  0.00    +0.000 A 
ATOM     12  C   UNL     1       0.565   9.521  21.927  0.00  0.00    +0.000 A 
ATOM     13  C   UNL     1       0.630  10.287  20.745  0.00  0.00    +0.000 A 
ATOM     14  C   UNL     1       1.130   9.736  19.558  0.00  0.00    +0.000 A 
ATOM     15  C   UNL     1       1.986   6.286  20.481  0.00  0.00    +0.000 C 
ATOM     16  O   UNL     1       2.034   5.397  21.312  0.00  0.00    +0.000 OA
BRANCH  14  17
ATOM     17  C   UNL     1       1.198  10.540  18.281  0.00  0.00    +0.000 C 
ATOM     18  F   UNL     1       2.454  10.638  17.759  0.00  0.00    +0.000 F 
ATOM     19  F   UNL     1       0.429  10.014  17.290  0.00  0.00    +0.000 F 
ATOM     20  F   UNL     1       0.777  11.822  18.452  0.00  0.00    +0.000 F 
ENDBRANCH  14  17
ENDBRANCH   5   7
BRANCH   1  22
ATOM     21  C   UNL     1       5.427   4.342  14.218  0.00  0.00    +0.000 C 
ATOM     22  C   UNL     1       5.579   4.893  15.655  0.00  0.00    +0.000 C 
BRANCH  22  23
ATOM     23  C   UNL     1       6.970   4.505  16.212  0.00  0.00    +0.000 C 
BRANCH  23  24
ATOM     24  C   UNL     1       7.378   5.331  17.377  0.00  0.00    +0.000 A 
ATOM     25  N   UNL     1       7.722   6.602  17.431  0.00  0.00    +0.000 NA
ATOM     26  N   UNL     1       8.086   6.849  18.740  0.00  0.00    +0.000 NA
ATOM     27  C   UNL     1       7.930   5.715  19.381  0.00  0.00    +0.000 A 
ATOM     28  O   UNL     1       7.464   4.708  18.594  0.00  0.00    +0.000 OA
ENDBRANCH  23  24
ENDBRANCH  22  23
ENDBRANCH   1  22
TORSDOF 5
ENDMDL
MODEL 7
REMARK VINA RESULT:      -8.3      2.776      3.618
REMARK  Name = 
REMARK  6 active torsions:
REMARK  status: ('A' for Active; 'I' for Inactive)
REMARK    1  A    between atoms: C_1  and  C_2
REMARK    2  A    between atoms: C_2  and  C_3
REMARK    3  A    between atoms: C_2  and  C_9
REMARK    4  A    between atoms: C_3  and  C_4
REMARK    5  A    between atoms: C_13  and  N_14
REMARK    6  A    between atoms: C_21  and  C_22
REMARK                            x       y       z     vdW  Elec       q    Type
REMARK                         _______ _______ _______ _____ _____    ______ ____
ROOT
ATOM      1  C   UNL     1       4.488   4.624  16.756  0.00  0.00    +0.000 A 
ATOM      2  C   UNL     1       3.780   3.432  16.588  0.00  0.00    +0.000 A 
ATOM      3  C   UNL     1       2.566   3.228  17.260  0.00  0.00    +0.000 A 
ATOM      4  C   UNL     1       2.038   4.207  18.115  0.00  0.00    +0.000 A 
ATOM      5  C   UNL     1       2.740   5.387  18.331  0.00  0.00    +0.000 A 
ATOM      6  C   UNL     1       3.968   5.551  17.662  0.00  0.00    +0.000 A 
ENDROOT
BRANCH   5   7
ATOM      7  N   UNL     1       2.280   6.450  19.152  0.00  0.00    +0.000 N 
ATOM      8  C   UNL     1       2.043   7.750  18.559  0.00  0.00    +0.000 C 
ATOM      9  C   UNL     1       1.510   8.572  19.667  0.00  0.00    +0.000 A 
ATOM     10  C   UNL     1       1.445   7.799  20.825  0.00  0.00    +0.000 A 
ATOM     11  C   UNL     1       0.968   8.328  22.005  0.00  0.00    +0.000 A 
ATOM     12  C   UNL     1       0.542   9.665  21.992  0.00  0.00    +0.000 A 
ATOM     13  C   UNL     1       0.609  10.443  20.819  0.00  0.00    +0.000 A 
ATOM     14  C   UNL     1       1.101   9.902  19.624  0.00  0.00    +0.000 A 
ATOM     15  C   UNL     1       1.934   6.436  20.505  0.00  0.00    +0.000 C 
ATOM     16  O   UNL     1       1.978   5.537  21.326  0.00  0.00    +0.000 OA
BRANCH  14  17
ATOM     17  C   UNL     1       1.171  10.719  18.356  0.00  0.00    +0.000 C 
ATOM     18  F   UNL     1       0.828  12.028  18.526  0.00  0.00    +0.000 F 
ATOM     19  F   UNL     1       2.417  10.734  17.810  0.00  0.00    +0.000 F 
ATOM     20  F   UNL     1       0.336  10.251  17.389  0.00  0.00    +0.000 F 
ENDBRANCH  14  17
ENDBRANCH   5   7
BRANCH   1  22
ATOM     21  C   UNL     1       5.821   4.213  14.562  0.00  0.00    +0.000 C 
ATOM     22  C   UNL     1       5.715   4.962  15.910  0.00  0.00    +0.000 C 
BRANCH  22  23
ATOM     23  C   UNL     1       7.023   4.765  16.715  0.00  0.00    +0.000 C 
BRANCH  23  24
ATOM     24  C   UNL     1       7.495   6.013  17.368  0.00  0.00    +0.000 A 
ATOM     25  N   UNL     1       7.991   6.198  18.574  0.00  0.00    +0.000 NA
ATOM     26  N   UNL     1       8.195   7.557  18.705  0.00  0.00    +0.000 NA
ATOM     27  C   UNL     1       7.814   8.092  17.569  0.00  0.00    +0.000 A 
ATOM     28  O   UNL     1       7.377   7.180  16.660  0.00  0.00    +0.000 OA
ENDBRANCH  23  24
ENDBRANCH  22  23
ENDBRANCH   1  22
TORSDOF 5
ENDMDL
MODEL 8
REMARK VINA RESULT:      -8.3      4.185      8.105
REMARK  Name = 
REMARK  6 active torsions:
REMARK  status: ('A' for Active; 'I' for Inactive)
REMARK    1  A    between atoms: C_1  and  C_2
REMARK    2  A    between atoms: C_2  and  C_3
REMARK    3  A    between atoms: C_2  and  C_9
REMARK    4  A    between atoms: C_3  and  C_4
REMARK    5  A    between atoms: C_13  and  N_14
REMARK    6  A    between atoms: C_21  and  C_22
REMARK                            x       y       z     vdW  Elec       q    Type
REMARK                         _______ _______ _______ _____ _____    ______ ____
ROOT
ATOM      1  C   UNL     1       0.752  10.272  19.686  0.00  0.00    +0.000 A 
ATOM      2  C   UNL     1       0.640  10.382  21.074  0.00  0.00    +0.000 A 
ATOM      3  C   UNL     1       1.062   9.333  21.904  0.00  0.00    +0.000 A 
ATOM      4  C   UNL     1       1.598   8.154  21.365  0.00  0.00    +0.000 A 
ATOM      5  C   UNL     1       1.686   8.001  19.986  0.00  0.00    +0.000 A 
ATOM      6  C   UNL     1       1.229   9.062  19.179  0.00  0.00    +0.000 A 
ENDROOT
BRANCH   5   7
ATOM      7  N   UNL     1       2.237   6.863  19.342  0.00  0.00    +0.000 N 
ATOM      8  C   UNL     1       3.215   7.050  18.290  0.00  0.00    +0.000 C 
ATOM      9  C   UNL     1       3.619   5.679  17.910  0.00  0.00    +0.000 A 
ATOM     10  C   UNL     1       2.920   4.760  18.689  0.00  0.00    +0.000 A 
ATOM     11  C   UNL     1       3.123   3.405  18.542  0.00  0.00    +0.000 A 
ATOM     12  C   UNL     1       4.066   2.989  17.589  0.00  0.00    +0.000 A 
ATOM     13  C   UNL     1       4.772   3.923  16.803  0.00  0.00    +0.000 A 
ATOM     14  C   UNL     1       4.556   5.299  16.954  0.00  0.00    +0.000 A 
ATOM     15  C   UNL     1       2.033   5.508  19.613  0.00  0.00    +0.000 C 
ATOM     16  O   UNL     1       1.308   4.962  20.426  0.00  0.00    +0.000 OA
BRANCH  14  17
ATOM     17  C   UNL     1       5.311   6.312  16.126  0.00  0.00    +0.000 C 
ATOM     18  F   UNL     1       4.505   7.164  15.430  0.00  0.00    +0.000 F 
ATOM     19  F   UNL     1       6.120   7.105  16.880  0.00  0.00    +0.000 F 
ATOM     20  F   UNL     1       6.110   5.728  15.193  0.00  0.00    +0.000 F 
ENDBRANCH  14  17
ENDBRANCH   5   7
BRANCH   1  22
ATOM     21  C   UNL     1       1.390  12.684  18.954  0.00  0.00    +0.000 C 
ATOM     22  C   UNL     1       0.474  11.454  18.756  0.00  0.00    +0.000 C 
BRANCH  22  23
ATOM     23  C   UNL     1      -1.007  11.894  18.835  0.00  0.00    +0.000 C 
BRANCH  23  24
ATOM     24  C   UNL     1      -1.881  11.160  17.883  0.00  0.00    +0.000 A 
ATOM     25  N   UNL     1      -1.623  10.096  17.151  0.00  0.00    +0.000 NA
ATOM     26  N   UNL     1      -2.750   9.872  16.385  0.00  0.00    +0.000 NA
ATOM     27  C   UNL     1      -3.606  10.810  16.714  0.00  0.00    +0.000 A 
ATOM     28  O   UNL     1      -3.140  11.655  17.672  0.00  0.00    +0.000 OA
ENDBRANCH  23  24
ENDBRANCH  22  23
ENDBRANCH   1  22
TORSDOF 5
ENDMDL
MODEL 9
REMARK VINA RESULT:      -8.2      1.025      1.466
REMARK  Name = 
REMARK  6 active torsions:
REMARK  status: ('A' for Active; 'I' for Inactive)
REMARK    1  A    between atoms: C_1  and  C_2
REMARK    2  A    between atoms: C_2  and  C_3
REMARK    3  A    between atoms: C_2  and  C_9
REMARK    4  A    between atoms: C_3  and  C_4
REMARK    5  A    between atoms: C_13  and  N_14
REMARK    6  A    between atoms: C_21  and  C_22
REMARK                            x       y       z     vdW  Elec       q    Type
REMARK                         _______ _______ _______ _____ _____    ______ ____
ROOT
ATOM      1  C   UNL     1       3.951   4.134  19.376  0.00  0.00    +0.000 A 
ATOM      2  C   UNL     1       3.257   3.155  20.090  0.00  0.00    +0.000 A 
ATOM      3  C   UNL     1       2.076   3.480  20.772  0.00  0.00    +0.000 A 
ATOM      4  C   UNL     1       1.567   4.787  20.756  0.00  0.00    +0.000 A 
ATOM      5  C   UNL     1       2.257   5.790  20.085  0.00  0.00    +0.000 A 
ATOM      6  C   UNL     1       3.454   5.437  19.433  0.00  0.00    +0.000 A 
ENDROOT
BRANCH   5   7
ATOM      7  N   UNL     1       1.814   7.135  19.985  0.00  0.00    +0.000 N 
ATOM      8  C   UNL     1       1.144   7.745  21.115  0.00  0.00    +0.000 C 
ATOM      9  C   UNL     1       0.898   9.140  20.692  0.00  0.00    +0.000 A 
ATOM     10  C   UNL     1       1.392   9.325  19.401  0.00  0.00    +0.000 A 
ATOM     11  C   UNL     1       1.300  10.549  18.775  0.00  0.00    +0.000 A 
ATOM     12  C   UNL     1       0.703  11.601  19.487  0.00  0.00    +0.000 A 
ATOM     13  C   UNL     1       0.205  11.410  20.793  0.00  0.00    +0.000 A 
ATOM     14  C   UNL     1       0.296  10.161  21.422  0.00  0.00    +0.000 A 
ATOM     15  C   UNL     1       1.984   8.046  18.939  0.00  0.00    +0.000 C 
ATOM     16  O   UNL     1       2.506   7.912  17.847  0.00  0.00    +0.000 OA
BRANCH  14  17
ATOM     17  C   UNL     1      -0.224   9.943  22.823  0.00  0.00    +0.000 C 
ATOM     18  F   UNL     1       0.742   9.593  23.719  0.00  0.00    +0.000 F 
ATOM     19  F   UNL     1      -0.819  11.052  23.338  0.00  0.00    +0.000 F 
ATOM     20  F   UNL     1      -1.150   8.949  22.884  0.00  0.00    +0.000 F 
ENDBRANCH  14  17
ENDBRANCH   5   7
BRANCH   1  22
ATOM     21  C   UNL     1       6.301   4.808  18.487  0.00  0.00    +0.000 C 
ATOM     22  C   UNL     1       5.138   3.789  18.475  0.00  0.00    +0.000 C 
BRANCH  22  23
ATOM     23  C   UNL     1       4.682   3.542  17.017  0.00  0.00    +0.000 C 
BRANCH  23  24
ATOM     24  C   UNL     1       5.436   4.356  16.028  0.00  0.00    +0.000 A 
ATOM     25  N   UNL     1       5.270   5.612  15.669  0.00  0.00    +0.000 NA
ATOM     26  N   UNL     1       6.183   5.850  14.660  0.00  0.00    +0.000 NA
ATOM     27  C   UNL     1       6.836   4.725  14.489  0.00  0.00    +0.000 A 
ATOM     28  O   UNL     1       6.438   3.734  15.331  0.00  0.00    +0.000 OA
ENDBRANCH  23  24
ENDBRANCH  22  23
ENDBRANCH   1  22
TORSDOF 5
ENDMDL
