MODEL 1
REMARK VINA RESULT:      -9.0      0.000      0.000
REMARK  Name = 
REMARK  12 active torsions:
REMARK  status: ('A' for Active; 'I' for Inactive)
REMARK    1  A    between atoms: C_1  and  C_2
REMARK    2  A    between atoms: C_2  and  C_3
REMARK    3  A    between atoms: C_2  and  C_10
REMARK    4  A    between atoms: C_3  and  C_4
REMARK    5  A    between atoms: N_8  and  C_9
REMARK    6  A    between atoms: C_14  and  N_15
REMARK    7  A    between atoms: C_16  and  C_18
REMARK    8  A    between atoms: C_20  and  C_21
REMARK    9  A    between atoms: C_21  and  C_22
REMARK   10  A    between atoms: C_21  and  C_23
REMARK   11  A    between atoms: C_21  and  O_24
REMARK   12  A    between atoms: C_26  and  C_27
REMARK                            x       y       z     vdW  Elec       q    Type
REMARK                         _______ _______ _______ _____ _____    ______ ____
ROOT
ATOM      1  N   UNL     1       2.018   7.100  18.832  0.00  0.00    +0.000 N 
ATOM      2  C   UNL     1       2.013   8.375  18.295  0.00  0.00    +0.000 C 
ATOM      3  O   UNL     1       2.443   8.708  17.193  0.00  0.00    +0.000 OA
ATOM      4  H   UNL     1       1.522   7.004  19.714  0.00  0.00    +0.000 HD
ENDROOT
BRANCH   1   9
ATOM      5  C   UNL     1       4.310   4.933  16.863  0.00  0.00    +0.000 A 
ATOM      6  C   UNL     1       3.696   3.682  17.021  0.00  0.00    +0.000 A 
ATOM      7  C   UNL     1       2.524   3.557  17.764  0.00  0.00    +0.000 A 
ATOM      8  C   UNL     1       1.951   4.676  18.369  0.00  0.00    +0.000 A 
ATOM      9  C   UNL     1       2.534   5.935  18.226  0.00  0.00    +0.000 A 
ATOM     10  C   UNL     1       3.693   6.058  17.448  0.00  0.00    +0.000 A 
BRANCH   5  12
ATOM     11  C   UNL     1       5.671   3.985  14.944  0.00  0.00    +0.000 C 
ATOM     12  C   UNL     1       5.611   5.035  16.063  0.00  0.00    +0.000 C 
BRANCH  12  13
ATOM     13  C   UNL     1       6.816   4.971  17.027  0.00  0.00    +0.000 C 
BRANCH  13  14
ATOM     14  C   UNL     1       7.327   6.309  17.456  0.00  0.00    +0.000 A 
ATOM     15  N   UNL     1       7.285   7.437  16.775  0.00  0.00    +0.000 NA
ATOM     16  N   UNL     1       7.930   8.407  17.508  0.00  0.00    +0.000 NA
ATOM     17  C   UNL     1       8.320   7.862  18.633  0.00  0.00    +0.000 A 
ATOM     18  N   UNL     1       7.934   6.558  18.661  0.00  0.00    +0.000 N 
ATOM     19  C   UNL     1       8.112   5.645  19.759  0.00  0.00    +0.000 C 
ENDBRANCH  13  14
ENDBRANCH  12  13
ENDBRANCH   5  12
ENDBRANCH   1   9
BRANCH   2  20
ATOM     20  C   UNL     1       1.379   9.419  19.163  0.00  0.00    +0.000 A 
ATOM     21  C   UNL     1       1.189  10.692  18.639  0.00  0.00    +0.000 A 
ATOM     22  C   UNL     1       0.578  11.676  19.418  0.00  0.00    +0.000 A 
ATOM     23  C   UNL     1       0.166  11.303  20.709  0.00  0.00    +0.000 A 
ATOM     24  C   UNL     1       0.391  10.002  21.182  0.00  0.00    +0.000 A 
ATOM     25  N   UNL     1       1.005   9.049  20.415  0.00  0.00    +0.000 NA
BRANCH  24  26
ATOM     26  C   UNL     1      -0.069   9.625  22.587  0.00  0.00    +0.000 C 
ATOM     27  F   UNL     1       0.954   9.305  23.433  0.00  0.00    +0.000 F 
ATOM     28  F   UNL     1      -0.754  10.629  23.206  0.00  0.00    +0.000 F 
ATOM     29  F   UNL     1      -0.901   8.543  22.597  0.00  0.00    +0.000 F 
ENDBRANCH  24  26
BRANCH  22  30
ATOM     30  C   UNL     1       0.304  13.073  18.872  0.00  0.00    +0.000 C 
ATOM     31  C   UNL     1      -0.443  13.996  19.849  0.00  0.00    +0.000 C 
ATOM     32  C   UNL     1       1.621  13.729  18.446  0.00  0.00    +0.000 C 
BRANCH  30  33
ATOM     33  O   UNL     1      -0.509  12.953  17.700  0.00  0.00    +0.000 OA
ATOM     34  H   UNL     1      -0.301  13.706  17.121  0.00  0.00    +0.000 HD
ENDBRANCH  30  33
ENDBRANCH  22  30
ENDBRANCH   2  20
TORSDOF 8
ENDMDL
MODEL 2
REMARK VINA RESULT:      -9.0      3.597      9.210
REMARK  Name = 
REMARK  12 active torsions:
REMARK  status: ('A' for Active; 'I' for Inactive)
REMARK    1  A    between atoms: C_1  and  C_2
REMARK    2  A    between atoms: C_2  and  C_3
REMARK    3  A    between atoms: C_2  and  C_10
REMARK    4  A    between atoms: C_3  and  C_4
REMARK    5  A    between atoms: N_8  and  C_9
REMARK    6  A    between atoms: C_14  and  N_15
REMARK    7  A    between atoms: C_16  and  C_18
REMARK    8  A    between atoms: C_20  and  C_21
REMARK    9  A    between atoms: C_21  and  C_22
REMARK   10  A    between atoms: C_21  and  C_23
REMARK   11  A    between atoms: C_21  and  O_24
REMARK   12  A    between atoms: C_26  and  C_27
REMARK                            x       y       z     vdW  Elec       q    Type
REMARK                         _______ _______ _______ _____ _____    ______ ____
ROOT
ATOM      1  N   UNL     1       2.044   8.734  17.891  0.00  0.00    +0.000 N 
ATOM      2  C   UNL     1       2.265   7.722  18.809  0.00  0.00    +0.000 C 
ATOM      3  O   UNL     1       2.034   7.763  20.016  0.00  0.00    +0.000 OA
ATOM      4  H   UNL     1       2.201   8.475  16.921  0.00  0.00    +0.000 HD
ENDROOT
BRANCH   1   9
ATOM      5  C   UNL     1      -0.425  11.366  18.787  0.00  0.00    +0.000 A 
ATOM      6  C   UNL     1       0.390  12.507  18.788  0.00  0.00    +0.000 A 
ATOM      7  C   UNL     1       1.745  12.410  18.483  0.00  0.00    +0.000 A 
ATOM      8  C   UNL     1       2.312  11.171  18.181  0.00  0.00    +0.000 A 
ATOM      9  C   UNL     1       1.527  10.017  18.165  0.00  0.00    +0.000 A 
ATOM     10  C   UNL     1       0.157  10.129  18.439  0.00  0.00    +0.000 A 
BRANCH   5  12
ATOM     11  C   UNL     1      -2.806  11.405  17.909  0.00  0.00    +0.000 C 
ATOM     12  C   UNL     1      -1.906  11.500  19.151  0.00  0.00    +0.000 C 
BRANCH  12  13
ATOM     13  C   UNL     1      -2.122  12.794  19.965  0.00  0.00    +0.000 C 
BRANCH  13  14
ATOM     14  C   UNL     1      -2.859  12.592  21.251  0.00  0.00    +0.000 A 
ATOM     15  N   UNL     1      -4.158  12.693  21.452  0.00  0.00    +0.000 NA
ATOM     16  N   UNL     1      -4.402  12.500  22.792  0.00  0.00    +0.000 NA
ATOM     17  C   UNL     1      -3.256  12.249  23.373  0.00  0.00    +0.000 A 
ATOM     18  N   UNL     1      -2.265  12.262  22.442  0.00  0.00    +0.000 N 
ATOM     19  C   UNL     1      -0.879  11.958  22.676  0.00  0.00    +0.000 C 
ENDBRANCH  13  14
ENDBRANCH  12  13
ENDBRANCH   5  12
ENDBRANCH   1   9
BRANCH   2  20
ATOM     20  C   UNL     1       2.810   6.454  18.226  0.00  0.00    +0.000 A 
ATOM     21  C   UNL     1       3.947   6.525  17.430  0.00  0.00    +0.000 A 
ATOM     22  C   UNL     1       4.489   5.356  16.895  0.00  0.00    +0.000 A 
ATOM     23  C   UNL     1       3.848   4.148  17.219  0.00  0.00    +0.000 A 
ATOM     24  C   UNL     1       2.701   4.143  18.025  0.00  0.00    +0.000 A 
ATOM     25  N   UNL     1       2.167   5.297  18.532  0.00  0.00    +0.000 NA
BRANCH  24  26
ATOM     26  C   UNL     1       2.026   2.816  18.363  0.00  0.00    +0.000 C 
ATOM     27  F   UNL     1       2.322   2.352  19.612  0.00  0.00    +0.000 F 
ATOM     28  F   UNL     1       0.666   2.888  18.313  0.00  0.00    +0.000 F 
ATOM     29  F   UNL     1       2.380   1.813  17.508  0.00  0.00    +0.000 F 
ENDBRANCH  24  26
BRANCH  22  30
ATOM     30  C   UNL     1       5.762   5.375  16.054  0.00  0.00    +0.000 C 
ATOM     31  C   UNL     1       7.054   5.544  16.870  0.00  0.00    +0.000 C 
ATOM     32  C   UNL     1       5.844   4.098  15.212  0.00  0.00    +0.000 C 
BRANCH  30  33
ATOM     33  O   UNL     1       5.690   6.479  15.146  0.00  0.00    +0.000 OA
ATOM     34  H   UNL     1       6.541   6.949  15.188  0.00  0.00    +0.000 HD
ENDBRANCH  30  33
ENDBRANCH  22  30
ENDBRANCH   2  20
TORSDOF 8
ENDMDL
MODEL 3
REMARK VINA RESULT:      -8.9      3.883      9.140
REMARK  Name = 
REMARK  12 active torsions:
REMARK  status: ('A' for Active; 'I' for Inactive)
REMARK    1  A    between atoms: C_1  and  C_2
REMARK    2  A    between atoms: C_2  and  C_3
REMARK    3  A    between atoms: C_2  and  C_10
REMARK    4  A    between atoms: C_3  and  C_4
REMARK    5  A    between atoms: N_8  and  C_9
REMARK    6  A    between atoms: C_14  and  N_15
REMARK    7  A    between atoms: C_16  and  C_18
REMARK    8  A    between atoms: C_20  and  C_21
REMARK    9  A    between atoms: C_21  and  C_22
REMARK   10  A    between atoms: C_21  and  C_23
REMARK   11  A    between atoms: C_21  and  O_24
REMARK   12  A    between atoms: C_26  and  C_27
REMARK                            x       y       z     vdW  Elec       q    Type
REMARK                         _______ _______ _______ _____ _____    ______ ____
ROOT
ATOM      1  N   UNL     1       2.099   7.514  20.133  0.00  0.00    +0.000 N 
ATOM      2  C   UNL     1       2.549   7.291  18.843  0.00  0.00    +0.000 C 
ATOM      3  O   UNL     1       2.359   8.010  17.865  0.00  0.00    +0.000 OA
ATOM      4  H   UNL     1       2.447   6.860  20.828  0.00  0.00    +0.000 HD
ENDROOT
BRANCH   1   9
ATOM      5  C   UNL     1       0.018  10.591  19.958  0.00  0.00    +0.000 A 
ATOM      6  C   UNL     1      -0.300  10.775  21.312  0.00  0.00    +0.000 A 
ATOM      7  C   UNL     1       0.180   9.895  22.278  0.00  0.00    +0.000 A 
ATOM      8  C   UNL     1       0.978   8.810  21.909  0.00  0.00    +0.000 A 
ATOM      9  C   UNL     1       1.317   8.603  20.572  0.00  0.00    +0.000 A 
ATOM     10  C   UNL     1       0.858   9.513  19.610  0.00  0.00    +0.000 A 
BRANCH   5  12
ATOM     11  C   UNL     1       0.261  12.867  18.864  0.00  0.00    +0.000 C 
ATOM     12  C   UNL     1      -0.546  11.559  18.916  0.00  0.00    +0.000 C 
BRANCH  12  13
ATOM     13  C   UNL     1      -2.051  11.780  19.177  0.00  0.00    +0.000 C 
BRANCH  13  14
ATOM     14  C   UNL     1      -2.920  11.543  17.983  0.00  0.00    +0.000 A 
ATOM     15  N   UNL     1      -2.539  11.155  16.782  0.00  0.00    +0.000 NA
ATOM     16  N   UNL     1      -3.648  11.132  15.966  0.00  0.00    +0.000 NA
ATOM     17  C   UNL     1      -4.684  11.469  16.693  0.00  0.00    +0.000 A 
ATOM     18  N   UNL     1      -4.283  11.702  17.971  0.00  0.00    +0.000 N 
ATOM     19  C   UNL     1      -5.138  12.024  19.082  0.00  0.00    +0.000 C 
ENDBRANCH  13  14
ENDBRANCH  12  13
ENDBRANCH   5  12
ENDBRANCH   1   9
BRANCH   2  20
ATOM     20  C   UNL     1       3.377   6.054  18.674  0.00  0.00    +0.000 A 
ATOM     21  C   UNL     1       4.607   6.160  18.036  0.00  0.00    +0.000 A 
ATOM     22  C   UNL     1       5.409   5.028  17.887  0.00  0.00    +0.000 A 
ATOM     23  C   UNL     1       4.919   3.824  18.423  0.00  0.00    +0.000 A 
ATOM     24  C   UNL     1       3.667   3.781  19.053  0.00  0.00    +0.000 A 
ATOM     25  N   UNL     1       2.881   4.894  19.179  0.00  0.00    +0.000 NA
BRANCH  24  26
ATOM     26  C   UNL     1       3.161   2.460  19.627  0.00  0.00    +0.000 C 
ATOM     27  F   UNL     1       3.466   1.374  18.858  0.00  0.00    +0.000 F 
ATOM     28  F   UNL     1       3.676   2.190  20.860  0.00  0.00    +0.000 F 
ATOM     29  F   UNL     1       1.805   2.434  19.774  0.00  0.00    +0.000 F 
ENDBRANCH  24  26
BRANCH  22  30
ATOM     30  C   UNL     1       6.786   5.102  17.237  0.00  0.00    +0.000 C 
ATOM     31  C   UNL     1       6.823   4.613  15.780  0.00  0.00    +0.000 C 
ATOM     32  C   UNL     1       7.318   6.536  17.315  0.00  0.00    +0.000 C 
BRANCH  30  33
ATOM     33  O   UNL     1       7.687   4.274  17.982  0.00  0.00    +0.000 OA
ATOM     34  H   UNL     1       7.985   4.787  18.753  0.00  0.00    +0.000 HD
ENDBRANCH  30  33
ENDBRANCH  22  30
ENDBRANCH   2  20
TORSDOF 8
ENDMDL
MODEL 4
REMARK VINA RESULT:      -8.8      4.342      9.586
REMARK  Name = 
REMARK  12 active torsions:
REMARK  status: ('A' for Active; 'I' for Inactive)
REMARK    1  A    between atoms: C_1  and  C_2
REMARK    2  A    between atoms: C_2  and  C_3
REMARK    3  A    between atoms: C_2  and  C_10
REMARK    4  A    between atoms: C_3  and  C_4
REMARK    5  A    between atoms: N_8  and  C_9
REMARK    6  A    between atoms: C_14  and  N_15
REMARK    7  A    between atoms: C_16  and  C_18
REMARK    8  A    between atoms: C_20  and  C_21
REMARK    9  A    between atoms: C_21  and  C_22
REMARK   10  A    between atoms: C_21  and  C_23
REMARK   11  A    between atoms: C_21  and  O_24
REMARK   12  A    between atoms: C_26  and  C_27
REMARK                            x       y       z     vdW  Elec       q    Type
REMARK                         _______ _______ _______ _____ _____    ______ ____
ROOT
ATOM      1  N   UNL     1       1.827   8.350  17.912  0.00  0.00    +0.000 N 
ATOM      2  C   UNL     1       2.289   7.497  18.899  0.00  0.00    +0.000 C 
ATOM      3  O   UNL     1       2.059   7.577  20.104  0.00  0.00    +0.000 OA
ATOM      4  H   UNL     1       2.039   8.060  16.961  0.00  0.00    +0.000 HD
ENDROOT
BRANCH   1   9
ATOM      5  C   UNL     1      -1.232  10.463  17.959  0.00  0.00    +0.000 A 
ATOM      6  C   UNL     1      -0.722  11.660  18.482  0.00  0.00    +0.000 A 
ATOM      7  C   UNL     1       0.628  11.772  18.806  0.00  0.00    +0.000 A 
ATOM      8  C   UNL     1       1.489  10.689  18.622  0.00  0.00    +0.000 A 
ATOM      9  C   UNL     1       1.014   9.487  18.098  0.00  0.00    +0.000 A 
ATOM     10  C   UNL     1      -0.339   9.394  17.743  0.00  0.00    +0.000 A 
BRANCH   5  12
ATOM     11  C   UNL     1      -2.962   9.831  16.213  0.00  0.00    +0.000 C 
ATOM     12  C   UNL     1      -2.725  10.360  17.637  0.00  0.00    +0.000 C 
BRANCH  12  13
ATOM     13  C   UNL     1      -3.405  11.720  17.904  0.00  0.00    +0.000 C 
BRANCH  13  14
ATOM     14  C   UNL     1      -4.776  11.613  18.493  0.00  0.00    +0.000 A 
ATOM     15  N   UNL     1      -5.825  11.007  17.971  0.00  0.00    +0.000 NA
ATOM     16  N   UNL     1      -6.899  11.212  18.806  0.00  0.00    +0.000 NA
ATOM     17  C   UNL     1      -6.477  11.904  19.835  0.00  0.00    +0.000 A 
ATOM     18  N   UNL     1      -5.146  12.149  19.700  0.00  0.00    +0.000 N 
ATOM     19  C   UNL     1      -4.306  12.815  20.658  0.00  0.00    +0.000 C 
ENDBRANCH  13  14
ENDBRANCH  12  13
ENDBRANCH   5  12
ENDBRANCH   1   9
BRANCH   2  20
ATOM     20  C   UNL     1       3.125   6.357  18.403  0.00  0.00    +0.000 A 
ATOM     21  C   UNL     1       4.363   6.638  17.837  0.00  0.00    +0.000 A 
ATOM     22  C   UNL     1       5.172   5.593  17.389  0.00  0.00    +0.000 A 
ATOM     23  C   UNL     1       4.680   4.287  17.561  0.00  0.00    +0.000 A 
ATOM     24  C   UNL     1       3.421   4.069  18.136  0.00  0.00    +0.000 A 
ATOM     25  N   UNL     1       2.628   5.102  18.557  0.00  0.00    +0.000 NA
BRANCH  24  26
ATOM     26  C   UNL     1       2.914   2.640  18.313  0.00  0.00    +0.000 C 
ATOM     27  F   UNL     1       2.014   2.498  19.330  0.00  0.00    +0.000 F 
ATOM     28  F   UNL     1       2.286   2.162  17.201  0.00  0.00    +0.000 F 
ATOM     29  F   UNL     1       3.916   1.756  18.587  0.00  0.00    +0.000 F 
ENDBRANCH  24  26
BRANCH  22  30
ATOM     30  C   UNL     1       6.557   5.847  16.804  0.00  0.00    +0.000 C 
ATOM     31  C   UNL     1       7.291   7.049  17.420  0.00  0.00    +0.000 C 
ATOM     32  C   UNL     1       7.417   4.587  16.947  0.00  0.00    +0.000 C 
BRANCH  30  33
ATOM     33  O   UNL     1       6.419   6.109  15.404  0.00  0.00    +0.000 OA
ATOM     34  H   UNL     1       5.750   5.494  15.055  0.00  0.00    +0.000 HD
ENDBRANCH  30  33
ENDBRANCH  22  30
ENDBRANCH   2  20
TORSDOF 8
ENDMDL
MODEL 5
REMARK VINA RESULT:      -8.8      4.386      9.448
REMARK  Name = 
REMARK  12 active torsions:
REMARK  status: ('A' for Active; 'I' for Inactive)
REMARK    1  A    between atoms: C_1  and  C_2
REMARK    2  A    between atoms: C_2  and  C_3
REMARK    3  A    between atoms: C_2  and  C_10
REMARK    4  A    between atoms: C_3  and  C_4
REMARK    5  A    between atoms: N_8  and  C_9
REMARK    6  A    between atoms: C_14  and  N_15
REMARK    7  A    between atoms: C_16  and  C_18
REMARK    8  A    between atoms: C_20  and  C_21
REMARK    9  A    between atoms: C_21  and  C_22
REMARK   10  A    between atoms: C_21  and  C_23
REMARK   11  A    between atoms: C_21  and  O_24
REMARK   12  A    between atoms: C_26  and  C_27
REMARK                            x       y       z     vdW  Elec       q    Type
REMARK                         _______ _______ _______ _____ _____    ______ ____
ROOT
ATOM      1  N   UNL     1       2.223   7.551  20.007  0.00  0.00    +0.000 N 
ATOM      2  C   UNL     1       2.525   7.265  18.688  0.00  0.00    +0.000 C 
ATOM      3  O   UNL     1       2.103   7.852  17.694  0.00  0.00    +0.000 OA
ATOM      4  H   UNL     1       2.753   7.021  20.694  0.00  0.00    +0.000 HD
ENDROOT
BRANCH   1   9
ATOM      5  C   UNL     1       0.083  10.591  19.936  0.00  0.00    +0.000 A 
ATOM      6  C   UNL     1      -0.416  10.597  21.247  0.00  0.00    +0.000 A 
ATOM      7  C   UNL     1      -0.038   9.609  22.153  0.00  0.00    +0.000 A 
ATOM      8  C   UNL     1       0.836   8.593  21.764  0.00  0.00    +0.000 A 
ATOM      9  C   UNL     1       1.355   8.563  20.469  0.00  0.00    +0.000 A 
ATOM     10  C   UNL     1       0.997   9.580  19.574  0.00  0.00    +0.000 A 
BRANCH   5  12
ATOM     11  C   UNL     1       0.391  12.991  19.174  0.00  0.00    +0.000 C 
ATOM     12  C   UNL     1      -0.371  11.675  18.955  0.00  0.00    +0.000 C 
BRANCH  12  13
ATOM     13  C   UNL     1      -1.904  11.836  19.037  0.00  0.00    +0.000 C 
BRANCH  13  14
ATOM     14  C   UNL     1      -2.630  11.418  17.797  0.00  0.00    +0.000 A 
ATOM     15  N   UNL     1      -2.107  10.915  16.697  0.00  0.00    +0.000 NA
ATOM     16  N   UNL     1      -3.118  10.741  15.780  0.00  0.00    +0.000 NA
ATOM     17  C   UNL     1      -4.239  11.106  16.351  0.00  0.00    +0.000 A 
ATOM     18  N   UNL     1      -3.988  11.506  17.626  0.00  0.00    +0.000 N 
ATOM     19  C   UNL     1      -4.970  11.909  18.597  0.00  0.00    +0.000 C 
ENDBRANCH  13  14
ENDBRANCH  12  13
ENDBRANCH   5  12
ENDBRANCH   1   9
BRANCH   2  20
ATOM     20  C   UNL     1       3.496   6.140  18.497  0.00  0.00    +0.000 A 
ATOM     21  C   UNL     1       3.264   4.942  19.164  0.00  0.00    +0.000 A 
ATOM     22  C   UNL     1       4.139   3.870  18.984  0.00  0.00    +0.000 A 
ATOM     23  C   UNL     1       5.216   4.067  18.102  0.00  0.00    +0.000 A 
ATOM     24  C   UNL     1       5.398   5.301  17.462  0.00  0.00    +0.000 A 
ATOM     25  N   UNL     1       4.543   6.351  17.657  0.00  0.00    +0.000 NA
BRANCH  24  26
ATOM     26  C   UNL     1       6.576   5.485  16.508  0.00  0.00    +0.000 C 
ATOM     27  F   UNL     1       6.204   5.708  15.213  0.00  0.00    +0.000 F 
ATOM     28  F   UNL     1       7.370   6.540  16.846  0.00  0.00    +0.000 F 
ATOM     29  F   UNL     1       7.397   4.396  16.468  0.00  0.00    +0.000 F 
ENDBRANCH  24  26
BRANCH  22  30
ATOM     30  C   UNL     1       3.902   2.522  19.655  0.00  0.00    +0.000 C 
ATOM     31  C   UNL     1       2.955   2.578  20.865  0.00  0.00    +0.000 C 
ATOM     32  C   UNL     1       3.370   1.519  18.627  0.00  0.00    +0.000 C 
BRANCH  30  33
ATOM     33  O   UNL     1       5.158   2.021  20.126  0.00  0.00    +0.000 OA
ATOM     34  H   UNL     1       5.537   1.470  19.420  0.00  0.00    +0.000 HD
ENDBRANCH  30  33
ENDBRANCH  22  30
ENDBRANCH   2  20
TORSDOF 8
ENDMDL
MODEL 6
REMARK VINA RESULT:      -8.8      4.341      9.175
REMARK  Name = 
REMARK  12 active torsions:
REMARK  status: ('A' for Active; 'I' for Inactive)
REMARK    1  A    between atoms: C_1  and  C_2
REMARK    2  A    between atoms: C_2  and  C_3
REMARK    3  A    between atoms: C_2  and  C_10
REMARK    4  A    between atoms: C_3  and  C_4
REMARK    5  A    between atoms: N_8  and  C_9
REMARK    6  A    between atoms: C_14  and  N_15
REMARK    7  A    between atoms: C_16  and  C_18
REMARK    8  A    between atoms: C_20  and  C_21
REMARK    9  A    between atoms: C_21  and  C_22
REMARK   10  A    between atoms: C_21  and  C_23
REMARK   11  A    between atoms: C_21  and  O_24
REMARK   12  A    between atoms: C_26  and  C_27
REMARK                            x       y       z     vdW  Elec       q    Type
REMARK                         _______ _______ _______ _____ _____    ______ ____
ROOT
ATOM      1  N   UNL     1       2.130   7.624  19.842  0.00  0.00    +0.000 N 
ATOM      2  C   UNL     1       2.006   6.296  20.212  0.00  0.00    +0.000 C 
ATOM      3  O   UNL     1       1.168   5.823  20.977  0.00  0.00    +0.000 OA
ATOM      4  H   UNL     1       2.820   7.805  19.118  0.00  0.00    +0.000 HD
ENDROOT
BRANCH   1   9
ATOM      5  C   UNL     1      -0.296  10.438  19.695  0.00  0.00    +0.000 A 
ATOM      6  C   UNL     1      -0.356  10.809  21.047  0.00  0.00    +0.000 A 
ATOM      7  C   UNL     1       0.410  10.141  21.999  0.00  0.00    +0.000 A 
ATOM      8  C   UNL     1       1.241   9.086  21.621  0.00  0.00    +0.000 A 
ATOM      9  C   UNL     1       1.328   8.696  20.284  0.00  0.00    +0.000 A 
ATOM     10  C   UNL     1       0.580   9.396  19.327  0.00  0.00    +0.000 A 
BRANCH   5  12
ATOM     11  C   UNL     1      -1.521  12.591  19.149  0.00  0.00    +0.000 C 
ATOM     12  C   UNL     1      -1.169  11.172  18.675  0.00  0.00    +0.000 C 
BRANCH  12  13
ATOM     13  C   UNL     1      -2.409  10.314  18.343  0.00  0.00    +0.000 C 
BRANCH  13  14
ATOM     14  C   UNL     1      -2.799  10.337  16.899  0.00  0.00    +0.000 A 
ATOM     15  N   UNL     1      -2.192   9.732  15.897  0.00  0.00    +0.000 NA
ATOM     16  N   UNL     1      -2.838  10.076  14.732  0.00  0.00    +0.000 NA
ATOM     17  C   UNL     1      -3.844  10.853  15.049  0.00  0.00    +0.000 A 
ATOM     18  N   UNL     1      -3.881  11.016  16.398  0.00  0.00    +0.000 N 
ATOM     19  C   UNL     1      -4.881  11.739  17.137  0.00  0.00    +0.000 C 
ENDBRANCH  13  14
ENDBRANCH  12  13
ENDBRANCH   5  12
ENDBRANCH   1   9
BRANCH   2  20
ATOM     20  C   UNL     1       2.992   5.370  19.568  0.00  0.00    +0.000 A 
ATOM     21  C   UNL     1       4.287   5.827  19.350  0.00  0.00    +0.000 A 
ATOM     22  C   UNL     1       5.232   4.977  18.775  0.00  0.00    +0.000 A 
ATOM     23  C   UNL     1       4.810   3.673  18.461  0.00  0.00    +0.000 A 
ATOM     24  C   UNL     1       3.488   3.274  18.701  0.00  0.00    +0.000 A 
ATOM     25  N   UNL     1       2.564   4.120  19.252  0.00  0.00    +0.000 NA
BRANCH  24  26
ATOM     26  C   UNL     1       3.058   1.851  18.353  0.00  0.00    +0.000 C 
ATOM     27  F   UNL     1       2.067   1.364  19.155  0.00  0.00    +0.000 F 
ATOM     28  F   UNL     1       2.585   1.740  17.079  0.00  0.00    +0.000 F 
ATOM     29  F   UNL     1       4.081   0.953  18.452  0.00  0.00    +0.000 F 
ENDBRANCH  24  26
BRANCH  22  30
ATOM     30  C   UNL     1       6.677   5.414  18.559  0.00  0.00    +0.000 C 
ATOM     31  C   UNL     1       7.488   4.482  17.646  0.00  0.00    +0.000 C 
ATOM     32  C   UNL     1       6.706   6.840  18.000  0.00  0.00    +0.000 C 
BRANCH  30  33
ATOM     33  O   UNL     1       7.338   5.442  19.828  0.00  0.00    +0.000 OA
ATOM     34  H   UNL     1       6.875   6.092  20.385  0.00  0.00    +0.000 HD
ENDBRANCH  30  33
ENDBRANCH  22  30
ENDBRANCH   2  20
TORSDOF 8
ENDMDL
MODEL 7
REMARK VINA RESULT:      -8.8      4.829     10.069
REMARK  Name = 
REMARK  12 active torsions:
REMARK  status: ('A' for Active; 'I' for Inactive)
REMARK    1  A    between atoms: C_1  and  C_2
REMARK    2  A    between atoms: C_2  and  C_3
REMARK    3  A    between atoms: C_2  and  C_10
REMARK    4  A    between atoms: C_3  and  C_4
REMARK    5  A    between atoms: N_8  and  C_9
REMARK    6  A    between atoms: C_14  and  N_15
REMARK    7  A    between atoms: C_16  and  C_18
REMARK    8  A    between atoms: C_20  and  C_21
REMARK    9  A    between atoms: C_21  and  C_22
REMARK   10  A    between atoms: C_21  and  C_23
REMARK   11  A    between atoms: C_21  and  O_24
REMARK   12  A    between atoms: C_26  and  C_27
REMARK                            x       y       z     vdW  Elec       q    Type
REMARK                         _______ _______ _______ _____ _____    ______ ____
ROOT
ATOM      1  N   UNL     1       1.763   8.639  18.106  0.00  0.00    +0.000 N 
ATOM      2  C   UNL     1       2.154   7.738  19.081  0.00  0.00    +0.000 C 
ATOM      3  O   UNL     1       1.865   7.777  20.275  0.00  0.00    +0.000 OA
ATOM      4  H   UNL     1       2.015   8.380  17.156  0.00  0.00    +0.000 HD
ENDROOT
BRANCH   1   9
ATOM      5  C   UNL     1      -1.246  10.823  18.105  0.00  0.00    +0.000 A 
ATOM      6  C   UNL     1      -0.728  11.992  18.683  0.00  0.00    +0.000 A 
ATOM      7  C   UNL     1       0.611  12.062  19.059  0.00  0.00    +0.000 A 
ATOM      8  C   UNL     1       1.453  10.964  18.875  0.00  0.00    +0.000 A 
ATOM      9  C   UNL     1       0.970   9.790  18.297  0.00  0.00    +0.000 A 
ATOM     10  C   UNL     1      -0.370   9.740  17.890  0.00  0.00    +0.000 A 
BRANCH   5  12
ATOM     11  C   UNL     1      -2.927  10.882  16.206  0.00  0.00    +0.000 C 
ATOM     12  C   UNL     1      -2.728  10.767  17.725  0.00  0.00    +0.000 C 
BRANCH  12  13
ATOM     13  C   UNL     1      -3.507  11.832  18.526  0.00  0.00    +0.000 C 
BRANCH  13  14
ATOM     14  C   UNL     1      -4.968  11.543  18.668  0.00  0.00    +0.000 A 
ATOM     15  N   UNL     1      -5.611  10.462  18.271  0.00  0.00    +0.000 NA
ATOM     16  N   UNL     1      -6.951  10.639  18.531  0.00  0.00    +0.000 NA
ATOM     17  C   UNL     1      -7.093  11.804  19.111  0.00  0.00    +0.000 A 
ATOM     18  N   UNL     1      -5.874  12.392  19.250  0.00  0.00    +0.000 N 
ATOM     19  C   UNL     1      -5.607  13.644  19.906  0.00  0.00    +0.000 C 
ENDBRANCH  13  14
ENDBRANCH  12  13
ENDBRANCH   5  12
ENDBRANCH   1   9
BRANCH   2  20
ATOM     20  C   UNL     1       2.985   6.595  18.581  0.00  0.00    +0.000 A 
ATOM     21  C   UNL     1       2.916   5.380  19.252  0.00  0.00    +0.000 A 
ATOM     22  C   UNL     1       3.660   4.293  18.792  0.00  0.00    +0.000 A 
ATOM     23  C   UNL     1       4.438   4.495  17.639  0.00  0.00    +0.000 A 
ATOM     24  C   UNL     1       4.469   5.747  17.009  0.00  0.00    +0.000 A 
ATOM     25  N   UNL     1       3.747   6.811  17.477  0.00  0.00    +0.000 NA
BRANCH  24  26
ATOM     26  C   UNL     1       5.321   5.936  15.756  0.00  0.00    +0.000 C 
ATOM     27  F   UNL     1       5.289   4.869  14.905  0.00  0.00    +0.000 F 
ATOM     28  F   UNL     1       4.932   7.009  15.011  0.00  0.00    +0.000 F 
ATOM     29  F   UNL     1       6.640   6.135  16.042  0.00  0.00    +0.000 F 
ENDBRANCH  24  26
BRANCH  22  30
ATOM     30  C   UNL     1       3.582   2.927  19.466  0.00  0.00    +0.000 C 
ATOM     31  C   UNL     1       2.783   2.916  20.779  0.00  0.00    +0.000 C 
ATOM     32  C   UNL     1       2.990   1.905  18.491  0.00  0.00    +0.000 C 
BRANCH  30  33
ATOM     33  O   UNL     1       4.911   2.496  19.777  0.00  0.00    +0.000 OA
ATOM     34  H   UNL     1       5.476   2.714  19.015  0.00  0.00    +0.000 HD
ENDBRANCH  30  33
ENDBRANCH  22  30
ENDBRANCH   2  20
TORSDOF 8
ENDMDL
MODEL 8
REMARK VINA RESULT:      -8.8      3.662      9.193
REMARK  Name = 
REMARK  12 active torsions:
REMARK  status: ('A' for Active; 'I' for Inactive)
REMARK    1  A    between atoms: C_1  and  C_2
REMARK    2  A    between atoms: C_2  and  C_3
REMARK    3  A    between atoms: C_2  and  C_10
REMARK    4  A    between atoms: C_3  and  C_4
REMARK    5  A    between atoms: N_8  and  C_9
REMARK    6  A    between atoms: C_14  and  N_15
REMARK    7  A    between atoms: C_16  and  C_18
REMARK    8  A    between atoms: C_20  and  C_21
REMARK    9  A    between atoms: C_21  and  C_22
REMARK   10  A    between atoms: C_21  and  C_23
REMARK   11  A    between atoms: C_21  and  O_24
REMARK   12  A    between atoms: C_26  and  C_27
REMARK                            x       y       z     vdW  Elec       q    Type
REMARK                         _______ _______ _______ _____ _____    ______ ____
ROOT
ATOM      1  N   UNL     1       2.091   8.601  17.871  0.00  0.00    +0.000 N 
ATOM      2  C   UNL     1       2.345   7.628  18.823  0.00  0.00    +0.000 C 
ATOM      3  O   UNL     1       2.127   7.708  20.029  0.00  0.00    +0.000 OA
ATOM      4  H   UNL     1       2.243   8.310  16.909  0.00  0.00    +0.000 HD
ENDROOT
BRANCH   1   9
ATOM      5  C   UNL     1      -0.439  11.214  18.642  0.00  0.00    +0.000 A 
ATOM      6  C   UNL     1       0.360  12.367  18.646  0.00  0.00    +0.000 A 
ATOM      7  C   UNL     1       1.725  12.282  18.383  0.00  0.00    +0.000 A 
ATOM      8  C   UNL     1       2.318  11.046  18.122  0.00  0.00    +0.000 A 
ATOM      9  C   UNL     1       1.549   9.882  18.104  0.00  0.00    +0.000 A 
ATOM     10  C   UNL     1       0.170   9.980  18.335  0.00  0.00    +0.000 A 
BRANCH   5  12
ATOM     11  C   UNL     1      -2.791  11.223  17.690  0.00  0.00    +0.000 C 
ATOM     12  C   UNL     1      -1.932  11.334  18.959  0.00  0.00    +0.000 C 
BRANCH  12  13
ATOM     13  C   UNL     1      -2.187  12.630  19.759  0.00  0.00    +0.000 C 
BRANCH  13  14
ATOM     14  C   UNL     1      -2.197  12.440  21.243  0.00  0.00    +0.000 A 
ATOM     15  N   UNL     1      -1.163  12.208  22.026  0.00  0.00    +0.000 NA
ATOM     16  N   UNL     1      -1.627  12.027  23.309  0.00  0.00    +0.000 NA
ATOM     17  C   UNL     1      -2.927  12.187  23.288  0.00  0.00    +0.000 A 
ATOM     18  N   UNL     1      -3.325  12.482  22.022  0.00  0.00    +0.000 N 
ATOM     19  C   UNL     1      -4.666  12.800  21.608  0.00  0.00    +0.000 C 
ENDBRANCH  13  14
ENDBRANCH  12  13
ENDBRANCH   5  12
ENDBRANCH   1   9
BRANCH   2  20
ATOM     20  C   UNL     1       2.911   6.352  18.279  0.00  0.00    +0.000 A 
ATOM     21  C   UNL     1       4.133   6.396  17.618  0.00  0.00    +0.000 A 
ATOM     22  C   UNL     1       4.695   5.218  17.124  0.00  0.00    +0.000 A 
ATOM     23  C   UNL     1       3.982   4.028  17.350  0.00  0.00    +0.000 A 
ATOM     24  C   UNL     1       2.751   4.050  18.021  0.00  0.00    +0.000 A 
ATOM     25  N   UNL     1       2.201   5.213  18.487  0.00  0.00    +0.000 NA
BRANCH  24  26
ATOM     26  C   UNL     1       2.000   2.741  18.253  0.00  0.00    +0.000 C 
ATOM     27  F   UNL     1       2.275   1.778  17.325  0.00  0.00    +0.000 F 
ATOM     28  F   UNL     1       2.284   2.177  19.461  0.00  0.00    +0.000 F 
ATOM     29  F   UNL     1       0.645   2.899  18.223  0.00  0.00    +0.000 F 
ENDBRANCH  24  26
BRANCH  22  30
ATOM     30  C   UNL     1       6.055   5.208  16.434  0.00  0.00    +0.000 C 
ATOM     31  C   UNL     1       5.982   5.211  14.898  0.00  0.00    +0.000 C 
ATOM     32  C   UNL     1       6.887   6.400  16.915  0.00  0.00    +0.000 C 
BRANCH  30  33
ATOM     33  O   UNL     1       6.752   4.019  16.820  0.00  0.00    +0.000 OA
ATOM     34  H   UNL     1       7.065   3.585  16.007  0.00  0.00    +0.000 HD
ENDBRANCH  30  33
ENDBRANCH  22  30
ENDBRANCH   2  20
TORSDOF 8
ENDMDL
MODEL 9
REMARK VINA RESULT:      -8.8      3.651      9.054
REMARK  Name = 
REMARK  12 active torsions:
REMARK  status: ('A' for Active; 'I' for Inactive)
REMARK    1  A    between atoms: C_1  and  C_2
REMARK    2  A    between atoms: C_2  and  C_3
REMARK    3  A    between atoms: C_2  and  C_10
REMARK    4  A    between atoms: C_3  and  C_4
REMARK    5  A    between atoms: N_8  and  C_9
REMARK    6  A    between atoms: C_14  and  N_15
REMARK    7  A    between atoms: C_16  and  C_18
REMARK    8  A    between atoms: C_20  and  C_21
REMARK    9  A    between atoms: C_21  and  C_22
REMARK   10  A    between atoms: C_21  and  C_23
REMARK   11  A    between atoms: C_21  and  O_24
REMARK   12  A    between atoms: C_26  and  C_27
REMARK                            x       y       z     vdW  Elec       q    Type
REMARK                         _______ _______ _______ _____ _____    ______ ____
ROOT
ATOM      1  N   UNL     1       1.332   7.740  20.923  0.00  0.00    +0.000 N 
ATOM      2  C   UNL     1       1.938   7.548  19.694  0.00  0.00    +0.000 C 
ATOM      3  O   UNL     1       1.989   8.354  18.767  0.00  0.00    +0.000 OA
ATOM      4  H   UNL     1       1.486   6.995  21.598  0.00  0.00    +0.000 HD
ENDROOT
BRANCH   1   9
ATOM      5  C   UNL     1      -0.432  11.006  20.712  0.00  0.00    +0.000 A 
ATOM      6  C   UNL     1      -0.795  11.201  22.053  0.00  0.00    +0.000 A 
ATOM      7  C   UNL     1      -0.447  10.264  23.023  0.00  0.00    +0.000 A 
ATOM      8  C   UNL     1       0.259   9.113  22.671  0.00  0.00    +0.000 A 
ATOM      9  C   UNL     1       0.639   8.893  21.346  0.00  0.00    +0.000 A 
ATOM     10  C   UNL     1       0.316   9.857  20.382  0.00  0.00    +0.000 A 
BRANCH   5  12
ATOM     11  C   UNL     1      -0.303  13.436  19.996  0.00  0.00    +0.000 C 
ATOM     12  C   UNL     1      -0.850  12.039  19.663  0.00  0.00    +0.000 C 
BRANCH  12  13
ATOM     13  C   UNL     1      -2.384  12.009  19.491  0.00  0.00    +0.000 C 
BRANCH  13  14
ATOM     14  C   UNL     1      -2.838  11.606  18.124  0.00  0.00    +0.000 A 
ATOM     15  N   UNL     1      -2.095  11.139  17.140  0.00  0.00    +0.000 NA
ATOM     16  N   UNL     1      -2.900  10.967  16.037  0.00  0.00    +0.000 NA
ATOM     17  C   UNL     1      -4.120  11.297  16.380  0.00  0.00    +0.000 A 
ATOM     18  N   UNL     1      -4.137  11.670  17.687  0.00  0.00    +0.000 N 
ATOM     19  C   UNL     1      -5.302  12.031  18.450  0.00  0.00    +0.000 C 
ENDBRANCH  13  14
ENDBRANCH  12  13
ENDBRANCH   5  12
ENDBRANCH   1   9
BRANCH   2  20
ATOM     20  C   UNL     1       2.617   6.223  19.529  0.00  0.00    +0.000 A 
ATOM     21  C   UNL     1       3.736   6.147  18.708  0.00  0.00    +0.000 A 
ATOM     22  C   UNL     1       4.402   4.930  18.558  0.00  0.00    +0.000 A 
ATOM     23  C   UNL     1       3.899   3.834  19.279  0.00  0.00    +0.000 A 
ATOM     24  C   UNL     1       2.763   3.973  20.088  0.00  0.00    +0.000 A 
ATOM     25  N   UNL     1       2.107   5.168  20.216  0.00  0.00    +0.000 NA
BRANCH  24  26
ATOM     26  C   UNL     1       2.240   2.766  20.862  0.00  0.00    +0.000 C 
ATOM     27  F   UNL     1       1.100   3.019  21.570  0.00  0.00    +0.000 F 
ATOM     28  F   UNL     1       1.940   1.710  20.053  0.00  0.00    +0.000 F 
ATOM     29  F   UNL     1       3.138   2.295  21.774  0.00  0.00    +0.000 F 
ENDBRANCH  24  26
BRANCH  22  30
ATOM     30  C   UNL     1       5.662   4.807  17.706  0.00  0.00    +0.000 C 
ATOM     31  C   UNL     1       5.492   3.935  16.452  0.00  0.00    +0.000 C 
ATOM     32  C   UNL     1       6.152   6.201  17.305  0.00  0.00    +0.000 C 
BRANCH  30  33
ATOM     33  O   UNL     1       6.691   4.207  18.500  0.00  0.00    +0.000 OA
ATOM     34  H   UNL     1       7.037   4.893  19.097  0.00  0.00    +0.000 HD
ENDBRANCH  30  33
ENDBRANCH  22  30
ENDBRANCH   2  20
TORSDOF 8
ENDMDL
