MODEL 1
REMARK VINA RESULT:      -8.1      0.000      0.000
REMARK  Name = 
REMARK  9 active torsions:
REMARK  status: ('A' for Active; 'I' for Inactive)
REMARK    1  A    between atoms: C_1  and  C_2
REMARK    2  A    between atoms: C_2  and  S_3
REMARK    3  A    between atoms: C_2  and  C_10
REMARK    4  A    between atoms: S_3  and  C_4
REMARK    5  A    between atoms: N_8  and  C_9
REMARK    6  A    between atoms: C_14  and  N_15
REMARK    7  A    between atoms: C_17  and  C_18
REMARK    8  A    between atoms: C_21  and  C_22
REMARK    9  A    between atoms: C_22  and  O_23
REMARK                            x       y       z     vdW  Elec       q    Type
REMARK                         _______ _______ _______ _____ _____    ______ ____
ROOT
ATOM      1  C   UNL     1      -0.189  10.899  19.927  0.00  0.00    +0.000 A 
ATOM      2  C   UNL     1      -0.494  10.953  21.298  0.00  0.00    +0.000 A 
ATOM      3  C   UNL     1      -0.051   9.965  22.176  0.00  0.00    +0.000 A 
ATOM      4  C   UNL     1       0.704   8.895  21.706  0.00  0.00    +0.000 A 
ATOM      5  C   UNL     1       1.032   8.817  20.346  0.00  0.00    +0.000 A 
ATOM      6  C   UNL     1       0.593   9.820  19.466  0.00  0.00    +0.000 A 
ENDROOT
BRANCH   5   7
ATOM      7  N   UNL     1       1.806   7.736  19.856  0.00  0.00    +0.000 N 
ATOM      8  C   UNL     1       2.543   7.681  18.697  0.00  0.00    +0.000 A 
ATOM      9  C   UNL     1       3.065   6.411  18.663  0.00  0.00    +0.000 A 
ATOM     10  N   UNL     1       2.663   5.737  19.784  0.00  0.00    +0.000 NA
ATOM     11  N   UNL     1       1.908   6.554  20.509  0.00  0.00    +0.000 NA
BRANCH   9  12
ATOM     12  C   UNL     1       3.905   5.854  17.618  0.00  0.00    +0.000 A 
ATOM     13  C   UNL     1       4.584   6.677  16.708  0.00  0.00    +0.000 A 
ATOM     14  C   UNL     1       5.395   6.129  15.711  0.00  0.00    +0.000 A 
ATOM     15  C   UNL     1       5.551   4.744  15.602  0.00  0.00    +0.000 A 
ATOM     16  C   UNL     1       4.854   3.917  16.492  0.00  0.00    +0.000 A 
ATOM     17  C   UNL     1       4.047   4.467  17.496  0.00  0.00    +0.000 A 
BRANCH  15  18
ATOM     18  C   UNL     1       6.397   4.177  14.491  0.00  0.00    +0.000 C 
BRANCH  18  19
ATOM     19  O   UNL     1       5.615   3.813  13.363  0.00  0.00    +0.000 OA
ATOM     20  H   UNL     1       5.846   2.893  13.148  0.00  0.00    +0.000 HD
ENDBRANCH  18  19
ENDBRANCH  15  18
ENDBRANCH   9  12
ENDBRANCH   5   7
BRANCH   1  22
ATOM     21  C   UNL     1      -0.254  13.378  19.264  0.00  0.00    +0.000 C 
ATOM     22  C   UNL     1      -0.692  11.946  18.926  0.00  0.00    +0.000 C 
BRANCH  22  23
ATOM     23  S   UNL     1      -2.528  11.853  18.861  0.00  0.00    +0.000 S 
BRANCH  23  24
ATOM     24  C   UNL     1      -2.823  11.078  17.349  0.00  0.00    +0.000 A 
ATOM     25  N   UNL     1      -2.012  10.319  16.656  0.00  0.00    +0.000 NA
ATOM     26  N   UNL     1      -2.656   9.984  15.481  0.00  0.00    +0.000 NA
ATOM     27  C   UNL     1      -3.847  10.539  15.509  0.00  0.00    +0.000 A 
ATOM     28  N   UNL     1      -4.001  11.223  16.676  0.00  0.00    +0.000 N 
ATOM     29  C   UNL     1      -5.165  11.963  17.085  0.00  0.00    +0.000 C 
ENDBRANCH  23  24
ENDBRANCH  22  23
ENDBRANCH   1  22
TORSDOF 7
ENDMDL
MODEL 2
REMARK VINA RESULT:      -8.1      3.357      4.048
REMARK  Name = 
REMARK  9 active torsions:
REMARK  status: ('A' for Active; 'I' for Inactive)
REMARK    1  A    between atoms: C_1  and  C_2
REMARK    2  A    between atoms: C_2  and  S_3
REMARK    3  A    between atoms: C_2  and  C_10
REMARK    4  A    between atoms: S_3  and  C_4
REMARK    5  A    between atoms: N_8  and  C_9
REMARK    6  A    between atoms: C_14  and  N_15
REMARK    7  A    between atoms: C_17  and  C_18
REMARK    8  A    between atoms: C_21  and  C_22
REMARK    9  A    between atoms: C_22  and  O_23
REMARK                            x       y       z     vdW  Elec       q    Type
REMARK                         _______ _______ _______ _____ _____    ______ ____
ROOT
ATOM      1  C   UNL     1      -0.912  11.135  21.726  0.00  0.00    +0.000 A 
ATOM      2  C   UNL     1      -0.703  10.531  22.978  0.00  0.00    +0.000 A 
ATOM      3  C   UNL     1       0.163   9.447  23.122  0.00  0.00    +0.000 A 
ATOM      4  C   UNL     1       0.838   8.937  22.018  0.00  0.00    +0.000 A 
ATOM      5  C   UNL     1       0.658   9.522  20.759  0.00  0.00    +0.000 A 
ATOM      6  C   UNL     1      -0.206  10.620  20.619  0.00  0.00    +0.000 A 
ENDROOT
BRANCH   5   7
ATOM      7  N   UNL     1       1.345   9.016  19.627  0.00  0.00    +0.000 N 
ATOM      8  C   UNL     1       2.032   7.830  19.515  0.00  0.00    +0.000 A 
ATOM      9  C   UNL     1       2.546   7.832  18.241  0.00  0.00    +0.000 A 
ATOM     10  N   UNL     1       2.157   8.981  17.609  0.00  0.00    +0.000 NA
ATOM     11  N   UNL     1       1.418   9.689  18.454  0.00  0.00    +0.000 NA
BRANCH   9  12
ATOM     12  C   UNL     1       3.371   6.797  17.645  0.00  0.00    +0.000 A 
ATOM     13  C   UNL     1       4.483   7.113  16.852  0.00  0.00    +0.000 A 
ATOM     14  C   UNL     1       5.273   6.107  16.290  0.00  0.00    +0.000 A 
ATOM     15  C   UNL     1       4.974   4.759  16.511  0.00  0.00    +0.000 A 
ATOM     16  C   UNL     1       3.848   4.439  17.281  0.00  0.00    +0.000 A 
ATOM     17  C   UNL     1       3.060   5.448  17.850  0.00  0.00    +0.000 A 
BRANCH  15  18
ATOM     18  C   UNL     1       5.816   3.694  15.858  0.00  0.00    +0.000 C 
BRANCH  18  19
ATOM     19  O   UNL     1       6.353   4.130  14.617  0.00  0.00    +0.000 OA
ATOM     20  H   UNL     1       6.844   4.950  14.798  0.00  0.00    +0.000 HD
ENDBRANCH  18  19
ENDBRANCH  15  18
ENDBRANCH   9  12
ENDBRANCH   5   7
BRANCH   1  22
ATOM     21  C   UNL     1      -1.487  13.240  20.375  0.00  0.00    +0.000 C 
ATOM     22  C   UNL     1      -1.885  12.302  21.523  0.00  0.00    +0.000 C 
BRANCH  22  23
ATOM     23  S   UNL     1      -1.991  13.250  23.096  0.00  0.00    +0.000 S 
BRANCH  23  24
ATOM     24  C   UNL     1      -3.620  12.987  23.597  0.00  0.00    +0.000 A 
ATOM     25  N   UNL     1      -4.097  12.002  24.316  0.00  0.00    +0.000 NA
ATOM     26  N   UNL     1      -5.465  12.174  24.403  0.00  0.00    +0.000 NA
ATOM     27  C   UNL     1      -5.770  13.270  23.746  0.00  0.00    +0.000 A 
ATOM     28  N   UNL     1      -4.635  13.825  23.237  0.00  0.00    +0.000 N 
ATOM     29  C   UNL     1      -4.548  15.031  22.459  0.00  0.00    +0.000 C 
ENDBRANCH  23  24
ENDBRANCH  22  23
ENDBRANCH   1  22
TORSDOF 7
ENDMDL
MODEL 3
REMARK VINA RESULT:      -7.9      1.051      1.256
REMARK  Name = 
REMARK  9 active torsions:
REMARK  status: ('A' for Active; 'I' for Inactive)
REMARK    1  A    between atoms: C_1  and  C_2
REMARK    2  A    between atoms: C_2  and  S_3
REMARK    3  A    between atoms: C_2  and  C_10
REMARK    4  A    between atoms: S_3  and  C_4
REMARK    5  A    between atoms: N_8  and  C_9
REMARK    6  A    between atoms: C_14  and  N_15
REMARK    7  A    between atoms: C_17  and  C_18
REMARK    8  A    between atoms: C_21  and  C_22
REMARK    9  A    between atoms: C_22  and  O_23
REMARK                            x       y       z     vdW  Elec       q    Type
REMARK                         _______ _______ _______ _____ _____    ______ ____
ROOT
ATOM      1  C   UNL     1      -0.331  10.894  20.323  0.00  0.00    +0.000 A 
ATOM      2  C   UNL     1      -0.544  10.938  21.712  0.00  0.00    +0.000 A 
ATOM      3  C   UNL     1      -0.030   9.952  22.553  0.00  0.00    +0.000 A 
ATOM      4  C   UNL     1       0.706   8.895  22.027  0.00  0.00    +0.000 A 
ATOM      5  C   UNL     1       0.943   8.827  20.649  0.00  0.00    +0.000 A 
ATOM      6  C   UNL     1       0.432   9.827  19.806  0.00  0.00    +0.000 A 
ENDROOT
BRANCH   5   7
ATOM      7  N   UNL     1       1.696   7.759  20.102  0.00  0.00    +0.000 N 
ATOM      8  C   UNL     1       2.455   7.760  18.956  0.00  0.00    +0.000 A 
ATOM      9  C   UNL     1       2.942   6.479  18.847  0.00  0.00    +0.000 A 
ATOM     10  N   UNL     1       2.498   5.745  19.912  0.00  0.00    +0.000 NA
ATOM     11  N   UNL     1       1.751   6.533  20.676  0.00  0.00    +0.000 NA
BRANCH   9  12
ATOM     12  C   UNL     1       3.788   5.969  17.783  0.00  0.00    +0.000 A 
ATOM     13  C   UNL     1       4.552   6.827  16.980  0.00  0.00    +0.000 A 
ATOM     14  C   UNL     1       5.367   6.322  15.964  0.00  0.00    +0.000 A 
ATOM     15  C   UNL     1       5.443   4.946  15.729  0.00  0.00    +0.000 A 
ATOM     16  C   UNL     1       4.661   4.087  16.511  0.00  0.00    +0.000 A 
ATOM     17  C   UNL     1       3.849   4.593  17.535  0.00  0.00    +0.000 A 
BRANCH  15  18
ATOM     18  C   UNL     1       6.297   4.432  14.598  0.00  0.00    +0.000 C 
BRANCH  18  19
ATOM     19  O   UNL     1       7.492   5.185  14.452  0.00  0.00    +0.000 OA
ATOM     20  H   UNL     1       8.219   4.543  14.380  0.00  0.00    +0.000 HD
ENDBRANCH  18  19
ENDBRANCH  15  18
ENDBRANCH   9  12
ENDBRANCH   5   7
BRANCH   1  22
ATOM     21  C   UNL     1      -0.050  13.200  19.231  0.00  0.00    +0.000 C 
ATOM     22  C   UNL     1      -0.914  11.939  19.363  0.00  0.00    +0.000 C 
BRANCH  22  23
ATOM     23  S   UNL     1      -2.597  12.393  19.953  0.00  0.00    +0.000 S 
BRANCH  23  24
ATOM     24  C   UNL     1      -3.611  11.890  18.652  0.00  0.00    +0.000 A 
ATOM     25  N   UNL     1      -3.255  11.456  17.469  0.00  0.00    +0.000 NA
ATOM     26  N   UNL     1      -4.408  11.240  16.740  0.00  0.00    +0.000 NA
ATOM     27  C   UNL     1      -5.429  11.535  17.514  0.00  0.00    +0.000 A 
ATOM     28  N   UNL     1      -4.973  11.932  18.734  0.00  0.00    +0.000 N 
ATOM     29  C   UNL     1      -5.776  12.335  19.856  0.00  0.00    +0.000 C 
ENDBRANCH  23  24
ENDBRANCH  22  23
ENDBRANCH   1  22
TORSDOF 7
ENDMDL
MODEL 4
REMARK VINA RESULT:      -7.9      4.645      9.668
REMARK  Name = 
REMARK  9 active torsions:
REMARK  status: ('A' for Active; 'I' for Inactive)
REMARK    1  A    between atoms: C_1  and  C_2
REMARK    2  A    between atoms: C_2  and  S_3
REMARK    3  A    between atoms: C_2  and  C_10
REMARK    4  A    between atoms: S_3  and  C_4
REMARK    5  A    between atoms: N_8  and  C_9
REMARK    6  A    between atoms: C_14  and  N_15
REMARK    7  A    between atoms: C_17  and  C_18
REMARK    8  A    between atoms: C_21  and  C_22
REMARK    9  A    between atoms: C_22  and  O_23
REMARK                            x       y       z     vdW  Elec       q    Type
REMARK                         _______ _______ _______ _____ _____    ______ ____
ROOT
ATOM      1  C   UNL     1       4.331   5.045  17.736  0.00  0.00    +0.000 A 
ATOM      2  C   UNL     1       4.216   4.021  18.693  0.00  0.00    +0.000 A 
ATOM      3  C   UNL     1       3.433   4.184  19.835  0.00  0.00    +0.000 A 
ATOM      4  C   UNL     1       2.749   5.375  20.052  0.00  0.00    +0.000 A 
ATOM      5  C   UNL     1       2.837   6.412  19.114  0.00  0.00    +0.000 A 
ATOM      6  C   UNL     1       3.618   6.240  17.960  0.00  0.00    +0.000 A 
ENDROOT
BRANCH   5   7
ATOM      7  N   UNL     1       2.140   7.628  19.321  0.00  0.00    +0.000 N 
ATOM      8  C   UNL     1       1.449   8.027  20.440  0.00  0.00    +0.000 A 
ATOM      9  C   UNL     1       0.925   9.257  20.119  0.00  0.00    +0.000 A 
ATOM     10  N   UNL     1       1.313   9.585  18.849  0.00  0.00    +0.000 NA
ATOM     11  N   UNL     1       2.060   8.595  18.375  0.00  0.00    +0.000 NA
BRANCH   9  12
ATOM     12  C   UNL     1       0.093  10.086  20.972  0.00  0.00    +0.000 A 
ATOM     13  C   UNL     1      -0.221   9.702  22.284  0.00  0.00    +0.000 A 
ATOM     14  C   UNL     1      -1.017  10.512  23.097  0.00  0.00    +0.000 A 
ATOM     15  C   UNL     1      -1.516  11.729  22.621  0.00  0.00    +0.000 A 
ATOM     16  C   UNL     1      -1.226  12.103  21.302  0.00  0.00    +0.000 A 
ATOM     17  C   UNL     1      -0.422  11.294  20.489  0.00  0.00    +0.000 A 
BRANCH  15  18
ATOM     18  C   UNL     1      -2.408  12.563  23.504  0.00  0.00    +0.000 C 
BRANCH  18  19
ATOM     19  O   UNL     1      -3.552  11.840  23.935  0.00  0.00    +0.000 OA
ATOM     20  H   UNL     1      -3.323  11.439  24.791  0.00  0.00    +0.000 HD
ENDBRANCH  18  19
ENDBRANCH  15  18
ENDBRANCH   9  12
ENDBRANCH   5   7
BRANCH   1  22
ATOM     21  C   UNL     1       4.800   3.764  15.561  0.00  0.00    +0.000 C 
ATOM     22  C   UNL     1       5.214   4.915  16.489  0.00  0.00    +0.000 C 
BRANCH  22  23
ATOM     23  S   UNL     1       6.957   4.686  17.032  0.00  0.00    +0.000 S 
BRANCH  23  24
ATOM     24  C   UNL     1       7.445   6.285  17.452  0.00  0.00    +0.000 A 
ATOM     25  N   UNL     1       7.434   7.359  16.702  0.00  0.00    +0.000 NA
ATOM     26  N   UNL     1       7.979   8.390  17.442  0.00  0.00    +0.000 NA
ATOM     27  C   UNL     1       8.288   7.909  18.625  0.00  0.00    +0.000 A 
ATOM     28  N   UNL     1       7.952   6.591  18.681  0.00  0.00    +0.000 N 
ATOM     29  C   UNL     1       8.128   5.711  19.805  0.00  0.00    +0.000 C 
ENDBRANCH  23  24
ENDBRANCH  22  23
ENDBRANCH   1  22
TORSDOF 7
ENDMDL
MODEL 5
REMARK VINA RESULT:      -7.8      5.148      9.899
REMARK  Name = 
REMARK  9 active torsions:
REMARK  status: ('A' for Active; 'I' for Inactive)
REMARK    1  A    between atoms: C_1  and  C_2
REMARK    2  A    between atoms: C_2  and  S_3
REMARK    3  A    between atoms: C_2  and  C_10
REMARK    4  A    between atoms: S_3  and  C_4
REMARK    5  A    between atoms: N_8  and  C_9
REMARK    6  A    between atoms: C_14  and  N_15
REMARK    7  A    between atoms: C_17  and  C_18
REMARK    8  A    between atoms: C_21  and  C_22
REMARK    9  A    between atoms: C_22  and  O_23
REMARK                            x       y       z     vdW  Elec       q    Type
REMARK                         _______ _______ _______ _____ _____    ______ ____
ROOT
ATOM      1  C   UNL     1       2.316   7.109  19.125  0.00  0.00    +0.000 A 
ATOM      2  C   UNL     1       2.446   7.817  17.917  0.00  0.00    +0.000 A 
ATOM      3  C   UNL     1       1.963   9.118  17.786  0.00  0.00    +0.000 A 
ATOM      4  C   UNL     1       1.335   9.744  18.858  0.00  0.00    +0.000 A 
ATOM      5  C   UNL     1       1.197   9.069  20.077  0.00  0.00    +0.000 A 
ATOM      6  C   UNL     1       1.694   7.762  20.208  0.00  0.00    +0.000 A 
ENDROOT
BRANCH   5   7
ATOM      7  N   UNL     1       0.564   9.697  21.178  0.00  0.00    +0.000 N 
ATOM      8  C   UNL     1      -0.245  10.808  21.167  0.00  0.00    +0.000 A 
ATOM      9  C   UNL     1      -0.564  11.033  22.485  0.00  0.00    +0.000 A 
ATOM     10  N   UNL     1       0.027  10.069  23.254  0.00  0.00    +0.000 NA
ATOM     11  N   UNL     1       0.701   9.254  22.451  0.00  0.00    +0.000 NA
BRANCH   9  12
ATOM     12  C   UNL     1      -1.387  12.113  22.998  0.00  0.00    +0.000 A 
ATOM     13  C   UNL     1      -0.896  13.423  23.101  0.00  0.00    +0.000 A 
ATOM     14  C   UNL     1      -1.701  14.454  23.590  0.00  0.00    +0.000 A 
ATOM     15  C   UNL     1      -3.019  14.204  23.984  0.00  0.00    +0.000 A 
ATOM     16  C   UNL     1      -3.505  12.892  23.909  0.00  0.00    +0.000 A 
ATOM     17  C   UNL     1      -2.700  11.859  23.412  0.00  0.00    +0.000 A 
BRANCH  15  18
ATOM     18  C   UNL     1      -3.852  15.326  24.548  0.00  0.00    +0.000 C 
BRANCH  18  19
ATOM     19  O   UNL     1      -5.243  15.091  24.380  0.00  0.00    +0.000 OA
ATOM     20  H   UNL     1      -5.623  15.016  25.272  0.00  0.00    +0.000 HD
ENDBRANCH  18  19
ENDBRANCH  15  18
ENDBRANCH   9  12
ENDBRANCH   5   7
BRANCH   1  22
ATOM     21  C   UNL     1       2.253   4.976  20.551  0.00  0.00    +0.000 C 
ATOM     22  C   UNL     1       2.800   5.664  19.292  0.00  0.00    +0.000 C 
BRANCH  22  23
ATOM     23  S   UNL     1       4.639   5.667  19.331  0.00  0.00    +0.000 S 
BRANCH  23  24
ATOM     24  C   UNL     1       5.062   5.744  17.661  0.00  0.00    +0.000 A 
ATOM     25  N   UNL     1       5.601   6.742  17.007  0.00  0.00    +0.000 NA
ATOM     26  N   UNL     1       5.691   6.371  15.680  0.00  0.00    +0.000 NA
ATOM     27  C   UNL     1       5.216   5.150  15.576  0.00  0.00    +0.000 A 
ATOM     28  N   UNL     1       4.825   4.709  16.803  0.00  0.00    +0.000 N 
ATOM     29  C   UNL     1       4.257   3.424  17.109  0.00  0.00    +0.000 C 
ENDBRANCH  23  24
ENDBRANCH  22  23
ENDBRANCH   1  22
TORSDOF 7
ENDMDL
MODEL 6
REMARK VINA RESULT:      -7.8      2.900      4.315
REMARK  Name = 
REMARK  9 active torsions:
REMARK  status: ('A' for Active; 'I' for Inactive)
REMARK    1  A    between atoms: C_1  and  C_2
REMARK    2  A    between atoms: C_2  and  S_3
REMARK    3  A    between atoms: C_2  and  C_10
REMARK    4  A    between atoms: S_3  and  C_4
REMARK    5  A    between atoms: N_8  and  C_9
REMARK    6  A    between atoms: C_14  and  N_15
REMARK    7  A    between atoms: C_17  and  C_18
REMARK    8  A    between atoms: C_21  and  C_22
REMARK    9  A    between atoms: C_22  and  O_23
REMARK                            x       y       z     vdW  Elec       q    Type
REMARK                         _______ _______ _______ _____ _____    ______ ____
ROOT
ATOM      1  C   UNL     1      -0.605  11.355  21.764  0.00  0.00    +0.000 A 
ATOM      2  C   UNL     1      -0.805  10.513  22.872  0.00  0.00    +0.000 A 
ATOM      3  C   UNL     1      -0.329   9.203  22.881  0.00  0.00    +0.000 A 
ATOM      4  C   UNL     1       0.356   8.699  21.780  0.00  0.00    +0.000 A 
ATOM      5  C   UNL     1       0.580   9.514  20.663  0.00  0.00    +0.000 A 
ATOM      6  C   UNL     1       0.108  10.837  20.663  0.00  0.00    +0.000 A 
ENDROOT
BRANCH   5   7
ATOM      7  N   UNL     1       1.282   9.014  19.539  0.00  0.00    +0.000 N 
ATOM      8  C   UNL     1       2.077   7.895  19.467  0.00  0.00    +0.000 A 
ATOM      9  C   UNL     1       2.553   7.876  18.178  0.00  0.00    +0.000 A 
ATOM     10  N   UNL     1       2.037   8.946  17.499  0.00  0.00    +0.000 NA
ATOM     11  N   UNL     1       1.256   9.626  18.330  0.00  0.00    +0.000 NA
BRANCH   9  12
ATOM     12  C   UNL     1       3.458   6.893  17.610  0.00  0.00    +0.000 A 
ATOM     13  C   UNL     1       4.560   7.275  16.832  0.00  0.00    +0.000 A 
ATOM     14  C   UNL     1       5.427   6.320  16.297  0.00  0.00    +0.000 A 
ATOM     15  C   UNL     1       5.218   4.957  16.532  0.00  0.00    +0.000 A 
ATOM     16  C   UNL     1       4.103   4.569  17.287  0.00  0.00    +0.000 A 
ATOM     17  C   UNL     1       3.238   5.528  17.828  0.00  0.00    +0.000 A 
BRANCH  15  18
ATOM     18  C   UNL     1       6.144   3.945  15.908  0.00  0.00    +0.000 C 
BRANCH  18  19
ATOM     19  O   UNL     1       7.428   4.493  15.644  0.00  0.00    +0.000 OA
ATOM     20  H   UNL     1       7.534   4.502  14.677  0.00  0.00    +0.000 HD
ENDBRANCH  18  19
ENDBRANCH  15  18
ENDBRANCH   9  12
ENDBRANCH   5   7
BRANCH   1  22
ATOM     21  C   UNL     1      -2.667  12.859  21.492  0.00  0.00    +0.000 C 
ATOM     22  C   UNL     1      -1.148  12.787  21.704  0.00  0.00    +0.000 C 
BRANCH  22  23
ATOM     23  S   UNL     1      -0.285  13.679  20.346  0.00  0.00    +0.000 S 
BRANCH  23  24
ATOM     24  C   UNL     1       1.254  14.040  21.036  0.00  0.00    +0.000 A 
ATOM     25  N   UNL     1       1.512  14.561  22.210  0.00  0.00    +0.000 NA
ATOM     26  N   UNL     1       2.880  14.731  22.298  0.00  0.00    +0.000 NA
ATOM     27  C   UNL     1       3.408  14.291  21.178  0.00  0.00    +0.000 A 
ATOM     28  N   UNL     1       2.421  13.829  20.362  0.00  0.00    +0.000 N 
ATOM     29  C   UNL     1       2.590  13.265  19.050  0.00  0.00    +0.000 C 
ENDBRANCH  23  24
ENDBRANCH  22  23
ENDBRANCH   1  22
TORSDOF 7
ENDMDL
MODEL 7
REMARK VINA RESULT:      -7.7      5.152      9.999
REMARK  Name = 
REMARK  9 active torsions:
REMARK  status: ('A' for Active; 'I' for Inactive)
REMARK    1  A    between atoms: C_1  and  C_2
REMARK    2  A    between atoms: C_2  and  S_3
REMARK    3  A    between atoms: C_2  and  C_10
REMARK    4  A    between atoms: S_3  and  C_4
REMARK    5  A    between atoms: N_8  and  C_9
REMARK    6  A    between atoms: C_14  and  N_15
REMARK    7  A    between atoms: C_17  and  C_18
REMARK    8  A    between atoms: C_21  and  C_22
REMARK    9  A    between atoms: C_22  and  O_23
REMARK                            x       y       z     vdW  Elec       q    Type
REMARK                         _______ _______ _______ _____ _____    ______ ____
ROOT
ATOM      1  C   UNL     1       2.462   7.568  18.990  0.00  0.00    +0.000 A 
ATOM      2  C   UNL     1       2.418   8.257  17.765  0.00  0.00    +0.000 A 
ATOM      3  C   UNL     1       1.745   9.472  17.643  0.00  0.00    +0.000 A 
ATOM      4  C   UNL     1       1.096  10.028  18.741  0.00  0.00    +0.000 A 
ATOM      5  C   UNL     1       1.129   9.370  19.977  0.00  0.00    +0.000 A 
ATOM      6  C   UNL     1       1.816   8.152  20.099  0.00  0.00    +0.000 A 
ENDROOT
BRANCH   5   7
ATOM      7  N   UNL     1       0.477   9.929  21.105  0.00  0.00    +0.000 N 
ATOM      8  C   UNL     1      -0.319  11.048  21.153  0.00  0.00    +0.000 A 
ATOM      9  C   UNL     1      -0.667  11.185  22.476  0.00  0.00    +0.000 A 
ATOM     10  N   UNL     1      -0.105  10.162  23.189  0.00  0.00    +0.000 NA
ATOM     11  N   UNL     1       0.579   9.396  22.347  0.00  0.00    +0.000 NA
BRANCH   9  12
ATOM     12  C   UNL     1      -1.490  12.237  23.044  0.00  0.00    +0.000 A 
ATOM     13  C   UNL     1      -1.000  13.540  23.213  0.00  0.00    +0.000 A 
ATOM     14  C   UNL     1      -1.805  14.545  23.754  0.00  0.00    +0.000 A 
ATOM     15  C   UNL     1      -3.122  14.274  24.137  0.00  0.00    +0.000 A 
ATOM     16  C   UNL     1      -3.607  12.967  23.994  0.00  0.00    +0.000 A 
ATOM     17  C   UNL     1      -2.802  11.961  23.445  0.00  0.00    +0.000 A 
BRANCH  15  18
ATOM     18  C   UNL     1      -3.954  15.365  24.758  0.00  0.00    +0.000 C 
BRANCH  18  19
ATOM     19  O   UNL     1      -3.210  16.561  24.941  0.00  0.00    +0.000 OA
ATOM     20  H   UNL     1      -3.856  17.274  25.079  0.00  0.00    +0.000 HD
ENDBRANCH  18  19
ENDBRANCH  15  18
ENDBRANCH   9  12
ENDBRANCH   5   7
BRANCH   1  22
ATOM     21  C   UNL     1       4.414   6.059  18.279  0.00  0.00    +0.000 C 
ATOM     22  C   UNL     1       3.159   6.212  19.150  0.00  0.00    +0.000 C 
BRANCH  22  23
ATOM     23  S   UNL     1       1.950   4.886  18.742  0.00  0.00    +0.000 S 
BRANCH  23  24
ATOM     24  C   UNL     1       1.927   3.929  20.177  0.00  0.00    +0.000 A 
ATOM     25  N   UNL     1       2.193   4.303  21.404  0.00  0.00    +0.000 NA
ATOM     26  N   UNL     1       2.114   3.182  22.207  0.00  0.00    +0.000 NA
ATOM     27  C   UNL     1       1.785   2.166  21.440  0.00  0.00    +0.000 A 
ATOM     28  N   UNL     1       1.639   2.596  20.156  0.00  0.00    +0.000 N 
ATOM     29  C   UNL     1       1.282   1.789  19.021  0.00  0.00    +0.000 C 
ENDBRANCH  23  24
ENDBRANCH  22  23
ENDBRANCH   1  22
TORSDOF 7
ENDMDL
MODEL 8
REMARK VINA RESULT:      -7.7      5.136     10.000
REMARK  Name = 
REMARK  9 active torsions:
REMARK  status: ('A' for Active; 'I' for Inactive)
REMARK    1  A    between atoms: C_1  and  C_2
REMARK    2  A    between atoms: C_2  and  S_3
REMARK    3  A    between atoms: C_2  and  C_10
REMARK    4  A    between atoms: S_3  and  C_4
REMARK    5  A    between atoms: N_8  and  C_9
REMARK    6  A    between atoms: C_14  and  N_15
REMARK    7  A    between atoms: C_17  and  C_18
REMARK    8  A    between atoms: C_21  and  C_22
REMARK    9  A    between atoms: C_22  and  O_23
REMARK                            x       y       z     vdW  Elec       q    Type
REMARK                         _______ _______ _______ _____ _____    ______ ____
ROOT
ATOM      1  C   UNL     1       2.465   6.867  19.173  0.00  0.00    +0.000 A 
ATOM      2  C   UNL     1       2.590   7.540  17.944  0.00  0.00    +0.000 A 
ATOM      3  C   UNL     1       2.105   8.836  17.777  0.00  0.00    +0.000 A 
ATOM      4  C   UNL     1       1.479   9.492  18.832  0.00  0.00    +0.000 A 
ATOM      5  C   UNL     1       1.345   8.852  20.071  0.00  0.00    +0.000 A 
ATOM      6  C   UNL     1       1.844   7.550  20.239  0.00  0.00    +0.000 A 
ENDROOT
BRANCH   5   7
ATOM      7  N   UNL     1       0.714   9.512  21.155  0.00  0.00    +0.000 N 
ATOM      8  C   UNL     1      -0.117  10.605  21.111  0.00  0.00    +0.000 A 
ATOM      9  C   UNL     1      -0.423  10.876  22.424  0.00  0.00    +0.000 A 
ATOM     10  N   UNL     1       0.197   9.955  23.222  0.00  0.00    +0.000 NA
ATOM     11  N   UNL     1       0.876   9.122  22.443  0.00  0.00    +0.000 NA
BRANCH   9  12
ATOM     12  C   UNL     1      -1.261  11.960  22.905  0.00  0.00    +0.000 A 
ATOM     13  C   UNL     1      -0.802  13.285  22.929  0.00  0.00    +0.000 A 
ATOM     14  C   UNL     1      -1.621  14.319  23.388  0.00  0.00    +0.000 A 
ATOM     15  C   UNL     1      -2.921  14.056  23.830  0.00  0.00    +0.000 A 
ATOM     16  C   UNL     1      -3.374  12.730  23.833  0.00  0.00    +0.000 A 
ATOM     17  C   UNL     1      -2.555  11.694  23.366  0.00  0.00    +0.000 A 
BRANCH  15  18
ATOM     18  C   UNL     1      -3.768  15.183  24.361  0.00  0.00    +0.000 C 
BRANCH  18  19
ATOM     19  O   UNL     1      -4.439  15.878  23.319  0.00  0.00    +0.000 OA
ATOM     20  H   UNL     1      -4.742  16.722  23.696  0.00  0.00    +0.000 HD
ENDBRANCH  18  19
ENDBRANCH  15  18
ENDBRANCH   9  12
ENDBRANCH   5   7
BRANCH   1  22
ATOM     21  C   UNL     1       2.429   4.785  20.674  0.00  0.00    +0.000 C 
ATOM     22  C   UNL     1       2.951   5.428  19.381  0.00  0.00    +0.000 C 
BRANCH  22  23
ATOM     23  S   UNL     1       4.791   5.431  19.383  0.00  0.00    +0.000 S 
BRANCH  23  24
ATOM     24  C   UNL     1       5.181   4.939  17.777  0.00  0.00    +0.000 A 
ATOM     25  N   UNL     1       4.548   4.081  17.017  0.00  0.00    +0.000 NA
ATOM     26  N   UNL     1       5.265   3.956  15.843  0.00  0.00    +0.000 NA
ATOM     27  C   UNL     1       6.303   4.757  15.925  0.00  0.00    +0.000 A 
ATOM     28  N   UNL     1       6.280   5.410  17.120  0.00  0.00    +0.000 N 
ATOM     29  C   UNL     1       7.240   6.373  17.586  0.00  0.00    +0.000 C 
ENDBRANCH  23  24
ENDBRANCH  22  23
ENDBRANCH   1  22
TORSDOF 7
ENDMDL
MODEL 9
REMARK VINA RESULT:      -7.6      2.606      3.757
REMARK  Name = 
REMARK  9 active torsions:
REMARK  status: ('A' for Active; 'I' for Inactive)
REMARK    1  A    between atoms: C_1  and  C_2
REMARK    2  A    between atoms: C_2  and  S_3
REMARK    3  A    between atoms: C_2  and  C_10
REMARK    4  A    between atoms: S_3  and  C_4
REMARK    5  A    between atoms: N_8  and  C_9
REMARK    6  A    between atoms: C_14  and  N_15
REMARK    7  A    between atoms: C_17  and  C_18
REMARK    8  A    between atoms: C_21  and  C_22
REMARK    9  A    between atoms: C_22  and  O_23
REMARK                            x       y       z     vdW  Elec       q    Type
REMARK                         _______ _______ _______ _____ _____    ______ ____
ROOT
ATOM      1  C   UNL     1      -0.280  10.820  20.701  0.00  0.00    +0.000 A 
ATOM      2  C   UNL     1      -0.601  10.705  22.065  0.00  0.00    +0.000 A 
ATOM      3  C   UNL     1      -0.192   9.603  22.814  0.00  0.00    +0.000 A 
ATOM      4  C   UNL     1       0.545   8.584  22.217  0.00  0.00    +0.000 A 
ATOM      5  C   UNL     1       0.888   8.673  20.862  0.00  0.00    +0.000 A 
ATOM      6  C   UNL     1       0.483   9.790  20.114  0.00  0.00    +0.000 A 
ENDROOT
BRANCH   5   7
ATOM      7  N   UNL     1       1.643   7.645  20.245  0.00  0.00    +0.000 N 
ATOM      8  C   UNL     1       2.414   7.727  19.110  0.00  0.00    +0.000 A 
ATOM      9  C   UNL     1       2.897   6.456  18.911  0.00  0.00    +0.000 A 
ATOM     10  N   UNL     1       2.439   5.647  19.913  0.00  0.00    +0.000 NA
ATOM     11  N   UNL     1       1.687   6.379  20.726  0.00  0.00    +0.000 NA
BRANCH   9  12
ATOM     12  C   UNL     1       3.753   6.022  17.821  0.00  0.00    +0.000 A 
ATOM     13  C   UNL     1       4.429   6.945  17.009  0.00  0.00    +0.000 A 
ATOM     14  C   UNL     1       5.254   6.514  15.968  0.00  0.00    +0.000 A 
ATOM     15  C   UNL     1       5.428   5.150  15.714  0.00  0.00    +0.000 A 
ATOM     16  C   UNL     1       4.733   4.226  16.505  0.00  0.00    +0.000 A 
ATOM     17  C   UNL     1       3.911   4.658  17.554  0.00  0.00    +0.000 A 
BRANCH  15  18
ATOM     18  C   UNL     1       6.290   4.714  14.557  0.00  0.00    +0.000 C 
BRANCH  18  19
ATOM     19  O   UNL     1       6.171   3.321  14.304  0.00  0.00    +0.000 OA
ATOM     20  H   UNL     1       6.647   3.147  13.474  0.00  0.00    +0.000 HD
ENDBRANCH  18  19
ENDBRANCH  15  18
ENDBRANCH   9  12
ENDBRANCH   5   7
BRANCH   1  22
ATOM     21  C   UNL     1      -1.799  11.613  18.790  0.00  0.00    +0.000 C 
ATOM     22  C   UNL     1      -0.745  11.999  19.838  0.00  0.00    +0.000 C 
BRANCH  22  23
ATOM     23  S   UNL     1       0.726  12.727  19.006  0.00  0.00    +0.000 S 
BRANCH  23  24
ATOM     24  C   UNL     1       1.398  13.741  20.228  0.00  0.00    +0.000 A 
ATOM     25  N   UNL     1       2.003  13.384  21.334  0.00  0.00    +0.000 NA
ATOM     26  N   UNL     1       2.308  14.536  22.033  0.00  0.00    +0.000 NA
ATOM     27  C   UNL     1       1.890  15.556  21.318  0.00  0.00    +0.000 A 
ATOM     28  N   UNL     1       1.327  15.102  20.164  0.00  0.00    +0.000 N 
ATOM     29  C   UNL     1       0.755  15.906  19.118  0.00  0.00    +0.000 C 
ENDBRANCH  23  24
ENDBRANCH  22  23
ENDBRANCH   1  22
TORSDOF 7
ENDMDL
