MODEL 1
REMARK VINA RESULT:      -8.7      0.000      0.000
REMARK  Name = 
REMARK  9 active torsions:
REMARK  status: ('A' for Active; 'I' for Inactive)
REMARK    1  A    between atoms: C_1  and  N_2
REMARK    2  A    between atoms: C_6  and  C_7
REMARK    3  A    between atoms: C_7  and  C_8
REMARK    4  A    between atoms: C_8  and  C_9
REMARK    5  A    between atoms: C_8  and  C_10
REMARK    6  A    between atoms: C_8  and  C_11
REMARK    7  A    between atoms: C_15  and  N_16
REMARK    8  A    between atoms: C_17  and  C_19
REMARK    9  A    between atoms: C_23  and  C_24
REMARK                            x       y       z     vdW  Elec       q    Type
REMARK                         _______ _______ _______ _____ _____    ______ ____
ROOT
ATOM      1  C   UNL     1       4.500   5.350  17.132  0.00  0.00    +0.000 A 
ATOM      2  C   UNL     1       4.008   4.052  17.395  0.00  0.00    +0.000 A 
ATOM      3  C   UNL     1       2.881   3.843  18.180  0.00  0.00    +0.000 A 
ATOM      4  C   UNL     1       2.215   4.925  18.739  0.00  0.00    +0.000 A 
ATOM      5  C   UNL     1       2.679   6.223  18.525  0.00  0.00    +0.000 A 
ATOM      6  C   UNL     1       3.814   6.431  17.718  0.00  0.00    +0.000 A 
ENDROOT
BRANCH   5   7
ATOM      7  N   UNL     1       2.050   7.356  19.087  0.00  0.00    +0.000 N 
ATOM      8  C   UNL     1       1.869   8.584  18.482  0.00  0.00    +0.000 C 
ATOM      9  O   UNL     1       2.200   8.916  17.348  0.00  0.00    +0.000 OA
ATOM     10  H   UNL     1       1.640   7.260  20.011  0.00  0.00    +0.000 HD
BRANCH   8  11
ATOM     11  C   UNL     1       1.155   9.590  19.331  0.00  0.00    +0.000 A 
ATOM     12  C   UNL     1       0.889  10.833  18.806  0.00  0.00    +0.000 A 
ATOM     13  C   UNL     1       0.232  11.691  19.643  0.00  0.00    +0.000 A 
ATOM     14  N   UNL     1      -0.138  11.360  20.894  0.00  0.00    +0.000 NA
ATOM     15  C   UNL     1       0.157  10.111  21.334  0.00  0.00    +0.000 A 
ATOM     16  N   UNL     1       0.808   9.193  20.581  0.00  0.00    +0.000 NA
BRANCH  15  17
ATOM     17  C   UNL     1      -0.273   9.711  22.753  0.00  0.00    +0.000 C 
ATOM     18  F   UNL     1      -1.077   8.608  22.806  0.00  0.00    +0.000 F 
ATOM     19  F   UNL     1       0.791   9.424  23.563  0.00  0.00    +0.000 F 
ATOM     20  F   UNL     1      -0.963  10.700  23.396  0.00  0.00    +0.000 F 
ENDBRANCH  15  17
ENDBRANCH   8  11
ENDBRANCH   5   7
BRANCH   1  21
ATOM     21  C   UNL     1       5.756   5.507  16.228  0.00  0.00    +0.000 C 
ATOM     22  C   UNL     1       6.959   5.692  17.190  0.00  0.00    +0.000 C 
ATOM     23  C   UNL     1       5.509   6.786  15.385  0.00  0.00    +0.000 C 
BRANCH  21  24
ATOM     24  C   UNL     1       6.046   4.280  15.290  0.00  0.00    +0.000 C 
BRANCH  24  30
ATOM     25  C   UNL     1       5.521   3.187  12.332  0.00  0.00    +0.000 C 
ATOM     26  N   UNL     1       6.551   4.092  12.763  0.00  0.00    +0.000 N 
ATOM     27  C   UNL     1       7.485   4.643  11.936  0.00  0.00    +0.000 A 
ATOM     28  N   UNL     1       8.242   5.467  12.616  0.00  0.00    +0.000 NA
ATOM     29  N   UNL     1       7.788   5.465  13.909  0.00  0.00    +0.000 NA
ATOM     30  C   UNL     1       6.793   4.605  14.019  0.00  0.00    +0.000 A 
ENDBRANCH  24  30
ENDBRANCH  21  24
ENDBRANCH   1  21
TORSDOF 6
ENDMDL
MODEL 2
REMARK VINA RESULT:      -8.5      1.597      2.016
REMARK  Name = 
REMARK  9 active torsions:
REMARK  status: ('A' for Active; 'I' for Inactive)
REMARK    1  A    between atoms: C_1  and  N_2
REMARK    2  A    between atoms: C_6  and  C_7
REMARK    3  A    between atoms: C_7  and  C_8
REMARK    4  A    between atoms: C_8  and  C_9
REMARK    5  A    between atoms: C_8  and  C_10
REMARK    6  A    between atoms: C_8  and  C_11
REMARK    7  A    between atoms: C_15  and  N_16
REMARK    8  A    between atoms: C_17  and  C_19
REMARK    9  A    between atoms: C_23  and  C_24
REMARK                            x       y       z     vdW  Elec       q    Type
REMARK                         _______ _______ _______ _____ _____    ______ ____
ROOT
ATOM      1  C   UNL     1       4.404   5.074  17.500  0.00  0.00    +0.000 A 
ATOM      2  C   UNL     1       3.876   3.767  17.582  0.00  0.00    +0.000 A 
ATOM      3  C   UNL     1       2.790   3.468  18.397  0.00  0.00    +0.000 A 
ATOM      4  C   UNL     1       2.205   4.464  19.165  0.00  0.00    +0.000 A 
ATOM      5  C   UNL     1       2.709   5.765  19.133  0.00  0.00    +0.000 A 
ATOM      6  C   UNL     1       3.801   6.066  18.297  0.00  0.00    +0.000 A 
ENDROOT
BRANCH   5   7
ATOM      7  N   UNL     1       2.164   6.809  19.911  0.00  0.00    +0.000 N 
ATOM      8  C   UNL     1       1.810   8.070  19.468  0.00  0.00    +0.000 C 
ATOM      9  O   UNL     1       1.886   8.510  18.326  0.00  0.00    +0.000 OA
ATOM     10  H   UNL     1       1.957   6.616  20.886  0.00  0.00    +0.000 HD
BRANCH   8  11
ATOM     11  C   UNL     1       1.245   8.960  20.532  0.00  0.00    +0.000 A 
ATOM     12  C   UNL     1       1.068   8.451  21.797  0.00  0.00    +0.000 A 
ATOM     13  C   UNL     1       0.552   9.327  22.710  0.00  0.00    +0.000 A 
ATOM     14  N   UNL     1       0.236  10.601  22.411  0.00  0.00    +0.000 NA
ATOM     15  C   UNL     1       0.446  11.026  21.140  0.00  0.00    +0.000 A 
ATOM     16  N   UNL     1       0.949  10.232  20.166  0.00  0.00    +0.000 NA
BRANCH  15  17
ATOM     17  C   UNL     1       0.107  12.481  20.786  0.00  0.00    +0.000 C 
ATOM     18  F   UNL     1      -1.222  12.785  20.875  0.00  0.00    +0.000 F 
ATOM     19  F   UNL     1       0.741  13.381  21.598  0.00  0.00    +0.000 F 
ATOM     20  F   UNL     1       0.476  12.816  19.513  0.00  0.00    +0.000 F 
ENDBRANCH  15  17
ENDBRANCH   8  11
ENDBRANCH   5   7
BRANCH   1  21
ATOM     21  C   UNL     1       5.610   5.337  16.552  0.00  0.00    +0.000 C 
ATOM     22  C   UNL     1       6.858   5.458  17.465  0.00  0.00    +0.000 C 
ATOM     23  C   UNL     1       5.300   6.682  15.843  0.00  0.00    +0.000 C 
BRANCH  21  24
ATOM     24  C   UNL     1       5.870   4.206  15.492  0.00  0.00    +0.000 C 
BRANCH  24  30
ATOM     25  C   UNL     1       5.619   3.323  12.430  0.00  0.00    +0.000 C 
ATOM     26  N   UNL     1       6.608   4.185  13.017  0.00  0.00    +0.000 N 
ATOM     27  C   UNL     1       7.620   4.779  12.321  0.00  0.00    +0.000 A 
ATOM     28  N   UNL     1       8.314   5.545  13.124  0.00  0.00    +0.000 NA
ATOM     29  N   UNL     1       7.741   5.461  14.366  0.00  0.00    +0.000 NA
ATOM     30  C   UNL     1       6.734   4.607  14.323  0.00  0.00    +0.000 A 
ENDBRANCH  24  30
ENDBRANCH  21  24
ENDBRANCH   1  21
TORSDOF 6
ENDMDL
MODEL 3
REMARK VINA RESULT:      -8.5      5.653      6.957
REMARK  Name = 
REMARK  9 active torsions:
REMARK  status: ('A' for Active; 'I' for Inactive)
REMARK    1  A    between atoms: C_1  and  N_2
REMARK    2  A    between atoms: C_6  and  C_7
REMARK    3  A    between atoms: C_7  and  C_8
REMARK    4  A    between atoms: C_8  and  C_9
REMARK    5  A    between atoms: C_8  and  C_10
REMARK    6  A    between atoms: C_8  and  C_11
REMARK    7  A    between atoms: C_15  and  N_16
REMARK    8  A    between atoms: C_17  and  C_19
REMARK    9  A    between atoms: C_23  and  C_24
REMARK                            x       y       z     vdW  Elec       q    Type
REMARK                         _______ _______ _______ _____ _____    ______ ____
ROOT
ATOM      1  C   UNL     1       6.468   6.172  17.359  0.00  0.00    +0.000 A 
ATOM      2  C   UNL     1       6.989   5.362  18.392  0.00  0.00    +0.000 A 
ATOM      3  C   UNL     1       7.966   5.829  19.264  0.00  0.00    +0.000 A 
ATOM      4  C   UNL     1       8.461   7.118  19.123  0.00  0.00    +0.000 A 
ATOM      5  C   UNL     1       7.993   7.945  18.102  0.00  0.00    +0.000 A 
ATOM      6  C   UNL     1       6.995   7.472  17.229  0.00  0.00    +0.000 A 
ENDROOT
BRANCH   5   7
ATOM      7  N   UNL     1       8.479   9.255  17.903  0.00  0.00    +0.000 N 
ATOM      8  C   UNL     1       8.979  10.106  18.871  0.00  0.00    +0.000 C 
ATOM      9  O   UNL     1       9.109   9.881  20.070  0.00  0.00    +0.000 OA
ATOM     10  H   UNL     1       8.520   9.606  16.952  0.00  0.00    +0.000 HD
BRANCH   8  11
ATOM     11  C   UNL     1       9.430  11.435  18.349  0.00  0.00    +0.000 A 
ATOM     12  C   UNL     1      10.620  11.509  17.663  0.00  0.00    +0.000 A 
ATOM     13  C   UNL     1      10.958  12.756  17.217  0.00  0.00    +0.000 A 
ATOM     14  N   UNL     1      10.193  13.845  17.423  0.00  0.00    +0.000 NA
ATOM     15  C   UNL     1       9.031  13.684  18.104  0.00  0.00    +0.000 A 
ATOM     16  N   UNL     1       8.613  12.491  18.589  0.00  0.00    +0.000 NA
BRANCH  15  17
ATOM     17  C   UNL     1       8.138  14.912  18.333  0.00  0.00    +0.000 C 
ATOM     18  F   UNL     1       8.158  15.819  17.312  0.00  0.00    +0.000 F 
ATOM     19  F   UNL     1       6.821  14.580  18.499  0.00  0.00    +0.000 F 
ATOM     20  F   UNL     1       8.480  15.614  19.455  0.00  0.00    +0.000 F 
ENDBRANCH  15  17
ENDBRANCH   8  11
ENDBRANCH   5   7
BRANCH   1  21
ATOM     21  C   UNL     1       5.363   5.587  16.432  0.00  0.00    +0.000 C 
ATOM     22  C   UNL     1       4.943   6.739  15.482  0.00  0.00    +0.000 C 
ATOM     23  C   UNL     1       4.198   5.181  17.374  0.00  0.00    +0.000 C 
BRANCH  21  24
ATOM     24  C   UNL     1       5.819   4.359  15.563  0.00  0.00    +0.000 C 
BRANCH  24  30
ATOM     25  C   UNL     1       5.549   3.413  12.522  0.00  0.00    +0.000 C 
ATOM     26  N   UNL     1       6.570   4.248  13.094  0.00  0.00    +0.000 N 
ATOM     27  C   UNL     1       7.608   4.783  12.390  0.00  0.00    +0.000 A 
ATOM     28  N   UNL     1       8.328   5.540  13.179  0.00  0.00    +0.000 NA
ATOM     29  N   UNL     1       7.746   5.510  14.418  0.00  0.00    +0.000 NA
ATOM     30  C   UNL     1       6.705   4.697  14.389  0.00  0.00    +0.000 A 
ENDBRANCH  24  30
ENDBRANCH  21  24
ENDBRANCH   1  21
TORSDOF 6
ENDMDL
MODEL 4
REMARK VINA RESULT:      -8.5      5.898      7.782
REMARK  Name = 
REMARK  9 active torsions:
REMARK  status: ('A' for Active; 'I' for Inactive)
REMARK    1  A    between atoms: C_1  and  N_2
REMARK    2  A    between atoms: C_6  and  C_7
REMARK    3  A    between atoms: C_7  and  C_8
REMARK    4  A    between atoms: C_8  and  C_9
REMARK    5  A    between atoms: C_8  and  C_10
REMARK    6  A    between atoms: C_8  and  C_11
REMARK    7  A    between atoms: C_15  and  N_16
REMARK    8  A    between atoms: C_17  and  C_19
REMARK    9  A    between atoms: C_23  and  C_24
REMARK                            x       y       z     vdW  Elec       q    Type
REMARK                         _______ _______ _______ _____ _____    ______ ____
ROOT
ATOM      1  C   UNL     1       6.151   6.383  17.561  0.00  0.00    +0.000 A 
ATOM      2  C   UNL     1       6.793   5.481  18.437  0.00  0.00    +0.000 A 
ATOM      3  C   UNL     1       7.943   5.834  19.135  0.00  0.00    +0.000 A 
ATOM      4  C   UNL     1       8.493   7.097  18.970  0.00  0.00    +0.000 A 
ATOM      5  C   UNL     1       7.905   8.013  18.097  0.00  0.00    +0.000 A 
ATOM      6  C   UNL     1       6.734   7.656  17.402  0.00  0.00    +0.000 A 
ENDROOT
BRANCH   5   7
ATOM      7  N   UNL     1       8.437   9.302  17.878  0.00  0.00    +0.000 N 
ATOM      8  C   UNL     1       8.986  10.141  18.829  0.00  0.00    +0.000 C 
ATOM      9  O   UNL     1       9.129   9.921  20.028  0.00  0.00    +0.000 OA
ATOM     10  H   UNL     1       8.474   9.643  16.923  0.00  0.00    +0.000 HD
BRANCH   8  11
ATOM     11  C   UNL     1       9.477  11.448  18.287  0.00  0.00    +0.000 A 
ATOM     12  C   UNL     1      10.723  11.499  17.707  0.00  0.00    +0.000 A 
ATOM     13  C   UNL     1      11.096  12.726  17.235  0.00  0.00    +0.000 A 
ATOM     14  N   UNL     1      10.312  13.817  17.320  0.00  0.00    +0.000 NA
ATOM     15  C   UNL     1       9.095  13.680  17.902  0.00  0.00    +0.000 A 
ATOM     16  N   UNL     1       8.639  12.508  18.403  0.00  0.00    +0.000 NA
BRANCH  15  17
ATOM     17  C   UNL     1       8.180  14.911  17.993  0.00  0.00    +0.000 C 
ATOM     18  F   UNL     1       7.748  15.197  19.257  0.00  0.00    +0.000 F 
ATOM     19  F   UNL     1       8.791  16.052  17.551  0.00  0.00    +0.000 F 
ATOM     20  F   UNL     1       7.049  14.787  17.236  0.00  0.00    +0.000 F 
ENDBRANCH  15  17
ENDBRANCH   8  11
ENDBRANCH   5   7
BRANCH   1  21
ATOM     21  C   UNL     1       4.857   5.924  16.828  0.00  0.00    +0.000 C 
ATOM     22  C   UNL     1       4.937   6.520  15.398  0.00  0.00    +0.000 C 
ATOM     23  C   UNL     1       3.680   6.540  17.629  0.00  0.00    +0.000 C 
BRANCH  21  24
ATOM     24  C   UNL     1       4.687   4.366  16.714  0.00  0.00    +0.000 C 
BRANCH  24  30
ATOM     25  C   UNL     1       4.478   3.092  19.639  0.00  0.00    +0.000 C 
ATOM     26  N   UNL     1       3.429   3.235  18.667  0.00  0.00    +0.000 N 
ATOM     27  C   UNL     1       2.139   2.837  18.864  0.00  0.00    +0.000 A 
ATOM     28  N   UNL     1       1.417   3.156  17.820  0.00  0.00    +0.000 NA
ATOM     29  N   UNL     1       2.245   3.784  16.927  0.00  0.00    +0.000 NA
ATOM     30  C   UNL     1       3.474   3.800  17.411  0.00  0.00    +0.000 A 
ENDBRANCH  24  30
ENDBRANCH  21  24
ENDBRANCH   1  21
TORSDOF 6
ENDMDL
MODEL 5
REMARK VINA RESULT:      -8.4      2.460      3.565
REMARK  Name = 
REMARK  9 active torsions:
REMARK  status: ('A' for Active; 'I' for Inactive)
REMARK    1  A    between atoms: C_1  and  N_2
REMARK    2  A    between atoms: C_6  and  C_7
REMARK    3  A    between atoms: C_7  and  C_8
REMARK    4  A    between atoms: C_8  and  C_9
REMARK    5  A    between atoms: C_8  and  C_10
REMARK    6  A    between atoms: C_8  and  C_11
REMARK    7  A    between atoms: C_15  and  N_16
REMARK    8  A    between atoms: C_17  and  C_19
REMARK    9  A    between atoms: C_23  and  C_24
REMARK                            x       y       z     vdW  Elec       q    Type
REMARK                         _______ _______ _______ _____ _____    ______ ____
ROOT
ATOM      1  C   UNL     1       4.559   4.865  16.780  0.00  0.00    +0.000 A 
ATOM      2  C   UNL     1       4.364   3.504  17.103  0.00  0.00    +0.000 A 
ATOM      3  C   UNL     1       3.491   3.110  18.111  0.00  0.00    +0.000 A 
ATOM      4  C   UNL     1       2.794   4.066  18.836  0.00  0.00    +0.000 A 
ATOM      5  C   UNL     1       2.973   5.423  18.567  0.00  0.00    +0.000 A 
ATOM      6  C   UNL     1       3.849   5.817  17.537  0.00  0.00    +0.000 A 
ENDROOT
BRANCH   5   7
ATOM      7  N   UNL     1       2.304   6.435  19.288  0.00  0.00    +0.000 N 
ATOM      8  C   UNL     1       2.217   7.772  18.948  0.00  0.00    +0.000 C 
ATOM      9  O   UNL     1       2.685   8.324  17.957  0.00  0.00    +0.000 OA
ATOM     10  H   UNL     1       1.787   6.162  20.118  0.00  0.00    +0.000 HD
BRANCH   8  11
ATOM     11  C   UNL     1       1.427   8.602  19.912  0.00  0.00    +0.000 A 
ATOM     12  C   UNL     1       1.454   8.274  21.247  0.00  0.00    +0.000 A 
ATOM     13  C   UNL     1       0.710   9.083  22.060  0.00  0.00    +0.000 A 
ATOM     14  N   UNL     1      -0.003  10.130  21.605  0.00  0.00    +0.000 NA
ATOM     15  C   UNL     1       0.029  10.389  20.274  0.00  0.00    +0.000 A 
ATOM     16  N   UNL     1       0.732   9.644  19.389  0.00  0.00    +0.000 NA
BRANCH  15  17
ATOM     17  C   UNL     1      -0.764  11.591  19.740  0.00  0.00    +0.000 C 
ATOM     18  F   UNL     1      -0.947  12.592  20.650  0.00  0.00    +0.000 F 
ATOM     19  F   UNL     1      -0.160  12.183  18.665  0.00  0.00    +0.000 F 
ATOM     20  F   UNL     1      -2.016  11.251  19.311  0.00  0.00    +0.000 F 
ENDBRANCH  15  17
ENDBRANCH   8  11
ENDBRANCH   5   7
BRANCH   1  21
ATOM     21  C   UNL     1       5.539   5.229  15.627  0.00  0.00    +0.000 C 
ATOM     22  C   UNL     1       5.236   6.703  15.252  0.00  0.00    +0.000 C 
ATOM     23  C   UNL     1       5.188   4.269  14.459  0.00  0.00    +0.000 C 
BRANCH  21  24
ATOM     24  C   UNL     1       7.062   5.106  15.998  0.00  0.00    +0.000 C 
BRANCH  24  30
ATOM     25  C   UNL     1       7.620   7.932  17.385  0.00  0.00    +0.000 C 
ATOM     26  N   UNL     1       7.656   6.632  17.997  0.00  0.00    +0.000 N 
ATOM     27  C   UNL     1       7.938   6.409  19.312  0.00  0.00    +0.000 A 
ATOM     28  N   UNL     1       7.834   5.130  19.573  0.00  0.00    +0.000 NA
ATOM     29  N   UNL     1       7.466   4.506  18.411  0.00  0.00    +0.000 NA
ATOM     30  C   UNL     1       7.397   5.398  17.440  0.00  0.00    +0.000 A 
ENDBRANCH  24  30
ENDBRANCH  21  24
ENDBRANCH   1  21
TORSDOF 6
ENDMDL
MODEL 6
REMARK VINA RESULT:      -8.4      4.624      9.214
REMARK  Name = 
REMARK  9 active torsions:
REMARK  status: ('A' for Active; 'I' for Inactive)
REMARK    1  A    between atoms: C_1  and  N_2
REMARK    2  A    between atoms: C_6  and  C_7
REMARK    3  A    between atoms: C_7  and  C_8
REMARK    4  A    between atoms: C_8  and  C_9
REMARK    5  A    between atoms: C_8  and  C_10
REMARK    6  A    between atoms: C_8  and  C_11
REMARK    7  A    between atoms: C_15  and  N_16
REMARK    8  A    between atoms: C_17  and  C_19
REMARK    9  A    between atoms: C_23  and  C_24
REMARK                            x       y       z     vdW  Elec       q    Type
REMARK                         _______ _______ _______ _____ _____    ______ ____
ROOT
ATOM      1  C   UNL     1       0.098  10.074  20.132  0.00  0.00    +0.000 A 
ATOM      2  C   UNL     1      -0.407  10.159  21.448  0.00  0.00    +0.000 A 
ATOM      3  C   UNL     1      -0.012   9.270  22.441  0.00  0.00    +0.000 A 
ATOM      4  C   UNL     1       0.892   8.259  22.146  0.00  0.00    +0.000 A 
ATOM      5  C   UNL     1       1.398   8.123  20.853  0.00  0.00    +0.000 A 
ATOM      6  C   UNL     1       1.005   9.034  19.854  0.00  0.00    +0.000 A 
ENDROOT
BRANCH   5   7
ATOM      7  N   UNL     1       2.303   7.099  20.496  0.00  0.00    +0.000 N 
ATOM      8  C   UNL     1       2.017   5.754  20.365  0.00  0.00    +0.000 C 
ATOM      9  O   UNL     1       0.932   5.201  20.516  0.00  0.00    +0.000 OA
ATOM     10  H   UNL     1       3.252   7.368  20.259  0.00  0.00    +0.000 HD
BRANCH   8  11
ATOM     11  C   UNL     1       3.189   4.912  19.963  0.00  0.00    +0.000 A 
ATOM     12  C   UNL     1       3.077   3.543  20.031  0.00  0.00    +0.000 A 
ATOM     13  C   UNL     1       4.187   2.847  19.644  0.00  0.00    +0.000 A 
ATOM     14  N   UNL     1       5.318   3.442  19.221  0.00  0.00    +0.000 NA
ATOM     15  C   UNL     1       5.345   4.798  19.178  0.00  0.00    +0.000 A 
ATOM     16  N   UNL     1       4.297   5.573  19.545  0.00  0.00    +0.000 NA
BRANCH  15  17
ATOM     17  C   UNL     1       6.621   5.493  18.681  0.00  0.00    +0.000 C 
ATOM     18  F   UNL     1       7.424   4.705  17.906  0.00  0.00    +0.000 F 
ATOM     19  F   UNL     1       6.355   6.599  17.921  0.00  0.00    +0.000 F 
ATOM     20  F   UNL     1       7.415   5.935  19.702  0.00  0.00    +0.000 F 
ENDBRANCH  15  17
ENDBRANCH   8  11
ENDBRANCH   5   7
BRANCH   1  21
ATOM     21  C   UNL     1      -0.376  11.117  19.079  0.00  0.00    +0.000 C 
ATOM     22  C   UNL     1      -1.572  11.867  19.721  0.00  0.00    +0.000 C 
ATOM     23  C   UNL     1      -0.829  10.291  17.845  0.00  0.00    +0.000 C 
BRANCH  21  24
ATOM     24  C   UNL     1       0.714  12.170  18.663  0.00  0.00    +0.000 C 
BRANCH  24  30
ATOM     25  C   UNL     1      -0.034  15.263  18.964  0.00  0.00    +0.000 C 
ATOM     26  N   UNL     1       0.797  14.473  19.830  0.00  0.00    +0.000 N 
ATOM     27  C   UNL     1       1.405  14.948  20.955  0.00  0.00    +0.000 A 
ATOM     28  N   UNL     1       2.041  13.973  21.555  0.00  0.00    +0.000 NA
ATOM     29  N   UNL     1       1.836  12.838  20.818  0.00  0.00    +0.000 NA
ATOM     30  C   UNL     1       1.121  13.136  19.748  0.00  0.00    +0.000 A 
ENDBRANCH  24  30
ENDBRANCH  21  24
ENDBRANCH   1  21
TORSDOF 6
ENDMDL
MODEL 7
REMARK VINA RESULT:      -8.2      2.112      2.660
REMARK  Name = 
REMARK  9 active torsions:
REMARK  status: ('A' for Active; 'I' for Inactive)
REMARK    1  A    between atoms: C_1  and  N_2
REMARK    2  A    between atoms: C_6  and  C_7
REMARK    3  A    between atoms: C_7  and  C_8
REMARK    4  A    between atoms: C_8  and  C_9
REMARK    5  A    between atoms: C_8  and  C_10
REMARK    6  A    between atoms: C_8  and  C_11
REMARK    7  A    between atoms: C_15  and  N_16
REMARK    8  A    between atoms: C_17  and  C_19
REMARK    9  A    between atoms: C_23  and  C_24
REMARK                            x       y       z     vdW  Elec       q    Type
REMARK                         _______ _______ _______ _____ _____    ______ ____
ROOT
ATOM      1  C   UNL     1       5.470   5.227  18.866  0.00  0.00    +0.000 A 
ATOM      2  C   UNL     1       5.121   3.868  19.025  0.00  0.00    +0.000 A 
ATOM      3  C   UNL     1       3.900   3.487  19.570  0.00  0.00    +0.000 A 
ATOM      4  C   UNL     1       2.994   4.453  19.984  0.00  0.00    +0.000 A 
ATOM      5  C   UNL     1       3.307   5.807  19.868  0.00  0.00    +0.000 A 
ATOM      6  C   UNL     1       4.539   6.189  19.304  0.00  0.00    +0.000 A 
ENDROOT
BRANCH   5   7
ATOM      7  N   UNL     1       2.430   6.829  20.293  0.00  0.00    +0.000 N 
ATOM      8  C   UNL     1       1.985   7.900  19.542  0.00  0.00    +0.000 C 
ATOM      9  O   UNL     1       2.251   8.156  18.372  0.00  0.00    +0.000 OA
ATOM     10  H   UNL     1       2.036   6.757  21.226  0.00  0.00    +0.000 HD
BRANCH   8  11
ATOM     11  C   UNL     1       1.048   8.815  20.269  0.00  0.00    +0.000 A 
ATOM     12  C   UNL     1       0.906   8.674  21.630  0.00  0.00    +0.000 A 
ATOM     13  C   UNL     1       0.037   9.548  22.219  0.00  0.00    +0.000 A 
ATOM     14  N   UNL     1      -0.641  10.488  21.532  0.00  0.00    +0.000 NA
ATOM     15  C   UNL     1      -0.440  10.563  20.193  0.00  0.00    +0.000 A 
ATOM     16  N   UNL     1       0.398   9.740  19.520  0.00  0.00    +0.000 NA
BRANCH  15  17
ATOM     17  C   UNL     1      -1.191  11.641  19.397  0.00  0.00    +0.000 C 
ATOM     18  F   UNL     1      -2.452  11.280  19.016  0.00  0.00    +0.000 F 
ATOM     19  F   UNL     1      -1.342  12.804  20.101  0.00  0.00    +0.000 F 
ATOM     20  F   UNL     1      -0.546  11.994  18.245  0.00  0.00    +0.000 F 
ENDBRANCH  15  17
ENDBRANCH   8  11
ENDBRANCH   5   7
BRANCH   1  21
ATOM     21  C   UNL     1       6.847   5.578  18.232  0.00  0.00    +0.000 C 
ATOM     22  C   UNL     1       7.831   5.770  19.415  0.00  0.00    +0.000 C 
ATOM     23  C   UNL     1       6.627   6.907  17.461  0.00  0.00    +0.000 C 
BRANCH  21  24
ATOM     24  C   UNL     1       7.425   4.476  17.271  0.00  0.00    +0.000 C 
BRANCH  24  30
ATOM     25  C   UNL     1       4.725   3.521  15.851  0.00  0.00    +0.000 C 
ATOM     26  N   UNL     1       5.857   4.164  15.241  0.00  0.00    +0.000 N 
ATOM     27  C   UNL     1       5.941   4.478  13.917  0.00  0.00    +0.000 A 
ATOM     28  N   UNL     1       7.066   5.106  13.686  0.00  0.00    +0.000 NA
ATOM     29  N   UNL     1       7.726   5.216  14.881  0.00  0.00    +0.000 NA
ATOM     30  C   UNL     1       7.023   4.612  15.822  0.00  0.00    +0.000 A 
ENDBRANCH  24  30
ENDBRANCH  21  24
ENDBRANCH   1  21
TORSDOF 6
ENDMDL
MODEL 8
REMARK VINA RESULT:      -8.2      2.012      2.487
REMARK  Name = 
REMARK  9 active torsions:
REMARK  status: ('A' for Active; 'I' for Inactive)
REMARK    1  A    between atoms: C_1  and  N_2
REMARK    2  A    between atoms: C_6  and  C_7
REMARK    3  A    between atoms: C_7  and  C_8
REMARK    4  A    between atoms: C_8  and  C_9
REMARK    5  A    between atoms: C_8  and  C_10
REMARK    6  A    between atoms: C_8  and  C_11
REMARK    7  A    between atoms: C_15  and  N_16
REMARK    8  A    between atoms: C_17  and  C_19
REMARK    9  A    between atoms: C_23  and  C_24
REMARK                            x       y       z     vdW  Elec       q    Type
REMARK                         _______ _______ _______ _____ _____    ______ ____
ROOT
ATOM      1  C   UNL     1       3.994   5.277  18.664  0.00  0.00    +0.000 A 
ATOM      2  C   UNL     1       3.445   3.983  18.802  0.00  0.00    +0.000 A 
ATOM      3  C   UNL     1       2.302   3.752  19.559  0.00  0.00    +0.000 A 
ATOM      4  C   UNL     1       1.677   4.806  20.210  0.00  0.00    +0.000 A 
ATOM      5  C   UNL     1       2.198   6.097  20.121  0.00  0.00    +0.000 A 
ATOM      6  C   UNL     1       3.349   6.329  19.343  0.00  0.00    +0.000 A 
ENDROOT
BRANCH   5   7
ATOM      7  N   UNL     1       1.612   7.199  20.781  0.00  0.00    +0.000 N 
ATOM      8  C   UNL     1       1.352   8.443  20.239  0.00  0.00    +0.000 C 
ATOM      9  O   UNL     1       1.563   8.817  19.089  0.00  0.00    +0.000 OA
ATOM     10  H   UNL     1       1.299   7.066  21.737  0.00  0.00    +0.000 HD
BRANCH   8  11
ATOM     11  C   UNL     1       0.713   9.407  21.189  0.00  0.00    +0.000 A 
ATOM     12  C   UNL     1       0.267   8.944  22.405  0.00  0.00    +0.000 A 
ATOM     13  C   UNL     1      -0.301   9.886  23.215  0.00  0.00    +0.000 A 
ATOM     14  N   UNL     1      -0.422  11.181  22.867  0.00  0.00    +0.000 NA
ATOM     15  C   UNL     1       0.049  11.557  21.651  0.00  0.00    +0.000 A 
ATOM     16  N   UNL     1       0.623  10.697  20.778  0.00  0.00    +0.000 NA
BRANCH  15  17
ATOM     17  C   UNL     1      -0.066  13.034  21.244  0.00  0.00    +0.000 C 
ATOM     18  F   UNL     1      -1.258  13.615  21.569  0.00  0.00    +0.000 F 
ATOM     19  F   UNL     1       0.891  13.816  21.831  0.00  0.00    +0.000 F 
ATOM     20  F   UNL     1       0.082  13.225  19.899  0.00  0.00    +0.000 F 
ENDBRANCH  15  17
ENDBRANCH   8  11
ENDBRANCH   5   7
BRANCH   1  21
ATOM     21  C   UNL     1       5.265   5.462  17.786  0.00  0.00    +0.000 C 
ATOM     22  C   UNL     1       6.466   5.491  18.767  0.00  0.00    +0.000 C 
ATOM     23  C   UNL     1       5.088   6.831  17.075  0.00  0.00    +0.000 C 
BRANCH  21  24
ATOM     24  C   UNL     1       5.504   4.323  16.730  0.00  0.00    +0.000 C 
BRANCH  24  30
ATOM     25  C   UNL     1       5.045   3.698  13.629  0.00  0.00    +0.000 C 
ATOM     26  N   UNL     1       6.148   4.397  14.229  0.00  0.00    +0.000 N 
ATOM     27  C   UNL     1       7.196   4.922  13.532  0.00  0.00    +0.000 A 
ATOM     28  N   UNL     1       8.002   5.545  14.355  0.00  0.00    +0.000 NA
ATOM     29  N   UNL     1       7.467   5.436  15.611  0.00  0.00    +0.000 NA
ATOM     30  C   UNL     1       6.367   4.708  15.554  0.00  0.00    +0.000 A 
ENDBRANCH  24  30
ENDBRANCH  21  24
ENDBRANCH   1  21
TORSDOF 6
ENDMDL
MODEL 9
REMARK VINA RESULT:      -8.1      0.732      1.488
REMARK  Name = 
REMARK  9 active torsions:
REMARK  status: ('A' for Active; 'I' for Inactive)
REMARK    1  A    between atoms: C_1  and  N_2
REMARK    2  A    between atoms: C_6  and  C_7
REMARK    3  A    between atoms: C_7  and  C_8
REMARK    4  A    between atoms: C_8  and  C_9
REMARK    5  A    between atoms: C_8  and  C_10
REMARK    6  A    between atoms: C_8  and  C_11
REMARK    7  A    between atoms: C_15  and  N_16
REMARK    8  A    between atoms: C_17  and  C_19
REMARK    9  A    between atoms: C_23  and  C_24
REMARK                            x       y       z     vdW  Elec       q    Type
REMARK                         _______ _______ _______ _____ _____    ______ ____
ROOT
ATOM      1  C   UNL     1       4.759   5.493  17.265  0.00  0.00    +0.000 A 
ATOM      2  C   UNL     1       4.121   4.233  17.270  0.00  0.00    +0.000 A 
ATOM      3  C   UNL     1       2.861   4.055  17.829  0.00  0.00    +0.000 A 
ATOM      4  C   UNL     1       2.203   5.129  18.412  0.00  0.00    +0.000 A 
ATOM      5  C   UNL     1       2.806   6.386  18.451  0.00  0.00    +0.000 A 
ATOM      6  C   UNL     1       4.077   6.565  17.872  0.00  0.00    +0.000 A 
ENDROOT
BRANCH   5   7
ATOM      7  N   UNL     1       2.189   7.505  19.050  0.00  0.00    +0.000 N 
ATOM      8  C   UNL     1       1.887   8.707  18.439  0.00  0.00    +0.000 C 
ATOM      9  O   UNL     1       2.080   9.021  17.269  0.00  0.00    +0.000 OA
ATOM     10  H   UNL     1       1.883   7.418  20.014  0.00  0.00    +0.000 HD
BRANCH   8  11
ATOM     11  C   UNL     1       1.221   9.704  19.336  0.00  0.00    +0.000 A 
ATOM     12  C   UNL     1       1.064  10.996  18.891  0.00  0.00    +0.000 A 
ATOM     13  C   UNL     1       0.444  11.843  19.767  0.00  0.00    +0.000 A 
ATOM     14  N   UNL     1       0.010  11.457  20.982  0.00  0.00    +0.000 NA
ATOM     15  C   UNL     1       0.200  10.163  21.342  0.00  0.00    +0.000 A 
ATOM     16  N   UNL     1       0.806   9.252  20.546  0.00  0.00    +0.000 NA
BRANCH  15  17
ATOM     17  C   UNL     1      -0.304   9.702  22.717  0.00  0.00    +0.000 C 
ATOM     18  F   UNL     1      -1.107  10.606  23.353  0.00  0.00    +0.000 F 
ATOM     19  F   UNL     1      -1.039   8.550  22.648  0.00  0.00    +0.000 F 
ATOM     20  F   UNL     1       0.712   9.434  23.591  0.00  0.00    +0.000 F 
ENDBRANCH  15  17
ENDBRANCH   8  11
ENDBRANCH   5   7
BRANCH   1  21
ATOM     21  C   UNL     1       6.162   5.620  16.604  0.00  0.00    +0.000 C 
ATOM     22  C   UNL     1       6.792   4.204  16.651  0.00  0.00    +0.000 C 
ATOM     23  C   UNL     1       6.955   6.617  17.491  0.00  0.00    +0.000 C 
BRANCH  21  24
ATOM     24  C   UNL     1       6.141   6.113  15.111  0.00  0.00    +0.000 C 
BRANCH  24  30
ATOM     25  C   UNL     1       8.331   5.630  12.833  0.00  0.00    +0.000 C 
ATOM     26  N   UNL     1       7.146   4.858  13.089  0.00  0.00    +0.000 N 
ATOM     27  C   UNL     1       6.774   3.760  12.371  0.00  0.00    +0.000 A 
ATOM     28  N   UNL     1       5.685   3.246  12.885  0.00  0.00    +0.000 NA
ATOM     29  N   UNL     1       5.343   4.015  13.966  0.00  0.00    +0.000 NA
ATOM     30  C   UNL     1       6.195   5.018  14.073  0.00  0.00    +0.000 A 
ENDBRANCH  24  30
ENDBRANCH  21  24
ENDBRANCH   1  21
TORSDOF 6
ENDMDL
