MODEL 1
REMARK VINA RESULT:      -8.8      0.000      0.000
REMARK  Name = 
REMARK  9 active torsions:
REMARK  status: ('A' for Active; 'I' for Inactive)
REMARK    1  A    between atoms: C_1  and  N_2
REMARK    2  A    between atoms: C_6  and  C_7
REMARK    3  A    between atoms: C_7  and  C_8
REMARK    4  A    between atoms: C_8  and  C_9
REMARK    5  A    between atoms: C_8  and  C_10
REMARK    6  A    between atoms: C_8  and  C_11
REMARK    7  A    between atoms: C_15  and  N_16
REMARK    8  A    between atoms: C_17  and  C_19
REMARK    9  A    between atoms: C_23  and  C_24
REMARK                            x       y       z     vdW  Elec       q    Type
REMARK                         _______ _______ _______ _____ _____    ______ ____
ROOT
ATOM      1  C   UNL     1       4.450   5.464  17.119  0.00  0.00    +0.000 A 
ATOM      2  C   UNL     1       3.993   4.172  17.455  0.00  0.00    +0.000 A 
ATOM      3  C   UNL     1       2.890   3.976  18.279  0.00  0.00    +0.000 A 
ATOM      4  C   UNL     1       2.235   5.067  18.827  0.00  0.00    +0.000 A 
ATOM      5  C   UNL     1       2.690   6.364  18.585  0.00  0.00    +0.000 A 
ATOM      6  C   UNL     1       3.790   6.554  17.721  0.00  0.00    +0.000 A 
ENDROOT
BRANCH   5   7
ATOM      7  N   UNL     1       2.101   7.498  19.179  0.00  0.00    +0.000 N 
ATOM      8  C   UNL     1       1.817   8.704  18.557  0.00  0.00    +0.000 C 
ATOM      9  O   UNL     1       2.014   8.997  17.383  0.00  0.00    +0.000 OA
ATOM     10  H   UNL     1       1.798   7.431  20.146  0.00  0.00    +0.000 HD
BRANCH   8  11
ATOM     11  C   UNL     1       1.181   9.720  19.452  0.00  0.00    +0.000 A 
ATOM     12  C   UNL     1       1.082  11.037  19.020  0.00  0.00    +0.000 A 
ATOM     13  C   UNL     1       0.487  11.964  19.864  0.00  0.00    +0.000 A 
ATOM     14  C   UNL     1       0.013  11.546  21.105  0.00  0.00    +0.000 A 
ATOM     15  C   UNL     1       0.139  10.203  21.477  0.00  0.00    +0.000 A 
ATOM     16  N   UNL     1       0.725   9.278  20.658  0.00  0.00    +0.000 NA
BRANCH  15  17
ATOM     17  C   UNL     1      -0.388   9.748  22.834  0.00  0.00    +0.000 C 
ATOM     18  F   UNL     1      -1.072   8.568  22.782  0.00  0.00    +0.000 F 
ATOM     19  F   UNL     1       0.605   9.557  23.748  0.00  0.00    +0.000 F 
ATOM     20  F   UNL     1      -1.247  10.646  23.393  0.00  0.00    +0.000 F 
ENDBRANCH  15  17
ENDBRANCH   8  11
ENDBRANCH   5   7
BRANCH   1  21
ATOM     21  C   UNL     1       5.699   5.636  16.202  0.00  0.00    +0.000 C 
ATOM     22  C   UNL     1       6.935   5.959  17.092  0.00  0.00    +0.000 C 
ATOM     23  C   UNL     1       5.361   6.847  15.298  0.00  0.00    +0.000 C 
BRANCH  21  24
ATOM     24  C   UNL     1       6.037   4.363  15.349  0.00  0.00    +0.000 C 
BRANCH  24  30
ATOM     25  C   UNL     1       5.462   3.214  12.422  0.00  0.00    +0.000 C 
ATOM     26  N   UNL     1       6.516   4.106  12.822  0.00  0.00    +0.000 N 
ATOM     27  C   UNL     1       7.465   4.605  11.979  0.00  0.00    +0.000 A 
ATOM     28  N   UNL     1       8.251   5.419  12.636  0.00  0.00    +0.000 NA
ATOM     29  N   UNL     1       7.804   5.463  13.933  0.00  0.00    +0.000 NA
ATOM     30  C   UNL     1       6.780   4.639  14.063  0.00  0.00    +0.000 A 
ENDBRANCH  24  30
ENDBRANCH  21  24
ENDBRANCH   1  21
TORSDOF 6
ENDMDL
MODEL 2
REMARK VINA RESULT:      -8.5      5.629      7.014
REMARK  Name = 
REMARK  9 active torsions:
REMARK  status: ('A' for Active; 'I' for Inactive)
REMARK    1  A    between atoms: C_1  and  N_2
REMARK    2  A    between atoms: C_6  and  C_7
REMARK    3  A    between atoms: C_7  and  C_8
REMARK    4  A    between atoms: C_8  and  C_9
REMARK    5  A    between atoms: C_8  and  C_10
REMARK    6  A    between atoms: C_8  and  C_11
REMARK    7  A    between atoms: C_15  and  N_16
REMARK    8  A    between atoms: C_17  and  C_19
REMARK    9  A    between atoms: C_23  and  C_24
REMARK                            x       y       z     vdW  Elec       q    Type
REMARK                         _______ _______ _______ _____ _____    ______ ____
ROOT
ATOM      1  C   UNL     1       6.433   6.222  17.347  0.00  0.00    +0.000 A 
ATOM      2  C   UNL     1       6.981   5.385  18.342  0.00  0.00    +0.000 A 
ATOM      3  C   UNL     1       7.955   5.837  19.226  0.00  0.00    +0.000 A 
ATOM      4  C   UNL     1       8.443   7.129  19.114  0.00  0.00    +0.000 A 
ATOM      5  C   UNL     1       7.987   7.975  18.102  0.00  0.00    +0.000 A 
ATOM      6  C   UNL     1       6.975   7.518  17.231  0.00  0.00    +0.000 A 
ENDROOT
BRANCH   5   7
ATOM      7  N   UNL     1       8.506   9.270  17.905  0.00  0.00    +0.000 N 
ATOM      8  C   UNL     1       8.975  10.132  18.885  0.00  0.00    +0.000 C 
ATOM      9  O   UNL     1       9.034   9.920  20.092  0.00  0.00    +0.000 OA
ATOM     10  H   UNL     1       8.605   9.609  16.953  0.00  0.00    +0.000 HD
BRANCH   8  11
ATOM     11  C   UNL     1       9.473  11.442  18.363  0.00  0.00    +0.000 A 
ATOM     12  C   UNL     1      10.663  11.479  17.647  0.00  0.00    +0.000 A 
ATOM     13  C   UNL     1      11.106  12.704  17.170  0.00  0.00    +0.000 A 
ATOM     14  C   UNL     1      10.349  13.845  17.421  0.00  0.00    +0.000 A 
ATOM     15  C   UNL     1       9.156  13.738  18.145  0.00  0.00    +0.000 A 
ATOM     16  N   UNL     1       8.707  12.539  18.624  0.00  0.00    +0.000 NA
BRANCH  15  17
ATOM     17  C   UNL     1       8.327  14.989  18.412  0.00  0.00    +0.000 C 
ATOM     18  F   UNL     1       7.865  15.588  17.275  0.00  0.00    +0.000 F 
ATOM     19  F   UNL     1       7.221  14.737  19.169  0.00  0.00    +0.000 F 
ATOM     20  F   UNL     1       9.025  15.953  19.076  0.00  0.00    +0.000 F 
ENDBRANCH  15  17
ENDBRANCH   8  11
ENDBRANCH   5   7
BRANCH   1  21
ATOM     21  C   UNL     1       5.352   5.669  16.370  0.00  0.00    +0.000 C 
ATOM     22  C   UNL     1       4.970   6.788  15.356  0.00  0.00    +0.000 C 
ATOM     23  C   UNL     1       4.139   5.331  17.272  0.00  0.00    +0.000 C 
BRANCH  21  24
ATOM     24  C   UNL     1       5.822   4.416  15.551  0.00  0.00    +0.000 C 
BRANCH  24  30
ATOM     25  C   UNL     1       5.513   3.445  12.521  0.00  0.00    +0.000 C 
ATOM     26  N   UNL     1       6.552   4.269  13.076  0.00  0.00    +0.000 N 
ATOM     27  C   UNL     1       7.601   4.771  12.363  0.00  0.00    +0.000 A 
ATOM     28  N   UNL     1       8.344   5.517  13.141  0.00  0.00    +0.000 NA
ATOM     29  N   UNL     1       7.767   5.512  14.385  0.00  0.00    +0.000 NA
ATOM     30  C   UNL     1       6.705   4.726  14.364  0.00  0.00    +0.000 A 
ENDBRANCH  24  30
ENDBRANCH  21  24
ENDBRANCH   1  21
TORSDOF 6
ENDMDL
MODEL 3
REMARK VINA RESULT:      -8.5      8.152     10.596
REMARK  Name = 
REMARK  9 active torsions:
REMARK  status: ('A' for Active; 'I' for Inactive)
REMARK    1  A    between atoms: C_1  and  N_2
REMARK    2  A    between atoms: C_6  and  C_7
REMARK    3  A    between atoms: C_7  and  C_8
REMARK    4  A    between atoms: C_8  and  C_9
REMARK    5  A    between atoms: C_8  and  C_10
REMARK    6  A    between atoms: C_8  and  C_11
REMARK    7  A    between atoms: C_15  and  N_16
REMARK    8  A    between atoms: C_17  and  C_19
REMARK    9  A    between atoms: C_23  and  C_24
REMARK                            x       y       z     vdW  Elec       q    Type
REMARK                         _______ _______ _______ _____ _____    ______ ____
ROOT
ATOM      1  C   UNL     1      10.517  12.542  19.127  0.00  0.00    +0.000 A 
ATOM      2  C   UNL     1      10.188  12.994  20.423  0.00  0.00    +0.000 A 
ATOM      3  C   UNL     1       9.554  12.171  21.347  0.00  0.00    +0.000 A 
ATOM      4  C   UNL     1       9.190  10.882  20.991  0.00  0.00    +0.000 A 
ATOM      5  C   UNL     1       9.428  10.410  19.700  0.00  0.00    +0.000 A 
ATOM      6  C   UNL     1      10.101  11.240  18.778  0.00  0.00    +0.000 A 
ENDROOT
BRANCH   5   7
ATOM      7  N   UNL     1       9.011   9.134  19.270  0.00  0.00    +0.000 N 
ATOM      8  C   UNL     1       8.156   8.854  18.216  0.00  0.00    +0.000 C 
ATOM      9  O   UNL     1       7.621   9.660  17.462  0.00  0.00    +0.000 OA
ATOM     10  H   UNL     1       9.404   8.319  19.732  0.00  0.00    +0.000 HD
BRANCH   8  11
ATOM     11  C   UNL     1       7.907   7.396  17.998  0.00  0.00    +0.000 A 
ATOM     12  C   UNL     1       8.170   6.501  19.028  0.00  0.00    +0.000 A 
ATOM     13  C   UNL     1       7.930   5.153  18.806  0.00  0.00    +0.000 A 
ATOM     14  C   UNL     1       7.437   4.744  17.569  0.00  0.00    +0.000 A 
ATOM     15  C   UNL     1       7.189   5.698  16.575  0.00  0.00    +0.000 A 
ATOM     16  N   UNL     1       7.422   7.030  16.778  0.00  0.00    +0.000 NA
BRANCH  15  17
ATOM     17  C   UNL     1       6.643   5.248  15.225  0.00  0.00    +0.000 C 
ATOM     18  F   UNL     1       5.540   5.946  14.825  0.00  0.00    +0.000 F 
ATOM     19  F   UNL     1       7.550   5.387  14.217  0.00  0.00    +0.000 F 
ATOM     20  F   UNL     1       6.270   3.937  15.218  0.00  0.00    +0.000 F 
ENDBRANCH  15  17
ENDBRANCH   8  11
ENDBRANCH   5   7
BRANCH   1  21
ATOM     21  C   UNL     1      11.215  13.503  18.119  0.00  0.00    +0.000 C 
ATOM     22  C   UNL     1      12.113  12.663  17.163  0.00  0.00    +0.000 C 
ATOM     23  C   UNL     1      12.092  14.429  18.998  0.00  0.00    +0.000 C 
BRANCH  21  24
ATOM     24  C   UNL     1      10.215  14.331  17.239  0.00  0.00    +0.000 C 
BRANCH  24  30
ATOM     25  C   UNL     1       8.518  16.007  19.367  0.00  0.00    +0.000 C 
ATOM     26  N   UNL     1       9.462  16.511  18.407  0.00  0.00    +0.000 N 
ATOM     27  C   UNL     1       9.777  17.829  18.254  0.00  0.00    +0.000 A 
ATOM     28  N   UNL     1      10.699  17.955  17.334  0.00  0.00    +0.000 NA
ATOM     29  N   UNL     1      11.000  16.697  16.879  0.00  0.00    +0.000 NA
ATOM     30  C   UNL     1      10.227  15.821  17.495  0.00  0.00    +0.000 A 
ENDBRANCH  24  30
ENDBRANCH  21  24
ENDBRANCH   1  21
TORSDOF 6
ENDMDL
MODEL 4
REMARK VINA RESULT:      -8.4      1.639      2.120
REMARK  Name = 
REMARK  9 active torsions:
REMARK  status: ('A' for Active; 'I' for Inactive)
REMARK    1  A    between atoms: C_1  and  N_2
REMARK    2  A    between atoms: C_6  and  C_7
REMARK    3  A    between atoms: C_7  and  C_8
REMARK    4  A    between atoms: C_8  and  C_9
REMARK    5  A    between atoms: C_8  and  C_10
REMARK    6  A    between atoms: C_8  and  C_11
REMARK    7  A    between atoms: C_15  and  N_16
REMARK    8  A    between atoms: C_17  and  C_19
REMARK    9  A    between atoms: C_23  and  C_24
REMARK                            x       y       z     vdW  Elec       q    Type
REMARK                         _______ _______ _______ _____ _____    ______ ____
ROOT
ATOM      1  C   UNL     1       4.537   4.800  17.597  0.00  0.00    +0.000 A 
ATOM      2  C   UNL     1       3.984   3.504  17.682  0.00  0.00    +0.000 A 
ATOM      3  C   UNL     1       2.800   3.257  18.368  0.00  0.00    +0.000 A 
ATOM      4  C   UNL     1       2.154   4.291  19.026  0.00  0.00    +0.000 A 
ATOM      5  C   UNL     1       2.696   5.576  19.034  0.00  0.00    +0.000 A 
ATOM      6  C   UNL     1       3.881   5.825  18.308  0.00  0.00    +0.000 A 
ENDROOT
BRANCH   5   7
ATOM      7  N   UNL     1       2.114   6.641  19.749  0.00  0.00    +0.000 N 
ATOM      8  C   UNL     1       1.895   7.929  19.284  0.00  0.00    +0.000 C 
ATOM      9  O   UNL     1       2.155   8.368  18.170  0.00  0.00    +0.000 OA
ATOM     10  H   UNL     1       1.763   6.457  20.685  0.00  0.00    +0.000 HD
BRANCH   8  11
ATOM     11  C   UNL     1       1.248   8.838  20.280  0.00  0.00    +0.000 A 
ATOM     12  C   UNL     1       1.142   8.431  21.604  0.00  0.00    +0.000 A 
ATOM     13  C   UNL     1       0.541   9.291  22.512  0.00  0.00    +0.000 A 
ATOM     14  C   UNL     1       0.068  10.523  22.069  0.00  0.00    +0.000 A 
ATOM     15  C   UNL     1       0.210  10.875  20.722  0.00  0.00    +0.000 A 
ATOM     16  N   UNL     1       0.798  10.038  19.815  0.00  0.00    +0.000 NA
BRANCH  15  17
ATOM     17  C   UNL     1      -0.304  12.228  20.243  0.00  0.00    +0.000 C 
ATOM     18  F   UNL     1      -0.113  13.233  21.148  0.00  0.00    +0.000 F 
ATOM     19  F   UNL     1       0.304  12.647  19.096  0.00  0.00    +0.000 F 
ATOM     20  F   UNL     1      -1.641  12.221  19.979  0.00  0.00    +0.000 F 
ENDBRANCH  15  17
ENDBRANCH   8  11
ENDBRANCH   5   7
BRANCH   1  21
ATOM     21  C   UNL     1       5.874   5.028  16.828  0.00  0.00    +0.000 C 
ATOM     22  C   UNL     1       7.060   4.874  17.826  0.00  0.00    +0.000 C 
ATOM     23  C   UNL     1       5.792   6.489  16.319  0.00  0.00    +0.000 C 
BRANCH  21  24
ATOM     24  C   UNL     1       6.103   4.023  15.646  0.00  0.00    +0.000 C 
BRANCH  24  30
ATOM     25  C   UNL     1       5.753   3.386  12.532  0.00  0.00    +0.000 C 
ATOM     26  N   UNL     1       6.709   4.269  13.145  0.00  0.00    +0.000 N 
ATOM     27  C   UNL     1       7.645   4.986  12.460  0.00  0.00    +0.000 A 
ATOM     28  N   UNL     1       8.329   5.726  13.295  0.00  0.00    +0.000 NA
ATOM     29  N   UNL     1       7.826   5.497  14.551  0.00  0.00    +0.000 NA
ATOM     30  C   UNL     1       6.873   4.586  14.473  0.00  0.00    +0.000 A 
ENDBRANCH  24  30
ENDBRANCH  21  24
ENDBRANCH   1  21
TORSDOF 6
ENDMDL
MODEL 5
REMARK VINA RESULT:      -8.4      2.006      3.031
REMARK  Name = 
REMARK  9 active torsions:
REMARK  status: ('A' for Active; 'I' for Inactive)
REMARK    1  A    between atoms: C_1  and  N_2
REMARK    2  A    between atoms: C_6  and  C_7
REMARK    3  A    between atoms: C_7  and  C_8
REMARK    4  A    between atoms: C_8  and  C_9
REMARK    5  A    between atoms: C_8  and  C_10
REMARK    6  A    between atoms: C_8  and  C_11
REMARK    7  A    between atoms: C_15  and  N_16
REMARK    8  A    between atoms: C_17  and  C_19
REMARK    9  A    between atoms: C_23  and  C_24
REMARK                            x       y       z     vdW  Elec       q    Type
REMARK                         _______ _______ _______ _____ _____    ______ ____
ROOT
ATOM      1  C   UNL     1       4.609   4.913  16.790  0.00  0.00    +0.000 A 
ATOM      2  C   UNL     1       4.518   3.676  17.462  0.00  0.00    +0.000 A 
ATOM      3  C   UNL     1       3.639   3.480  18.522  0.00  0.00    +0.000 A 
ATOM      4  C   UNL     1       2.854   4.531  18.971  0.00  0.00    +0.000 A 
ATOM      5  C   UNL     1       2.957   5.794  18.388  0.00  0.00    +0.000 A 
ATOM      6  C   UNL     1       3.828   5.974  17.291  0.00  0.00    +0.000 A 
ENDROOT
BRANCH   5   7
ATOM      7  N   UNL     1       2.233   6.907  18.857  0.00  0.00    +0.000 N 
ATOM      8  C   UNL     1       2.207   8.174  18.295  0.00  0.00    +0.000 C 
ATOM      9  O   UNL     1       2.795   8.550  17.287  0.00  0.00    +0.000 OA
ATOM     10  H   UNL     1       1.620   6.780  19.657  0.00  0.00    +0.000 HD
BRANCH   8  11
ATOM     11  C   UNL     1       1.334   9.149  19.019  0.00  0.00    +0.000 A 
ATOM     12  C   UNL     1       0.798  10.227  18.325  0.00  0.00    +0.000 A 
ATOM     13  C   UNL     1      -0.011  11.118  19.015  0.00  0.00    +0.000 A 
ATOM     14  C   UNL     1      -0.256  10.905  20.369  0.00  0.00    +0.000 A 
ATOM     15  C   UNL     1       0.311   9.796  21.008  0.00  0.00    +0.000 A 
ATOM     16  N   UNL     1       1.112   8.910  20.343  0.00  0.00    +0.000 NA
BRANCH  15  17
ATOM     17  C   UNL     1       0.035   9.563  22.490  0.00  0.00    +0.000 C 
ATOM     18  F   UNL     1       1.133   9.149  23.188  0.00  0.00    +0.000 F 
ATOM     19  F   UNL     1      -0.404  10.685  23.127  0.00  0.00    +0.000 F 
ATOM     20  F   UNL     1      -0.917   8.611  22.704  0.00  0.00    +0.000 F 
ENDBRANCH  15  17
ENDBRANCH   8  11
ENDBRANCH   5   7
BRANCH   1  21
ATOM     21  C   UNL     1       5.618   5.090  15.615  0.00  0.00    +0.000 C 
ATOM     22  C   UNL     1       5.429   6.508  15.000  0.00  0.00    +0.000 C 
ATOM     23  C   UNL     1       5.219   4.004  14.584  0.00  0.00    +0.000 C 
BRANCH  21  24
ATOM     24  C   UNL     1       7.120   4.946  16.045  0.00  0.00    +0.000 C 
BRANCH  24  30
ATOM     25  C   UNL     1       7.535   7.849  17.317  0.00  0.00    +0.000 C 
ATOM     26  N   UNL     1       7.604   6.580  17.988  0.00  0.00    +0.000 N 
ATOM     27  C   UNL     1       7.875   6.424  19.316  0.00  0.00    +0.000 A 
ATOM     28  N   UNL     1       7.821   5.154  19.628  0.00  0.00    +0.000 NA
ATOM     29  N   UNL     1       7.501   4.465  18.487  0.00  0.00    +0.000 NA
ATOM     30  C   UNL     1       7.408   5.316  17.481  0.00  0.00    +0.000 A 
ENDBRANCH  24  30
ENDBRANCH  21  24
ENDBRANCH   1  21
TORSDOF 6
ENDMDL
MODEL 6
REMARK VINA RESULT:      -8.3      4.371      9.494
REMARK  Name = 
REMARK  9 active torsions:
REMARK  status: ('A' for Active; 'I' for Inactive)
REMARK    1  A    between atoms: C_1  and  N_2
REMARK    2  A    between atoms: C_6  and  C_7
REMARK    3  A    between atoms: C_7  and  C_8
REMARK    4  A    between atoms: C_8  and  C_9
REMARK    5  A    between atoms: C_8  and  C_10
REMARK    6  A    between atoms: C_8  and  C_11
REMARK    7  A    between atoms: C_15  and  N_16
REMARK    8  A    between atoms: C_17  and  C_19
REMARK    9  A    between atoms: C_23  and  C_24
REMARK                            x       y       z     vdW  Elec       q    Type
REMARK                         _______ _______ _______ _____ _____    ______ ____
ROOT
ATOM      1  C   UNL     1       0.044  10.288  20.113  0.00  0.00    +0.000 A 
ATOM      2  C   UNL     1      -0.320   9.999  21.445  0.00  0.00    +0.000 A 
ATOM      3  C   UNL     1       0.253   8.947  22.151  0.00  0.00    +0.000 A 
ATOM      4  C   UNL     1       1.179   8.123  21.531  0.00  0.00    +0.000 A 
ATOM      5  C   UNL     1       1.522   8.321  20.193  0.00  0.00    +0.000 A 
ATOM      6  C   UNL     1       0.959   9.411  19.495  0.00  0.00    +0.000 A 
ENDROOT
BRANCH   5   7
ATOM      7  N   UNL     1       2.402   7.466  19.501  0.00  0.00    +0.000 N 
ATOM      8  C   UNL     1       2.528   6.095  19.670  0.00  0.00    +0.000 C 
ATOM      9  O   UNL     1       1.891   5.382  20.437  0.00  0.00    +0.000 OA
ATOM     10  H   UNL     1       2.976   7.862  18.763  0.00  0.00    +0.000 HD
BRANCH   8  11
ATOM     11  C   UNL     1       3.548   5.459  18.780  0.00  0.00    +0.000 A 
ATOM     12  C   UNL     1       3.125   4.653  17.730  0.00  0.00    +0.000 A 
ATOM     13  C   UNL     1       4.088   4.074  16.916  0.00  0.00    +0.000 A 
ATOM     14  C   UNL     1       5.434   4.318  17.176  0.00  0.00    +0.000 A 
ATOM     15  C   UNL     1       5.792   5.144  18.247  0.00  0.00    +0.000 A 
ATOM     16  N   UNL     1       4.856   5.720  19.060  0.00  0.00    +0.000 NA
BRANCH  15  17
ATOM     17  C   UNL     1       7.267   5.415  18.524  0.00  0.00    +0.000 C 
ATOM     18  F   UNL     1       7.556   5.537  19.853  0.00  0.00    +0.000 F 
ATOM     19  F   UNL     1       8.081   4.423  18.062  0.00  0.00    +0.000 F 
ATOM     20  F   UNL     1       7.710   6.566  17.944  0.00  0.00    +0.000 F 
ENDBRANCH  15  17
ENDBRANCH   8  11
ENDBRANCH   5   7
BRANCH   1  21
ATOM     21  C   UNL     1      -0.635  11.469  19.356  0.00  0.00    +0.000 C 
ATOM     22  C   UNL     1      -1.751  12.070  20.261  0.00  0.00    +0.000 C 
ATOM     23  C   UNL     1      -1.261  10.823  18.095  0.00  0.00    +0.000 C 
BRANCH  21  24
ATOM     24  C   UNL     1       0.354  12.626  18.975  0.00  0.00    +0.000 C 
BRANCH  24  30
ATOM     25  C   UNL     1      -0.558  15.616  19.649  0.00  0.00    +0.000 C 
ATOM     26  N   UNL     1       0.380  14.801  20.373  0.00  0.00    +0.000 N 
ATOM     27  C   UNL     1       1.047  15.203  21.492  0.00  0.00    +0.000 A 
ATOM     28  N   UNL     1       1.788  14.221  21.938  0.00  0.00    +0.000 NA
ATOM     29  N   UNL     1       1.596  13.151  21.101  0.00  0.00    +0.000 NA
ATOM     30  C   UNL     1       0.777  13.507  20.128  0.00  0.00    +0.000 A 
ENDBRANCH  24  30
ENDBRANCH  21  24
ENDBRANCH   1  21
TORSDOF 6
ENDMDL
MODEL 7
REMARK VINA RESULT:      -8.3      5.869      7.778
REMARK  Name = 
REMARK  9 active torsions:
REMARK  status: ('A' for Active; 'I' for Inactive)
REMARK    1  A    between atoms: C_1  and  N_2
REMARK    2  A    between atoms: C_6  and  C_7
REMARK    3  A    between atoms: C_7  and  C_8
REMARK    4  A    between atoms: C_8  and  C_9
REMARK    5  A    between atoms: C_8  and  C_10
REMARK    6  A    between atoms: C_8  and  C_11
REMARK    7  A    between atoms: C_15  and  N_16
REMARK    8  A    between atoms: C_17  and  C_19
REMARK    9  A    between atoms: C_23  and  C_24
REMARK                            x       y       z     vdW  Elec       q    Type
REMARK                         _______ _______ _______ _____ _____    ______ ____
ROOT
ATOM      1  C   UNL     1       6.170   6.398  17.575  0.00  0.00    +0.000 A 
ATOM      2  C   UNL     1       6.844   5.471  18.398  0.00  0.00    +0.000 A 
ATOM      3  C   UNL     1       7.987   5.819  19.110  0.00  0.00    +0.000 A 
ATOM      4  C   UNL     1       8.516   7.094  18.988  0.00  0.00    +0.000 A 
ATOM      5  C   UNL     1       7.929   8.027  18.133  0.00  0.00    +0.000 A 
ATOM      6  C   UNL     1       6.751   7.675  17.439  0.00  0.00    +0.000 A 
ENDROOT
BRANCH   5   7
ATOM      7  N   UNL     1       8.473   9.309  17.921  0.00  0.00    +0.000 N 
ATOM      8  C   UNL     1       8.981  10.162  18.889  0.00  0.00    +0.000 C 
ATOM      9  O   UNL     1       9.060   9.952  20.094  0.00  0.00    +0.000 OA
ATOM     10  H   UNL     1       8.560   9.643  16.966  0.00  0.00    +0.000 HD
BRANCH   8  11
ATOM     11  C   UNL     1       9.498  11.459  18.353  0.00  0.00    +0.000 A 
ATOM     12  C   UNL     1      10.693  11.474  17.644  0.00  0.00    +0.000 A 
ATOM     13  C   UNL     1      11.153  12.687  17.153  0.00  0.00    +0.000 A 
ATOM     14  C   UNL     1      10.408  13.840  17.385  0.00  0.00    +0.000 A 
ATOM     15  C   UNL     1       9.210  13.756  18.103  0.00  0.00    +0.000 A 
ATOM     16  N   UNL     1       8.744  12.569  18.595  0.00  0.00    +0.000 NA
BRANCH  15  17
ATOM     17  C   UNL     1       8.393  15.021  18.349  0.00  0.00    +0.000 C 
ATOM     18  F   UNL     1       7.490  14.894  19.364  0.00  0.00    +0.000 F 
ATOM     19  F   UNL     1       9.169  16.092  18.679  0.00  0.00    +0.000 F 
ATOM     20  F   UNL     1       7.669  15.401  17.259  0.00  0.00    +0.000 F 
ENDBRANCH  15  17
ENDBRANCH   8  11
ENDBRANCH   5   7
BRANCH   1  21
ATOM     21  C   UNL     1       4.900   5.961  16.785  0.00  0.00    +0.000 C 
ATOM     22  C   UNL     1       4.978   6.544  15.344  0.00  0.00    +0.000 C 
ATOM     23  C   UNL     1       3.716   6.599  17.555  0.00  0.00    +0.000 C 
BRANCH  21  24
ATOM     24  C   UNL     1       4.733   4.405  16.669  0.00  0.00    +0.000 C 
BRANCH  24  30
ATOM     25  C   UNL     1       4.529   3.133  19.595  0.00  0.00    +0.000 C 
ATOM     26  N   UNL     1       3.476   3.280  18.627  0.00  0.00    +0.000 N 
ATOM     27  C   UNL     1       2.188   2.875  18.823  0.00  0.00    +0.000 A 
ATOM     28  N   UNL     1       1.466   3.190  17.778  0.00  0.00    +0.000 NA
ATOM     29  N   UNL     1       2.293   3.820  16.883  0.00  0.00    +0.000 NA
ATOM     30  C   UNL     1       3.519   3.842  17.373  0.00  0.00    +0.000 A 
ENDBRANCH  24  30
ENDBRANCH  21  24
ENDBRANCH   1  21
TORSDOF 6
ENDMDL
MODEL 8
REMARK VINA RESULT:      -8.2      2.171      2.555
REMARK  Name = 
REMARK  9 active torsions:
REMARK  status: ('A' for Active; 'I' for Inactive)
REMARK    1  A    between atoms: C_1  and  N_2
REMARK    2  A    between atoms: C_6  and  C_7
REMARK    3  A    between atoms: C_7  and  C_8
REMARK    4  A    between atoms: C_8  and  C_9
REMARK    5  A    between atoms: C_8  and  C_10
REMARK    6  A    between atoms: C_8  and  C_11
REMARK    7  A    between atoms: C_15  and  N_16
REMARK    8  A    between atoms: C_17  and  C_19
REMARK    9  A    between atoms: C_23  and  C_24
REMARK                            x       y       z     vdW  Elec       q    Type
REMARK                         _______ _______ _______ _____ _____    ______ ____
ROOT
ATOM      1  C   UNL     1       4.415   5.001  17.200  0.00  0.00    +0.000 A 
ATOM      2  C   UNL     1       3.640   3.823  17.132  0.00  0.00    +0.000 A 
ATOM      3  C   UNL     1       2.323   3.786  17.575  0.00  0.00    +0.000 A 
ATOM      4  C   UNL     1       1.751   4.915  18.141  0.00  0.00    +0.000 A 
ATOM      5  C   UNL     1       2.496   6.084  18.298  0.00  0.00    +0.000 A 
ATOM      6  C   UNL     1       3.822   6.123  17.815  0.00  0.00    +0.000 A 
ENDROOT
BRANCH   5   7
ATOM      7  N   UNL     1       1.981   7.232  18.933  0.00  0.00    +0.000 N 
ATOM      8  C   UNL     1       1.606   7.344  20.263  0.00  0.00    +0.000 C 
ATOM      9  O   UNL     1       1.665   6.474  21.125  0.00  0.00    +0.000 OA
ATOM     10  H   UNL     1       1.918   8.091  18.395  0.00  0.00    +0.000 HD
BRANCH   8  11
ATOM     11  C   UNL     1       1.101   8.698  20.645  0.00  0.00    +0.000 A 
ATOM     12  C   UNL     1       0.499   8.873  21.886  0.00  0.00    +0.000 A 
ATOM     13  C   UNL     1       0.039  10.138  22.222  0.00  0.00    +0.000 A 
ATOM     14  C   UNL     1       0.195  11.182  21.314  0.00  0.00    +0.000 A 
ATOM     15  C   UNL     1       0.815  10.939  20.082  0.00  0.00    +0.000 A 
ATOM     16  N   UNL     1       1.271   9.698  19.735  0.00  0.00    +0.000 NA
BRANCH  15  17
ATOM     17  C   UNL     1       0.989  12.086  19.093  0.00  0.00    +0.000 C 
ATOM     18  F   UNL     1      -0.113  12.308  18.318  0.00  0.00    +0.000 F 
ATOM     19  F   UNL     1       1.252  13.276  19.706  0.00  0.00    +0.000 F 
ATOM     20  F   UNL     1       2.015  11.878  18.220  0.00  0.00    +0.000 F 
ENDBRANCH  15  17
ENDBRANCH   8  11
ENDBRANCH   5   7
BRANCH   1  21
ATOM     21  C   UNL     1       5.892   4.994  16.704  0.00  0.00    +0.000 C 
ATOM     22  C   UNL     1       6.820   4.603  17.891  0.00  0.00    +0.000 C 
ATOM     23  C   UNL     1       6.170   6.454  16.268  0.00  0.00    +0.000 C 
BRANCH  21  24
ATOM     24  C   UNL     1       6.159   3.987  15.530  0.00  0.00    +0.000 C 
BRANCH  24  30
ATOM     25  C   UNL     1       5.779   3.364  12.418  0.00  0.00    +0.000 C 
ATOM     26  N   UNL     1       6.729   4.257  13.023  0.00  0.00    +0.000 N 
ATOM     27  C   UNL     1       7.646   4.992  12.331  0.00  0.00    +0.000 A 
ATOM     28  N   UNL     1       8.329   5.737  13.162  0.00  0.00    +0.000 NA
ATOM     29  N   UNL     1       7.846   5.493  14.422  0.00  0.00    +0.000 NA
ATOM     30  C   UNL     1       6.905   4.569  14.352  0.00  0.00    +0.000 A 
ENDBRANCH  24  30
ENDBRANCH  21  24
ENDBRANCH   1  21
TORSDOF 6
ENDMDL
MODEL 9
REMARK VINA RESULT:      -8.2      1.930      2.353
REMARK  Name = 
REMARK  9 active torsions:
REMARK  status: ('A' for Active; 'I' for Inactive)
REMARK    1  A    between atoms: C_1  and  N_2
REMARK    2  A    between atoms: C_6  and  C_7
REMARK    3  A    between atoms: C_7  and  C_8
REMARK    4  A    between atoms: C_8  and  C_9
REMARK    5  A    between atoms: C_8  and  C_10
REMARK    6  A    between atoms: C_8  and  C_11
REMARK    7  A    between atoms: C_15  and  N_16
REMARK    8  A    between atoms: C_17  and  C_19
REMARK    9  A    between atoms: C_23  and  C_24
REMARK                            x       y       z     vdW  Elec       q    Type
REMARK                         _______ _______ _______ _____ _____    ______ ____
ROOT
ATOM      1  C   UNL     1       4.236   5.185  18.585  0.00  0.00    +0.000 A 
ATOM      2  C   UNL     1       3.974   3.859  18.990  0.00  0.00    +0.000 A 
ATOM      3  C   UNL     1       2.947   3.552  19.876  0.00  0.00    +0.000 A 
ATOM      4  C   UNL     1       2.177   4.568  20.419  0.00  0.00    +0.000 A 
ATOM      5  C   UNL     1       2.440   5.902  20.108  0.00  0.00    +0.000 A 
ATOM      6  C   UNL     1       3.463   6.201  19.182  0.00  0.00    +0.000 A 
ENDROOT
BRANCH   5   7
ATOM      7  N   UNL     1       1.732   6.972  20.691  0.00  0.00    +0.000 N 
ATOM      8  C   UNL     1       1.448   8.194  20.103  0.00  0.00    +0.000 C 
ATOM      9  O   UNL     1       1.749   8.561  18.972  0.00  0.00    +0.000 OA
ATOM     10  H   UNL     1       1.334   6.838  21.616  0.00  0.00    +0.000 HD
BRANCH   8  11
ATOM     11  C   UNL     1       0.668   9.128  20.974  0.00  0.00    +0.000 A 
ATOM     12  C   UNL     1       0.711   8.964  22.354  0.00  0.00    +0.000 A 
ATOM     13  C   UNL     1      -0.018   9.841  23.143  0.00  0.00    +0.000 A 
ATOM     14  C   UNL     1      -0.760  10.849  22.533  0.00  0.00    +0.000 A 
ATOM     15  C   UNL     1      -0.756  10.962  21.138  0.00  0.00    +0.000 A 
ATOM     16  N   UNL     1      -0.045  10.104  20.346  0.00  0.00    +0.000 NA
BRANCH  15  17
ATOM     17  C   UNL     1      -1.565  12.071  20.474  0.00  0.00    +0.000 C 
ATOM     18  F   UNL     1      -2.131  11.695  19.290  0.00  0.00    +0.000 F 
ATOM     19  F   UNL     1      -2.596  12.509  21.251  0.00  0.00    +0.000 F 
ATOM     20  F   UNL     1      -0.815  13.172  20.188  0.00  0.00    +0.000 F 
ENDBRANCH  15  17
ENDBRANCH   8  11
ENDBRANCH   5   7
BRANCH   1  21
ATOM     21  C   UNL     1       5.406   5.483  17.599  0.00  0.00    +0.000 C 
ATOM     22  C   UNL     1       6.704   5.738  18.421  0.00  0.00    +0.000 C 
ATOM     23  C   UNL     1       4.980   6.776  16.860  0.00  0.00    +0.000 C 
BRANCH  21  24
ATOM     24  C   UNL     1       5.694   4.317  16.590  0.00  0.00    +0.000 C 
BRANCH  24  30
ATOM     25  C   UNL     1       5.158   3.649  13.510  0.00  0.00    +0.000 C 
ATOM     26  N   UNL     1       6.260   4.384  14.068  0.00  0.00    +0.000 N 
ATOM     27  C   UNL     1       7.280   4.917  13.337  0.00  0.00    +0.000 A 
ATOM     28  N   UNL     1       8.098   5.562  14.129  0.00  0.00    +0.000 NA
ATOM     29  N   UNL     1       7.601   5.457  15.404  0.00  0.00    +0.000 NA
ATOM     30  C   UNL     1       6.511   4.711  15.381  0.00  0.00    +0.000 A 
ENDBRANCH  24  30
ENDBRANCH  21  24
ENDBRANCH   1  21
TORSDOF 6
ENDMDL
