MODEL 1
REMARK VINA RESULT:      -9.5      0.000      0.000
REMARK  Name = 
REMARK  10 active torsions:
REMARK  status: ('A' for Active; 'I' for Inactive)
REMARK    1  A    between atoms: C_1  and  C_2
REMARK    2  A    between atoms: C_2  and  S_3
REMARK    3  A    between atoms: C_2  and  C_10
REMARK    4  A    between atoms: S_3  and  C_4
REMARK    5  A    between atoms: N_8  and  C_9
REMARK    6  A    between atoms: C_13  and  O_14
REMARK    7  A    between atoms: O_14  and  C_15
REMARK    8  A    between atoms: C_19  and  N_20
REMARK    9  A    between atoms: C_21  and  C_23
REMARK   10  A    between atoms: C_27  and  C_28
REMARK                            x       y       z     vdW  Elec       q    Type
REMARK                         _______ _______ _______ _____ _____    ______ ____
ROOT
ATOM      1  C   UNL     1       5.158   4.598  17.906  0.00  0.00    +0.000 A 
ATOM      2  C   UNL     1       5.068   3.416  18.645  0.00  0.00    +0.000 A 
ATOM      3  C   UNL     1       4.141   3.284  19.677  0.00  0.00    +0.000 A 
ATOM      4  C   UNL     1       3.293   4.340  20.034  0.00  0.00    +0.000 A 
ATOM      5  C   UNL     1       3.296   5.515  19.256  0.00  0.00    +0.000 A 
ATOM      6  C   UNL     1       4.223   5.616  18.188  0.00  0.00    +0.000 A 
ENDROOT
BRANCH   5   7
ATOM      7  N   UNL     1       2.433   6.636  19.417  0.00  0.00    +0.000 N 
ATOM      8  C   UNL     1       2.430   7.850  18.749  0.00  0.00    +0.000 C 
ATOM      9  O   UNL     1       3.114   8.183  17.793  0.00  0.00    +0.000 OA
ATOM     10  H   UNL     1       1.667   6.534  20.075  0.00  0.00    +0.000 HD
BRANCH   8  11
ATOM     11  C   UNL     1       1.397   8.823  19.252  0.00  0.00    +0.000 A 
ATOM     12  C   UNL     1       0.733   9.645  18.346  0.00  0.00    +0.000 A 
ATOM     13  C   UNL     1      -0.247  10.507  18.821  0.00  0.00    +0.000 A 
ATOM     14  C   UNL     1      -0.536  10.524  20.182  0.00  0.00    +0.000 A 
ATOM     15  C   UNL     1       0.169   9.678  21.045  0.00  0.00    +0.000 A 
ATOM     16  N   UNL     1       1.141   8.825  20.593  0.00  0.00    +0.000 NA
BRANCH  15  17
ATOM     17  C   UNL     1      -0.156   9.705  22.536  0.00  0.00    +0.000 C 
ATOM     18  F   UNL     1      -0.729  10.875  22.948  0.00  0.00    +0.000 F 
ATOM     19  F   UNL     1      -1.028   8.724  22.903  0.00  0.00    +0.000 F 
ATOM     20  F   UNL     1       0.947   9.542  23.323  0.00  0.00    +0.000 F 
ENDBRANCH  15  17
ENDBRANCH   8  11
ENDBRANCH   5   7
BRANCH   1  22
ATOM     21  C   UNL     1       7.654   4.568  17.391  0.00  0.00    +0.000 C 
ATOM     22  C   UNL     1       6.235   4.798  16.839  0.00  0.00    +0.000 C 
BRANCH  22  23
ATOM     23  S   UNL     1       5.937   3.695  15.398  0.00  0.00    +0.000 S 
BRANCH  23  24
ATOM     24  C   UNL     1       6.850   4.507  14.169  0.00  0.00    +0.000 A 
ATOM     25  N   UNL     1       7.715   5.474  14.349  0.00  0.00    +0.000 NA
ATOM     26  N   UNL     1       8.251   5.798  13.122  0.00  0.00    +0.000 NA
ATOM     27  C   UNL     1       7.685   5.019  12.228  0.00  0.00    +0.000 A 
ATOM     28  N   UNL     1       6.788   4.196  12.841  0.00  0.00    +0.000 N 
ATOM     29  C   UNL     1       5.981   3.202  12.185  0.00  0.00    +0.000 C 
ENDBRANCH  23  24
ENDBRANCH  22  23
ENDBRANCH   1  22
BRANCH   4  30
ATOM     30  O   UNL     1       2.389   4.196  21.041  0.00  0.00    +0.000 OA
BRANCH  30  31
ATOM     31  C   UNL     1       1.169   3.518  20.774  0.00  0.00    +0.000 C 
ATOM     32  F   UNL     1       0.137   4.339  20.466  0.00  0.00    +0.000 F 
ATOM     33  F   UNL     1       1.325   2.659  19.744  0.00  0.00    +0.000 F 
ATOM     34  F   UNL     1       0.819   2.798  21.866  0.00  0.00    +0.000 F 
ENDBRANCH  30  31
ENDBRANCH   4  30
TORSDOF 8
ENDMDL
MODEL 2
REMARK VINA RESULT:      -9.4      1.227      1.421
REMARK  Name = 
REMARK  10 active torsions:
REMARK  status: ('A' for Active; 'I' for Inactive)
REMARK    1  A    between atoms: C_1  and  C_2
REMARK    2  A    between atoms: C_2  and  S_3
REMARK    3  A    between atoms: C_2  and  C_10
REMARK    4  A    between atoms: S_3  and  C_4
REMARK    5  A    between atoms: N_8  and  C_9
REMARK    6  A    between atoms: C_13  and  O_14
REMARK    7  A    between atoms: O_14  and  C_15
REMARK    8  A    between atoms: C_19  and  N_20
REMARK    9  A    between atoms: C_21  and  C_23
REMARK   10  A    between atoms: C_27  and  C_28
REMARK                            x       y       z     vdW  Elec       q    Type
REMARK                         _______ _______ _______ _____ _____    ______ ____
ROOT
ATOM      1  C   UNL     1       4.799   5.543  17.034  0.00  0.00    +0.000 A 
ATOM      2  C   UNL     1       4.254   4.257  17.034  0.00  0.00    +0.000 A 
ATOM      3  C   UNL     1       3.065   3.982  17.707  0.00  0.00    +0.000 A 
ATOM      4  C   UNL     1       2.394   4.973  18.435  0.00  0.00    +0.000 A 
ATOM      5  C   UNL     1       2.868   6.299  18.387  0.00  0.00    +0.000 A 
ATOM      6  C   UNL     1       4.060   6.565  17.668  0.00  0.00    +0.000 A 
ENDROOT
BRANCH   5   7
ATOM      7  N   UNL     1       2.253   7.437  18.982  0.00  0.00    +0.000 N 
ATOM      8  C   UNL     1       1.911   8.653  18.411  0.00  0.00    +0.000 C 
ATOM      9  O   UNL     1       1.972   8.975  17.234  0.00  0.00    +0.000 OA
ATOM     10  H   UNL     1       1.965   7.349  19.950  0.00  0.00    +0.000 HD
BRANCH   8  11
ATOM     11  C   UNL     1       1.336   9.646  19.386  0.00  0.00    +0.000 A 
ATOM     12  C   UNL     1       1.332  10.999  19.062  0.00  0.00    +0.000 A 
ATOM     13  C   UNL     1       0.759  11.898  19.953  0.00  0.00    +0.000 A 
ATOM     14  C   UNL     1       0.210  11.422  21.140  0.00  0.00    +0.000 A 
ATOM     15  C   UNL     1       0.250  10.050  21.414  0.00  0.00    +0.000 A 
ATOM     16  N   UNL     1       0.813   9.151  20.547  0.00  0.00    +0.000 NA
BRANCH  15  17
ATOM     17  C   UNL     1      -0.356   9.539  22.718  0.00  0.00    +0.000 C 
ATOM     18  F   UNL     1      -1.343  10.345  23.213  0.00  0.00    +0.000 F 
ATOM     19  F   UNL     1      -0.924   8.306  22.588  0.00  0.00    +0.000 F 
ATOM     20  F   UNL     1       0.561   9.427  23.722  0.00  0.00    +0.000 F 
ENDBRANCH  15  17
ENDBRANCH   8  11
ENDBRANCH   5   7
BRANCH   1  22
ATOM     21  C   UNL     1       7.135   6.505  17.369  0.00  0.00    +0.000 C 
ATOM     22  C   UNL     1       6.153   5.841  16.388  0.00  0.00    +0.000 C 
BRANCH  22  23
ATOM     23  S   UNL     1       6.897   4.308  15.698  0.00  0.00    +0.000 S 
BRANCH  23  24
ATOM     24  C   UNL     1       7.360   4.849  14.118  0.00  0.00    +0.000 A 
ATOM     25  N   UNL     1       8.275   5.743  13.837  0.00  0.00    +0.000 NA
ATOM     26  N   UNL     1       8.366   5.840  12.466  0.00  0.00    +0.000 NA
ATOM     27  C   UNL     1       7.491   5.004  11.954  0.00  0.00    +0.000 A 
ATOM     28  N   UNL     1       6.827   4.365  12.959  0.00  0.00    +0.000 N 
ATOM     29  C   UNL     1       5.800   3.373  12.784  0.00  0.00    +0.000 C 
ENDBRANCH  23  24
ENDBRANCH  22  23
ENDBRANCH   1  22
BRANCH   4  30
ATOM     30  O   UNL     1       1.231   4.692  19.084  0.00  0.00    +0.000 OA
BRANCH  30  31
ATOM     31  C   UNL     1       1.147   3.501  19.854  0.00  0.00    +0.000 C 
ATOM     32  F   UNL     1       2.327   2.852  19.997  0.00  0.00    +0.000 F 
ATOM     33  F   UNL     1       0.683   3.775  21.093  0.00  0.00    +0.000 F 
ATOM     34  F   UNL     1       0.273   2.655  19.260  0.00  0.00    +0.000 F 
ENDBRANCH  30  31
ENDBRANCH   4  30
TORSDOF 8
ENDMDL
MODEL 3
REMARK VINA RESULT:      -9.4      2.082      3.057
REMARK  Name = 
REMARK  10 active torsions:
REMARK  status: ('A' for Active; 'I' for Inactive)
REMARK    1  A    between atoms: C_1  and  C_2
REMARK    2  A    between atoms: C_2  and  S_3
REMARK    3  A    between atoms: C_2  and  C_10
REMARK    4  A    between atoms: S_3  and  C_4
REMARK    5  A    between atoms: N_8  and  C_9
REMARK    6  A    between atoms: C_13  and  O_14
REMARK    7  A    between atoms: O_14  and  C_15
REMARK    8  A    between atoms: C_19  and  N_20
REMARK    9  A    between atoms: C_21  and  C_23
REMARK   10  A    between atoms: C_27  and  C_28
REMARK                            x       y       z     vdW  Elec       q    Type
REMARK                         _______ _______ _______ _____ _____    ______ ____
ROOT
ATOM      1  C   UNL     1       4.606   4.055  16.629  0.00  0.00    +0.000 A 
ATOM      2  C   UNL     1       4.009   2.827  16.926  0.00  0.00    +0.000 A 
ATOM      3  C   UNL     1       2.880   2.758  17.740  0.00  0.00    +0.000 A 
ATOM      4  C   UNL     1       2.325   3.907  18.316  0.00  0.00    +0.000 A 
ATOM      5  C   UNL     1       2.848   5.169  17.970  0.00  0.00    +0.000 A 
ATOM      6  C   UNL     1       3.976   5.221  17.113  0.00  0.00    +0.000 A 
ENDROOT
BRANCH   5   7
ATOM      7  N   UNL     1       2.342   6.434  18.383  0.00  0.00    +0.000 N 
ATOM      8  C   UNL     1       2.610   7.697  17.880  0.00  0.00    +0.000 C 
ATOM      9  O   UNL     1       3.270   7.990  16.893  0.00  0.00    +0.000 OA
ATOM     10  H   UNL     1       1.641   6.430  19.115  0.00  0.00    +0.000 HD
BRANCH   8  11
ATOM     11  C   UNL     1       1.932   8.811  18.632  0.00  0.00    +0.000 A 
ATOM     12  C   UNL     1       1.902  10.089  18.080  0.00  0.00    +0.000 A 
ATOM     13  C   UNL     1       1.235  11.097  18.766  0.00  0.00    +0.000 A 
ATOM     14  C   UNL     1       0.621  10.802  19.979  0.00  0.00    +0.000 A 
ATOM     15  C   UNL     1       0.691   9.499  20.486  0.00  0.00    +0.000 A 
ATOM     16  N   UNL     1       1.346   8.495  19.824  0.00  0.00    +0.000 NA
BRANCH  15  17
ATOM     17  C   UNL     1       0.012   9.187  21.817  0.00  0.00    +0.000 C 
ATOM     18  F   UNL     1       0.892   8.992  22.845  0.00  0.00    +0.000 F 
ATOM     19  F   UNL     1      -0.819  10.183  22.233  0.00  0.00    +0.000 F 
ATOM     20  F   UNL     1      -0.750   8.055  21.771  0.00  0.00    +0.000 F 
ENDBRANCH  15  17
ENDBRANCH   8  11
ENDBRANCH   5   7
BRANCH   1  22
ATOM     21  C   UNL     1       5.700   3.754  14.346  0.00  0.00    +0.000 C 
ATOM     22  C   UNL     1       5.903   4.142  15.822  0.00  0.00    +0.000 C 
BRANCH  22  23
ATOM     23  S   UNL     1       6.627   5.828  15.933  0.00  0.00    +0.000 S 
BRANCH  23  24
ATOM     24  C   UNL     1       7.298   5.794  17.530  0.00  0.00    +0.000 A 
ATOM     25  N   UNL     1       7.448   4.738  18.291  0.00  0.00    +0.000 NA
ATOM     26  N   UNL     1       8.065   5.140  19.456  0.00  0.00    +0.000 NA
ATOM     27  C   UNL     1       8.263   6.436  19.370  0.00  0.00    +0.000 A 
ATOM     28  N   UNL     1       7.786   6.893  18.177  0.00  0.00    +0.000 N 
ATOM     29  C   UNL     1       7.831   8.258  17.725  0.00  0.00    +0.000 C 
ENDBRANCH  23  24
ENDBRANCH  22  23
ENDBRANCH   1  22
BRANCH   4  30
ATOM     30  O   UNL     1       1.220   3.825  19.105  0.00  0.00    +0.000 OA
BRANCH  30  31
ATOM     31  C   UNL     1       1.367   3.987  20.510  0.00  0.00    +0.000 C 
ATOM     32  F   UNL     1       2.649   3.920  20.941  0.00  0.00    +0.000 F 
ATOM     33  F   UNL     1       0.871   5.182  20.898  0.00  0.00    +0.000 F 
ATOM     34  F   UNL     1       0.662   3.018  21.139  0.00  0.00    +0.000 F 
ENDBRANCH  30  31
ENDBRANCH   4  30
TORSDOF 8
ENDMDL
MODEL 4
REMARK VINA RESULT:      -9.1      1.571      2.090
REMARK  Name = 
REMARK  10 active torsions:
REMARK  status: ('A' for Active; 'I' for Inactive)
REMARK    1  A    between atoms: C_1  and  C_2
REMARK    2  A    between atoms: C_2  and  S_3
REMARK    3  A    between atoms: C_2  and  C_10
REMARK    4  A    between atoms: S_3  and  C_4
REMARK    5  A    between atoms: N_8  and  C_9
REMARK    6  A    between atoms: C_13  and  O_14
REMARK    7  A    between atoms: O_14  and  C_15
REMARK    8  A    between atoms: C_19  and  N_20
REMARK    9  A    between atoms: C_21  and  C_23
REMARK   10  A    between atoms: C_27  and  C_28
REMARK                            x       y       z     vdW  Elec       q    Type
REMARK                         _______ _______ _______ _____ _____    ______ ____
ROOT
ATOM      1  C   UNL     1       4.322   4.738  17.227  0.00  0.00    +0.000 A 
ATOM      2  C   UNL     1       4.380   3.446  17.757  0.00  0.00    +0.000 A 
ATOM      3  C   UNL     1       3.800   3.151  18.989  0.00  0.00    +0.000 A 
ATOM      4  C   UNL     1       3.171   4.141  19.754  0.00  0.00    +0.000 A 
ATOM      5  C   UNL     1       3.019   5.433  19.213  0.00  0.00    +0.000 A 
ATOM      6  C   UNL     1       3.586   5.704  17.943  0.00  0.00    +0.000 A 
ENDROOT
BRANCH   5   7
ATOM      7  N   UNL     1       2.321   6.521  19.810  0.00  0.00    +0.000 N 
ATOM      8  C   UNL     1       2.026   7.771  19.289  0.00  0.00    +0.000 C 
ATOM      9  O   UNL     1       2.216   8.175  18.152  0.00  0.00    +0.000 OA
ATOM     10  H   UNL     1       1.927   6.363  20.731  0.00  0.00    +0.000 HD
BRANCH   8  11
ATOM     11  C   UNL     1       1.328   8.688  20.258  0.00  0.00    +0.000 A 
ATOM     12  C   UNL     1       1.288   8.353  21.609  0.00  0.00    +0.000 A 
ATOM     13  C   UNL     1       0.678   9.230  22.497  0.00  0.00    +0.000 A 
ATOM     14  C   UNL     1       0.125  10.411  22.013  0.00  0.00    +0.000 A 
ATOM     15  C   UNL     1       0.190  10.691  20.643  0.00  0.00    +0.000 A 
ATOM     16  N   UNL     1       0.786   9.835  19.754  0.00  0.00    +0.000 NA
BRANCH  15  17
ATOM     17  C   UNL     1      -0.418  11.990  20.123  0.00  0.00    +0.000 C 
ATOM     18  F   UNL     1       0.361  12.623  19.196  0.00  0.00    +0.000 F 
ATOM     19  F   UNL     1      -1.625  11.803  19.518  0.00  0.00    +0.000 F 
ATOM     20  F   UNL     1      -0.630  12.909  21.110  0.00  0.00    +0.000 F 
ENDBRANCH  15  17
ENDBRANCH   8  11
ENDBRANCH   5   7
BRANCH   1  22
ATOM     21  C   UNL     1       5.304   6.616  15.810  0.00  0.00    +0.000 C 
ATOM     22  C   UNL     1       5.040   5.103  15.926  0.00  0.00    +0.000 C 
BRANCH  22  23
ATOM     23  S   UNL     1       6.621   4.178  15.771  0.00  0.00    +0.000 S 
BRANCH  23  24
ATOM     24  C   UNL     1       7.195   4.761  14.243  0.00  0.00    +0.000 A 
ATOM     25  N   UNL     1       8.131   5.657  14.052  0.00  0.00    +0.000 NA
ATOM     26  N   UNL     1       8.316   5.793  12.694  0.00  0.00    +0.000 NA
ATOM     27  C   UNL     1       7.475   4.977  12.099  0.00  0.00    +0.000 A 
ATOM     28  N   UNL     1       6.741   4.314  13.036  0.00  0.00    +0.000 N 
ATOM     29  C   UNL     1       5.724   3.334  12.763  0.00  0.00    +0.000 C 
ENDBRANCH  23  24
ENDBRANCH  22  23
ENDBRANCH   1  22
BRANCH   4  30
ATOM     30  O   UNL     1       2.604   3.838  20.954  0.00  0.00    +0.000 OA
BRANCH  30  31
ATOM     31  C   UNL     1       1.344   3.179  20.969  0.00  0.00    +0.000 C 
ATOM     32  F   UNL     1       1.270   2.111  20.141  0.00  0.00    +0.000 F 
ATOM     33  F   UNL     1       1.057   2.747  22.216  0.00  0.00    +0.000 F 
ATOM     34  F   UNL     1       0.384   4.061  20.603  0.00  0.00    +0.000 F 
ENDBRANCH  30  31
ENDBRANCH   4  30
TORSDOF 8
ENDMDL
MODEL 5
REMARK VINA RESULT:      -9.1      1.411      1.868
REMARK  Name = 
REMARK  10 active torsions:
REMARK  status: ('A' for Active; 'I' for Inactive)
REMARK    1  A    between atoms: C_1  and  C_2
REMARK    2  A    between atoms: C_2  and  S_3
REMARK    3  A    between atoms: C_2  and  C_10
REMARK    4  A    between atoms: S_3  and  C_4
REMARK    5  A    between atoms: N_8  and  C_9
REMARK    6  A    between atoms: C_13  and  O_14
REMARK    7  A    between atoms: O_14  and  C_15
REMARK    8  A    between atoms: C_19  and  N_20
REMARK    9  A    between atoms: C_21  and  C_23
REMARK   10  A    between atoms: C_27  and  C_28
REMARK                            x       y       z     vdW  Elec       q    Type
REMARK                         _______ _______ _______ _____ _____    ______ ____
ROOT
ATOM      1  C   UNL     1       4.903   4.801  17.887  0.00  0.00    +0.000 A 
ATOM      2  C   UNL     1       4.890   3.503  18.407  0.00  0.00    +0.000 A 
ATOM      3  C   UNL     1       4.105   3.182  19.512  0.00  0.00    +0.000 A 
ATOM      4  C   UNL     1       3.330   4.151  20.162  0.00  0.00    +0.000 A 
ATOM      5  C   UNL     1       3.253   5.448  19.615  0.00  0.00    +0.000 A 
ATOM      6  C   UNL     1       4.032   5.745  18.470  0.00  0.00    +0.000 A 
ENDROOT
BRANCH   5   7
ATOM      7  N   UNL     1       2.439   6.516  20.089  0.00  0.00    +0.000 N 
ATOM      8  C   UNL     1       2.144   7.730  19.492  0.00  0.00    +0.000 C 
ATOM      9  O   UNL     1       2.440   8.107  18.367  0.00  0.00    +0.000 OA
ATOM     10  H   UNL     1       1.952   6.366  20.966  0.00  0.00    +0.000 HD
BRANCH   8  11
ATOM     11  C   UNL     1       1.296   8.639  20.341  0.00  0.00    +0.000 A 
ATOM     12  C   UNL     1       1.359   8.535  21.728  0.00  0.00    +0.000 A 
ATOM     13  C   UNL     1       0.603   9.409  22.499  0.00  0.00    +0.000 A 
ATOM     14  C   UNL     1      -0.193  10.359  21.865  0.00  0.00    +0.000 A 
ATOM     15  C   UNL     1      -0.220  10.412  20.467  0.00  0.00    +0.000 A 
ATOM     16  N   UNL     1       0.518   9.555  19.693  0.00  0.00    +0.000 NA
BRANCH  15  17
ATOM     17  C   UNL     1      -1.095  11.458  19.783  0.00  0.00    +0.000 C 
ATOM     18  F   UNL     1      -1.760  10.982  18.689  0.00  0.00    +0.000 F 
ATOM     19  F   UNL     1      -2.059  11.960  20.606  0.00  0.00    +0.000 F 
ATOM     20  F   UNL     1      -0.384  12.535  19.337  0.00  0.00    +0.000 F 
ENDBRANCH  15  17
ENDBRANCH   8  11
ENDBRANCH   5   7
BRANCH   1  22
ATOM     21  C   UNL     1       7.205   5.685  17.242  0.00  0.00    +0.000 C 
ATOM     22  C   UNL     1       5.834   5.196  16.740  0.00  0.00    +0.000 C 
BRANCH  22  23
ATOM     23  S   UNL     1       6.059   3.795  15.571  0.00  0.00    +0.000 S 
BRANCH  23  24
ATOM     24  C   UNL     1       6.930   4.573  14.290  0.00  0.00    +0.000 A 
ATOM     25  N   UNL     1       7.848   5.498  14.420  0.00  0.00    +0.000 NA
ATOM     26  N   UNL     1       8.321   5.805  13.162  0.00  0.00    +0.000 NA
ATOM     27  C   UNL     1       7.664   5.060  12.302  0.00  0.00    +0.000 A 
ATOM     28  N   UNL     1       6.769   4.275  12.967  0.00  0.00    +0.000 N 
ATOM     29  C   UNL     1       5.877   3.324  12.360  0.00  0.00    +0.000 C 
ENDBRANCH  23  24
ENDBRANCH  22  23
ENDBRANCH   1  22
BRANCH   4  30
ATOM     30  O   UNL     1       2.564   3.822  21.238  0.00  0.00    +0.000 OA
BRANCH  30  31
ATOM     31  C   UNL     1       1.308   3.194  21.018  0.00  0.00    +0.000 C 
ATOM     32  F   UNL     1       0.346   4.031  20.561  0.00  0.00    +0.000 F 
ATOM     33  F   UNL     1       1.436   2.193  20.120  0.00  0.00    +0.000 F 
ATOM     34  F   UNL     1       0.877   2.656  22.183  0.00  0.00    +0.000 F 
ENDBRANCH  30  31
ENDBRANCH   4  30
TORSDOF 8
ENDMDL
MODEL 6
REMARK VINA RESULT:      -9.1      1.630      2.072
REMARK  Name = 
REMARK  10 active torsions:
REMARK  status: ('A' for Active; 'I' for Inactive)
REMARK    1  A    between atoms: C_1  and  C_2
REMARK    2  A    between atoms: C_2  and  S_3
REMARK    3  A    between atoms: C_2  and  C_10
REMARK    4  A    between atoms: S_3  and  C_4
REMARK    5  A    between atoms: N_8  and  C_9
REMARK    6  A    between atoms: C_13  and  O_14
REMARK    7  A    between atoms: O_14  and  C_15
REMARK    8  A    between atoms: C_19  and  N_20
REMARK    9  A    between atoms: C_21  and  C_23
REMARK   10  A    between atoms: C_27  and  C_28
REMARK                            x       y       z     vdW  Elec       q    Type
REMARK                         _______ _______ _______ _____ _____    ______ ____
ROOT
ATOM      1  C   UNL     1       4.302   4.961  17.102  0.00  0.00    +0.000 A 
ATOM      2  C   UNL     1       3.990   3.606  17.249  0.00  0.00    +0.000 A 
ATOM      3  C   UNL     1       3.041   3.186  18.178  0.00  0.00    +0.000 A 
ATOM      4  C   UNL     1       2.392   4.098  19.020  0.00  0.00    +0.000 A 
ATOM      5  C   UNL     1       2.618   5.478  18.841  0.00  0.00    +0.000 A 
ATOM      6  C   UNL     1       3.562   5.887  17.867  0.00  0.00    +0.000 A 
ENDROOT
BRANCH   5   7
ATOM      7  N   UNL     1       1.969   6.536  19.538  0.00  0.00    +0.000 N 
ATOM      8  C   UNL     1       1.970   7.896  19.275  0.00  0.00    +0.000 C 
ATOM      9  O   UNL     1       2.453   8.475  18.312  0.00  0.00    +0.000 OA
ATOM     10  H   UNL     1       1.369   6.274  20.314  0.00  0.00    +0.000 HD
BRANCH   8  11
ATOM     11  C   UNL     1       1.217   8.716  20.288  0.00  0.00    +0.000 A 
ATOM     12  C   UNL     1       1.420   8.482  21.645  0.00  0.00    +0.000 A 
ATOM     13  C   UNL     1       0.751   9.275  22.568  0.00  0.00    +0.000 A 
ATOM     14  C   UNL     1      -0.101  10.277  22.112  0.00  0.00    +0.000 A 
ATOM     15  C   UNL     1      -0.269  10.462  20.735  0.00  0.00    +0.000 A 
ATOM     16  N   UNL     1       0.382   9.685  19.812  0.00  0.00    +0.000 NA
BRANCH  15  17
ATOM     17  C   UNL     1      -1.204  11.564  20.245  0.00  0.00    +0.000 C 
ATOM     18  F   UNL     1      -0.548  12.676  19.798  0.00  0.00    +0.000 F 
ATOM     19  F   UNL     1      -1.993  11.165  19.208  0.00  0.00    +0.000 F 
ATOM     20  F   UNL     1      -2.055  12.008  21.216  0.00  0.00    +0.000 F 
ENDBRANCH  15  17
ENDBRANCH   8  11
ENDBRANCH   5   7
BRANCH   1  22
ATOM     21  C   UNL     1       6.327   6.482  16.815  0.00  0.00    +0.000 C 
ATOM     22  C   UNL     1       5.412   5.431  16.161  0.00  0.00    +0.000 C 
BRANCH  22  23
ATOM     23  S   UNL     1       6.415   4.007  15.573  0.00  0.00    +0.000 S 
BRANCH  23  24
ATOM     24  C   UNL     1       7.079   4.655  14.109  0.00  0.00    +0.000 A 
ATOM     25  N   UNL     1       8.016   5.565  14.013  0.00  0.00    +0.000 NA
ATOM     26  N   UNL     1       8.286   5.756  12.675  0.00  0.00    +0.000 NA
ATOM     27  C   UNL     1       7.493   4.957  11.996  0.00  0.00    +0.000 A 
ATOM     28  N   UNL     1       6.708   4.251  12.859  0.00  0.00    +0.000 N 
ATOM     29  C   UNL     1       5.721   3.275  12.482  0.00  0.00    +0.000 C 
ENDBRANCH  23  24
ENDBRANCH  22  23
ENDBRANCH   1  22
BRANCH   4  30
ATOM     30  O   UNL     1       1.463   3.675  19.920  0.00  0.00    +0.000 OA
BRANCH  30  31
ATOM     31  C   UNL     1       1.894   3.292  21.219  0.00  0.00    +0.000 C 
ATOM     32  F   UNL     1       2.348   4.319  21.975  0.00  0.00    +0.000 F 
ATOM     33  F   UNL     1       0.881   2.707  21.895  0.00  0.00    +0.000 F 
ATOM     34  F   UNL     1       2.893   2.386  21.101  0.00  0.00    +0.000 F 
ENDBRANCH  30  31
ENDBRANCH   4  30
TORSDOF 8
ENDMDL
MODEL 7
REMARK VINA RESULT:      -9.1      2.315      3.170
REMARK  Name = 
REMARK  10 active torsions:
REMARK  status: ('A' for Active; 'I' for Inactive)
REMARK    1  A    between atoms: C_1  and  C_2
REMARK    2  A    between atoms: C_2  and  S_3
REMARK    3  A    between atoms: C_2  and  C_10
REMARK    4  A    between atoms: S_3  and  C_4
REMARK    5  A    between atoms: N_8  and  C_9
REMARK    6  A    between atoms: C_13  and  O_14
REMARK    7  A    between atoms: O_14  and  C_15
REMARK    8  A    between atoms: C_19  and  N_20
REMARK    9  A    between atoms: C_21  and  C_23
REMARK   10  A    between atoms: C_27  and  C_28
REMARK                            x       y       z     vdW  Elec       q    Type
REMARK                         _______ _______ _______ _____ _____    ______ ____
ROOT
ATOM      1  C   UNL     1       4.472   4.788  16.988  0.00  0.00    +0.000 A 
ATOM      2  C   UNL     1       4.537   3.478  17.470  0.00  0.00    +0.000 A 
ATOM      3  C   UNL     1       3.933   3.128  18.676  0.00  0.00    +0.000 A 
ATOM      4  C   UNL     1       3.272   4.078  19.464  0.00  0.00    +0.000 A 
ATOM      5  C   UNL     1       3.113   5.388  18.969  0.00  0.00    +0.000 A 
ATOM      6  C   UNL     1       3.705   5.716  17.724  0.00  0.00    +0.000 A 
ENDROOT
BRANCH   5   7
ATOM      7  N   UNL     1       2.386   6.443  19.591  0.00  0.00    +0.000 N 
ATOM      8  C   UNL     1       2.141   7.730  19.141  0.00  0.00    +0.000 C 
ATOM      9  O   UNL     1       2.414   8.209  18.050  0.00  0.00    +0.000 OA
ATOM     10  H   UNL     1       1.927   6.227  20.469  0.00  0.00    +0.000 HD
BRANCH   8  11
ATOM     11  C   UNL     1       1.386   8.587  20.121  0.00  0.00    +0.000 A 
ATOM     12  C   UNL     1       1.509   8.338  21.485  0.00  0.00    +0.000 A 
ATOM     13  C   UNL     1       0.840   9.165  22.378  0.00  0.00    +0.000 A 
ATOM     14  C   UNL     1       0.067  10.213  21.886  0.00  0.00    +0.000 A 
ATOM     15  C   UNL     1      -0.024  10.410  20.504  0.00  0.00    +0.000 A 
ATOM     16  N   UNL     1       0.628   9.602  19.610  0.00  0.00    +0.000 NA
BRANCH  15  17
ATOM     17  C   UNL     1      -0.872  11.563  19.976  0.00  0.00    +0.000 C 
ATOM     18  F   UNL     1      -0.212  12.361  19.084  0.00  0.00    +0.000 F 
ATOM     19  F   UNL     1      -1.993  11.139  19.325  0.00  0.00    +0.000 F 
ATOM     20  F   UNL     1      -1.304  12.400  20.963  0.00  0.00    +0.000 F 
ENDBRANCH  15  17
ENDBRANCH   8  11
ENDBRANCH   5   7
BRANCH   1  22
ATOM     21  C   UNL     1       5.047   6.716  15.423  0.00  0.00    +0.000 C 
ATOM     22  C   UNL     1       5.213   5.214  15.720  0.00  0.00    +0.000 C 
BRANCH  22  23
ATOM     23  S   UNL     1       6.998   4.792  15.835  0.00  0.00    +0.000 S 
BRANCH  23  24
ATOM     24  C   UNL     1       7.333   5.225  17.480  0.00  0.00    +0.000 A 
ATOM     25  N   UNL     1       7.407   4.409  18.502  0.00  0.00    +0.000 NA
ATOM     26  N   UNL     1       7.743   5.151  19.613  0.00  0.00    +0.000 NA
ATOM     27  C   UNL     1       7.855   6.403  19.231  0.00  0.00    +0.000 A 
ATOM     28  N   UNL     1       7.595   6.498  17.895  0.00  0.00    +0.000 N 
ATOM     29  C   UNL     1       7.626   7.710  17.122  0.00  0.00    +0.000 C 
ENDBRANCH  23  24
ENDBRANCH  22  23
ENDBRANCH   1  22
BRANCH   4  30
ATOM     30  O   UNL     1       2.683   3.721  20.638  0.00  0.00    +0.000 OA
BRANCH  30  31
ATOM     31  C   UNL     1       1.394   3.124  20.603  0.00  0.00    +0.000 C 
ATOM     32  F   UNL     1       0.422   3.937  20.126  0.00  0.00    +0.000 F 
ATOM     33  F   UNL     1       1.411   2.016  19.830  0.00  0.00    +0.000 F 
ATOM     34  F   UNL     1       1.049   2.750  21.858  0.00  0.00    +0.000 F 
ENDBRANCH  30  31
ENDBRANCH   4  30
TORSDOF 8
ENDMDL
MODEL 8
REMARK VINA RESULT:      -9.0      2.082      3.078
REMARK  Name = 
REMARK  10 active torsions:
REMARK  status: ('A' for Active; 'I' for Inactive)
REMARK    1  A    between atoms: C_1  and  C_2
REMARK    2  A    between atoms: C_2  and  S_3
REMARK    3  A    between atoms: C_2  and  C_10
REMARK    4  A    between atoms: S_3  and  C_4
REMARK    5  A    between atoms: N_8  and  C_9
REMARK    6  A    between atoms: C_13  and  O_14
REMARK    7  A    between atoms: O_14  and  C_15
REMARK    8  A    between atoms: C_19  and  N_20
REMARK    9  A    between atoms: C_21  and  C_23
REMARK   10  A    between atoms: C_27  and  C_28
REMARK                            x       y       z     vdW  Elec       q    Type
REMARK                         _______ _______ _______ _____ _____    ______ ____
ROOT
ATOM      1  C   UNL     1       4.773   3.920  16.311  0.00  0.00    +0.000 A 
ATOM      2  C   UNL     1       4.159   2.675  16.473  0.00  0.00    +0.000 A 
ATOM      3  C   UNL     1       3.015   2.537  17.257  0.00  0.00    +0.000 A 
ATOM      4  C   UNL     1       2.461   3.629  17.936  0.00  0.00    +0.000 A 
ATOM      5  C   UNL     1       3.002   4.913  17.728  0.00  0.00    +0.000 A 
ATOM      6  C   UNL     1       4.145   5.038  16.899  0.00  0.00    +0.000 A 
ENDROOT
BRANCH   5   7
ATOM      7  N   UNL     1       2.501   6.136  18.258  0.00  0.00    +0.000 N 
ATOM      8  C   UNL     1       2.528   6.609  19.560  0.00  0.00    +0.000 C 
ATOM      9  O   UNL     1       3.088   6.116  20.528  0.00  0.00    +0.000 OA
ATOM     10  H   UNL     1       2.110   6.797  17.595  0.00  0.00    +0.000 HD
BRANCH   8  11
ATOM     11  C   UNL     1       1.827   7.928  19.746  0.00  0.00    +0.000 A 
ATOM     12  C   UNL     1       1.770   8.828  18.685  0.00  0.00    +0.000 A 
ATOM     13  C   UNL     1       1.082  10.023  18.859  0.00  0.00    +0.000 A 
ATOM     14  C   UNL     1       0.474  10.285  20.082  0.00  0.00    +0.000 A 
ATOM     15  C   UNL     1       0.570   9.344  21.114  0.00  0.00    +0.000 A 
ATOM     16  N   UNL     1       1.247   8.162  20.959  0.00  0.00    +0.000 NA
BRANCH  15  17
ATOM     17  C   UNL     1      -0.102   9.641  22.451  0.00  0.00    +0.000 C 
ATOM     18  F   UNL     1      -1.094   8.757  22.770  0.00  0.00    +0.000 F 
ATOM     19  F   UNL     1       0.769   9.606  23.499  0.00  0.00    +0.000 F 
ATOM     20  F   UNL     1      -0.687  10.874  22.489  0.00  0.00    +0.000 F 
ENDBRANCH  15  17
ENDBRANCH   8  11
ENDBRANCH   5   7
BRANCH   1  22
ATOM     21  C   UNL     1       5.925   3.739  14.045  0.00  0.00    +0.000 C 
ATOM     22  C   UNL     1       6.084   4.074  15.539  0.00  0.00    +0.000 C 
BRANCH  22  23
ATOM     23  S   UNL     1       6.760   5.772  15.732  0.00  0.00    +0.000 S 
BRANCH  23  24
ATOM     24  C   UNL     1       7.352   5.707  17.360  0.00  0.00    +0.000 A 
ATOM     25  N   UNL     1       7.545   4.629  18.078  0.00  0.00    +0.000 NA
ATOM     26  N   UNL     1       8.071   5.016  19.291  0.00  0.00    +0.000 NA
ATOM     27  C   UNL     1       8.173   6.326  19.276  0.00  0.00    +0.000 A 
ATOM     28  N   UNL     1       7.722   6.805  18.082  0.00  0.00    +0.000 N 
ATOM     29  C   UNL     1       7.685   8.191  17.697  0.00  0.00    +0.000 C 
ENDBRANCH  23  24
ENDBRANCH  22  23
ENDBRANCH   1  22
BRANCH   4  30
ATOM     30  O   UNL     1       1.341   3.480  18.695  0.00  0.00    +0.000 OA
BRANCH  30  31
ATOM     31  C   UNL     1       1.466   2.935  20.002  0.00  0.00    +0.000 C 
ATOM     32  F   UNL     1       0.615   3.473  20.907  0.00  0.00    +0.000 F 
ATOM     33  F   UNL     1       1.243   1.603  19.977  0.00  0.00    +0.000 F 
ATOM     34  F   UNL     1       2.730   3.138  20.442  0.00  0.00    +0.000 F 
ENDBRANCH  30  31
ENDBRANCH   4  30
TORSDOF 8
ENDMDL
MODEL 9
REMARK VINA RESULT:      -8.9      1.715      2.684
REMARK  Name = 
REMARK  10 active torsions:
REMARK  status: ('A' for Active; 'I' for Inactive)
REMARK    1  A    between atoms: C_1  and  C_2
REMARK    2  A    between atoms: C_2  and  S_3
REMARK    3  A    between atoms: C_2  and  C_10
REMARK    4  A    between atoms: S_3  and  C_4
REMARK    5  A    between atoms: N_8  and  C_9
REMARK    6  A    between atoms: C_13  and  O_14
REMARK    7  A    between atoms: O_14  and  C_15
REMARK    8  A    between atoms: C_19  and  N_20
REMARK    9  A    between atoms: C_21  and  C_23
REMARK   10  A    between atoms: C_27  and  C_28
REMARK                            x       y       z     vdW  Elec       q    Type
REMARK                         _______ _______ _______ _____ _____    ______ ____
ROOT
ATOM      1  C   UNL     1       4.495   4.692  17.173  0.00  0.00    +0.000 A 
ATOM      2  C   UNL     1       4.466   3.506  17.912  0.00  0.00    +0.000 A 
ATOM      3  C   UNL     1       3.772   3.429  19.118  0.00  0.00    +0.000 A 
ATOM      4  C   UNL     1       3.109   4.543  19.649  0.00  0.00    +0.000 A 
ATOM      5  C   UNL     1       3.046   5.729  18.891  0.00  0.00    +0.000 A 
ATOM      6  C   UNL     1       3.730   5.776  17.650  0.00  0.00    +0.000 A 
ENDROOT
BRANCH   5   7
ATOM      7  N   UNL     1       2.333   6.913  19.235  0.00  0.00    +0.000 N 
ATOM      8  C   UNL     1       2.153   8.077  18.505  0.00  0.00    +0.000 C 
ATOM      9  O   UNL     1       2.487   8.300  17.350  0.00  0.00    +0.000 OA
ATOM     10  H   UNL     1       1.831   6.906  20.116  0.00  0.00    +0.000 HD
BRANCH   8  11
ATOM     11  C   UNL     1       1.390   9.147  19.239  0.00  0.00    +0.000 A 
ATOM     12  C   UNL     1       1.081  10.337  18.585  0.00  0.00    +0.000 A 
ATOM     13  C   UNL     1       0.339  11.297  19.262  0.00  0.00    +0.000 A 
ATOM     14  C   UNL     1      -0.070  11.045  20.568  0.00  0.00    +0.000 A 
ATOM     15  C   UNL     1       0.277   9.832  21.175  0.00  0.00    +0.000 A 
ATOM     16  N   UNL     1       1.010   8.876  20.522  0.00  0.00    +0.000 NA
BRANCH  15  17
ATOM     17  C   UNL     1      -0.178   9.565  22.606  0.00  0.00    +0.000 C 
ATOM     18  F   UNL     1       0.856   9.373  23.479  0.00  0.00    +0.000 F 
ATOM     19  F   UNL     1      -0.909  10.590  23.128  0.00  0.00    +0.000 F 
ATOM     20  F   UNL     1      -0.959   8.451  22.716  0.00  0.00    +0.000 F 
ENDBRANCH  15  17
ENDBRANCH   8  11
ENDBRANCH   5   7
BRANCH   1  22
ATOM     21  C   UNL     1       5.145   6.189  15.216  0.00  0.00    +0.000 C 
ATOM     22  C   UNL     1       5.335   4.824  15.902  0.00  0.00    +0.000 C 
BRANCH  22  23
ATOM     23  S   UNL     1       7.115   4.547  16.264  0.00  0.00    +0.000 S 
BRANCH  23  24
ATOM     24  C   UNL     1       7.532   6.046  17.029  0.00  0.00    +0.000 A 
ATOM     25  N   UNL     1       7.751   7.191  16.433  0.00  0.00    +0.000 NA
ATOM     26  N   UNL     1       7.999   8.135  17.407  0.00  0.00    +0.000 NA
ATOM     27  C   UNL     1       7.933   7.526  18.569  0.00  0.00    +0.000 A 
ATOM     28  N   UNL     1       7.650   6.206  18.379  0.00  0.00    +0.000 N 
ATOM     29  C   UNL     1       7.494   5.226  19.420  0.00  0.00    +0.000 C 
ENDBRANCH  23  24
ENDBRANCH  22  23
ENDBRANCH   1  22
BRANCH   4  30
ATOM     30  O   UNL     1       2.431   4.453  20.825  0.00  0.00    +0.000 OA
BRANCH  30  31
ATOM     31  C   UNL     1       1.309   3.584  20.904  0.00  0.00    +0.000 C 
ATOM     32  F   UNL     1       1.411   2.479  20.127  0.00  0.00    +0.000 F 
ATOM     33  F   UNL     1       1.126   3.169  22.176  0.00  0.00    +0.000 F 
ATOM     34  F   UNL     1       0.201   4.262  20.524  0.00  0.00    +0.000 F 
ENDBRANCH  30  31
ENDBRANCH   4  30
TORSDOF 8
ENDMDL
