MODEL 1
REMARK VINA RESULT:     -10.0      0.000      0.000
REMARK  Name = 
REMARK  10 active torsions:
REMARK  status: ('A' for Active; 'I' for Inactive)
REMARK    1  A    between atoms: C_1  and  C_2
REMARK    2  A    between atoms: C_2  and  C_3
REMARK    3  A    between atoms: C_2  and  N_35
REMARK    4  A    between atoms: C_7  and  C_8
REMARK    5  A    between atoms: N_14  and  C_15
REMARK    6  A    between atoms: C_19  and  C_20
REMARK    7  A    between atoms: C_20  and  C_21
REMARK    8  A    between atoms: C_20  and  C_23
REMARK    9  A    between atoms: C_23  and  C_26
REMARK   10  A    between atoms: N_30  and  C_31
REMARK                            x       y       z     vdW  Elec       q    Type
REMARK                         _______ _______ _______ _____ _____    ______ ____
ROOT
ATOM      1  C   UNL     1       0.592  12.014  19.820  0.00  0.00    +0.000 A 
ATOM      2  C   UNL     1       1.216  11.181  18.886  0.00  0.00    +0.000 A 
ATOM      3  C   UNL     1       1.396   9.854  19.216  0.00  0.00    +0.000 A 
ATOM      4  C   UNL     1       1.003   9.302  20.429  0.00  0.00    +0.000 A 
ATOM      5  C   UNL     1       0.398  10.104  21.392  0.00  0.00    +0.000 A 
ATOM      6  C   UNL     1       0.179  11.463  21.060  0.00  0.00    +0.000 A 
ATOM      7  C   UNL     1       1.352   7.845  20.438  0.00  0.00    +0.000 C 
ATOM      8  N   UNL     1       1.991   7.642  19.142  0.00  0.00    +0.000 N 
ATOM      9  C   UNL     1       2.027   8.822  18.400  0.00  0.00    +0.000 C 
ATOM     10  O   UNL     1       2.463   9.074  17.292  0.00  0.00    +0.000 OA
ENDROOT
BRANCH   8  11
ATOM     11  C   UNL     1       2.533   6.394  18.737  0.00  0.00    +0.000 A 
ATOM     12  C   UNL     1       2.050   5.194  19.272  0.00  0.00    +0.000 A 
ATOM     13  C   UNL     1       2.554   3.961  18.862  0.00  0.00    +0.000 A 
ATOM     14  C   UNL     1       3.567   3.905  17.918  0.00  0.00    +0.000 A 
ATOM     15  C   UNL     1       4.103   5.083  17.379  0.00  0.00    +0.000 A 
ATOM     16  C   UNL     1       3.563   6.321  17.784  0.00  0.00    +0.000 A 
BRANCH  15  17
ATOM     17  C   UNL     1       5.265   5.039  16.382  0.00  0.00    +0.000 C 
ATOM     18  C   UNL     1       5.103   3.800  15.485  0.00  0.00    +0.000 C 
ATOM     19  F   UNL     1       5.228   6.107  15.512  0.00  0.00    +0.000 F 
BRANCH  17  20
ATOM     20  C   UNL     1       6.661   5.015  17.069  0.00  0.00    +0.000 C 
ATOM     21  F   UNL     1       6.625   4.202  18.173  0.00  0.00    +0.000 F 
ATOM     22  F   UNL     1       7.551   4.391  16.231  0.00  0.00    +0.000 F 
BRANCH  20  23
ATOM     23  C   UNL     1       7.218   6.351  17.444  0.00  0.00    +0.000 A 
ATOM     24  N   UNL     1       7.227   7.471  16.745  0.00  0.00    +0.000 NA
ATOM     25  N   UNL     1       7.895   8.431  17.469  0.00  0.00    +0.000 NA
ATOM     26  C   UNL     1       8.279   7.882  18.598  0.00  0.00    +0.000 A 
ATOM     27  N   UNL     1       7.866   6.588  18.632  0.00  0.00    +0.000 N 
ATOM     28  C   UNL     1       8.079   5.663  19.715  0.00  0.00    +0.000 C 
ENDBRANCH  20  23
ENDBRANCH  17  20
ENDBRANCH  15  17
ENDBRANCH   8  11
BRANCH   5  29
ATOM     29  C   UNL     1       0.009   9.587  22.753  0.00  0.00    +0.000 C 
ATOM     30  F   UNL     1      -0.662  10.497  23.511  0.00  0.00    +0.000 F 
ATOM     31  F   UNL     1      -0.810   8.501  22.675  0.00  0.00    +0.000 F 
ATOM     32  F   UNL     1       1.080   9.200  23.497  0.00  0.00    +0.000 F 
ENDBRANCH   5  29
BRANCH   1  34
ATOM     33  C   UNL     1      -0.562  13.564  18.246  0.00  0.00    +0.000 C 
ATOM     34  C   UNL     1       0.381  13.486  19.461  0.00  0.00    +0.000 C 
BRANCH  34  35
ATOM     35  N   UNL     1       1.648  14.204  19.228  0.00  0.00    +0.000 NA
ATOM     36  C   UNL     1       1.466  15.576  18.718  0.00  0.00    +0.000 C 
ATOM     37  C   UNL     1       2.049  16.529  19.748  0.00  0.00    +0.000 C 
ATOM     38  C   UNL     1       3.109  15.701  20.426  0.00  0.00    +0.000 C 
ATOM     39  F   UNL     1       4.244  15.729  19.679  0.00  0.00    +0.000 F 
ATOM     40  C   UNL     1       2.515  14.302  20.424  0.00  0.00    +0.000 C 
ENDBRANCH  34  35
ENDBRANCH   1  34
TORSDOF 7
ENDMDL
MODEL 2
REMARK VINA RESULT:     -10.0      1.669      2.054
REMARK  Name = 
REMARK  10 active torsions:
REMARK  status: ('A' for Active; 'I' for Inactive)
REMARK    1  A    between atoms: C_1  and  C_2
REMARK    2  A    between atoms: C_2  and  C_3
REMARK    3  A    between atoms: C_2  and  N_35
REMARK    4  A    between atoms: C_7  and  C_8
REMARK    5  A    between atoms: N_14  and  C_15
REMARK    6  A    between atoms: C_19  and  C_20
REMARK    7  A    between atoms: C_20  and  C_21
REMARK    8  A    between atoms: C_20  and  C_23
REMARK    9  A    between atoms: C_23  and  C_26
REMARK   10  A    between atoms: N_30  and  C_31
REMARK                            x       y       z     vdW  Elec       q    Type
REMARK                         _______ _______ _______ _____ _____    ______ ____
ROOT
ATOM      1  C   UNL     1      -0.262  11.709  19.707  0.00  0.00    +0.000 A 
ATOM      2  C   UNL     1       0.512  10.961  18.815  0.00  0.00    +0.000 A 
ATOM      3  C   UNL     1       1.010   9.749  19.243  0.00  0.00    +0.000 A 
ATOM      4  C   UNL     1       0.796   9.235  20.517  0.00  0.00    +0.000 A 
ATOM      5  C   UNL     1       0.048   9.960  21.440  0.00  0.00    +0.000 A 
ATOM      6  C   UNL     1      -0.496  11.195  21.008  0.00  0.00    +0.000 A 
ATOM      7  C   UNL     1       1.479   7.906  20.628  0.00  0.00    +0.000 C 
ATOM      8  N   UNL     1       2.108   7.739  19.322  0.00  0.00    +0.000 N 
ATOM      9  C   UNL     1       1.842   8.821  18.484  0.00  0.00    +0.000 C 
ATOM     10  O   UNL     1       2.172   9.064  17.338  0.00  0.00    +0.000 OA
ENDROOT
BRANCH   8  11
ATOM     11  C   UNL     1       2.917   6.619  18.994  0.00  0.00    +0.000 A 
ATOM     12  C   UNL     1       2.977   5.505  19.840  0.00  0.00    +0.000 A 
ATOM     13  C   UNL     1       3.745   4.387  19.517  0.00  0.00    +0.000 A 
ATOM     14  C   UNL     1       4.483   4.370  18.343  0.00  0.00    +0.000 A 
ATOM     15  C   UNL     1       4.478   5.476  17.482  0.00  0.00    +0.000 A 
ATOM     16  C   UNL     1       3.673   6.587  17.811  0.00  0.00    +0.000 A 
BRANCH  15  17
ATOM     17  C   UNL     1       5.337   5.496  16.215  0.00  0.00    +0.000 C 
ATOM     18  C   UNL     1       4.958   4.289  15.339  0.00  0.00    +0.000 C 
ATOM     19  F   UNL     1       5.061   6.595  15.431  0.00  0.00    +0.000 F 
BRANCH  17  20
ATOM     20  C   UNL     1       6.865   5.476  16.510  0.00  0.00    +0.000 C 
ATOM     21  F   UNL     1       7.199   4.319  17.165  0.00  0.00    +0.000 F 
ATOM     22  F   UNL     1       7.540   5.384  15.319  0.00  0.00    +0.000 F 
BRANCH  20  23
ATOM     23  C   UNL     1       7.391   6.654  17.265  0.00  0.00    +0.000 A 
ATOM     24  N   UNL     1       7.520   7.905  16.865  0.00  0.00    +0.000 NA
ATOM     25  N   UNL     1       8.099   8.630  17.880  0.00  0.00    +0.000 NA
ATOM     26  C   UNL     1       8.310   7.811  18.884  0.00  0.00    +0.000 A 
ATOM     27  N   UNL     1       7.871   6.569  18.550  0.00  0.00    +0.000 N 
ATOM     28  C   UNL     1       7.913   5.404  19.396  0.00  0.00    +0.000 C 
ENDBRANCH  20  23
ENDBRANCH  17  20
ENDBRANCH  15  17
ENDBRANCH   8  11
BRANCH   5  29
ATOM     29  C   UNL     1      -0.165   9.495  22.856  0.00  0.00    +0.000 C 
ATOM     30  F   UNL     1      -0.821   8.305  22.946  0.00  0.00    +0.000 F 
ATOM     31  F   UNL     1       1.010   9.315  23.521  0.00  0.00    +0.000 F 
ATOM     32  F   UNL     1      -0.888  10.375  23.600  0.00  0.00    +0.000 F 
ENDBRANCH   5  29
BRANCH   1  34
ATOM     33  C   UNL     1       0.135  13.649  18.193  0.00  0.00    +0.000 C 
ATOM     34  C   UNL     1      -0.825  13.052  19.239  0.00  0.00    +0.000 C 
BRANCH  34  35
ATOM     35  N   UNL     1      -1.082  13.984  20.353  0.00  0.00    +0.000 NA
ATOM     36  C   UNL     1      -0.449  15.304  20.179  0.00  0.00    +0.000 C 
ATOM     37  C   UNL     1      -1.559  16.340  20.119  0.00  0.00    +0.000 C 
ATOM     38  C   UNL     1      -2.667  15.709  20.921  0.00  0.00    +0.000 C 
ATOM     39  F   UNL     1      -2.449  15.940  22.242  0.00  0.00    +0.000 F 
ATOM     40  C   UNL     1      -2.518  14.228  20.618  0.00  0.00    +0.000 C 
ENDBRANCH  34  35
ENDBRANCH   1  34
TORSDOF 7
ENDMDL
MODEL 3
REMARK VINA RESULT:      -9.8      2.547      3.934
REMARK  Name = 
REMARK  10 active torsions:
REMARK  status: ('A' for Active; 'I' for Inactive)
REMARK    1  A    between atoms: C_1  and  C_2
REMARK    2  A    between atoms: C_2  and  C_3
REMARK    3  A    between atoms: C_2  and  N_35
REMARK    4  A    between atoms: C_7  and  C_8
REMARK    5  A    between atoms: N_14  and  C_15
REMARK    6  A    between atoms: C_19  and  C_20
REMARK    7  A    between atoms: C_20  and  C_21
REMARK    8  A    between atoms: C_20  and  C_23
REMARK    9  A    between atoms: C_23  and  C_26
REMARK   10  A    between atoms: N_30  and  C_31
REMARK                            x       y       z     vdW  Elec       q    Type
REMARK                         _______ _______ _______ _____ _____    ______ ____
ROOT
ATOM      1  C   UNL     1      -0.355  11.014  19.167  0.00  0.00    +0.000 A 
ATOM      2  C   UNL     1       0.492  10.166  18.446  0.00  0.00    +0.000 A 
ATOM      3  C   UNL     1       1.073   9.108  19.112  0.00  0.00    +0.000 A 
ATOM      4  C   UNL     1       0.873   8.843  20.462  0.00  0.00    +0.000 A 
ATOM      5  C   UNL     1       0.053   9.676  21.217  0.00  0.00    +0.000 A 
ATOM      6  C   UNL     1      -0.575  10.752  20.544  0.00  0.00    +0.000 A 
ATOM      7  C   UNL     1       1.654   7.621  20.840  0.00  0.00    +0.000 C 
ATOM      8  N   UNL     1       2.320   7.247  19.598  0.00  0.00    +0.000 N 
ATOM      9  C   UNL     1       1.989   8.116  18.559  0.00  0.00    +0.000 C 
ATOM     10  O   UNL     1       2.323   8.150  17.388  0.00  0.00    +0.000 OA
ENDROOT
BRANCH   8  11
ATOM     11  C   UNL     1       3.219   6.152  19.505  0.00  0.00    +0.000 A 
ATOM     12  C   UNL     1       2.864   4.889  19.994  0.00  0.00    +0.000 A 
ATOM     13  C   UNL     1       3.726   3.799  19.883  0.00  0.00    +0.000 A 
ATOM     14  C   UNL     1       4.971   3.957  19.295  0.00  0.00    +0.000 A 
ATOM     15  C   UNL     1       5.381   5.210  18.821  0.00  0.00    +0.000 A 
ATOM     16  C   UNL     1       4.486   6.297  18.915  0.00  0.00    +0.000 A 
BRANCH  15  17
ATOM     17  C   UNL     1       6.777   5.413  18.226  0.00  0.00    +0.000 C 
ATOM     18  C   UNL     1       7.673   6.085  19.281  0.00  0.00    +0.000 C 
ATOM     19  F   UNL     1       7.395   4.211  17.959  0.00  0.00    +0.000 F 
BRANCH  17  20
ATOM     20  C   UNL     1       6.771   6.261  16.921  0.00  0.00    +0.000 C 
ATOM     21  F   UNL     1       5.665   7.071  16.896  0.00  0.00    +0.000 F 
ATOM     22  F   UNL     1       7.822   7.141  16.965  0.00  0.00    +0.000 F 
BRANCH  20  23
ATOM     23  C   UNL     1       6.855   5.483  15.647  0.00  0.00    +0.000 A 
ATOM     24  N   UNL     1       7.811   5.484  14.736  0.00  0.00    +0.000 NA
ATOM     25  N   UNL     1       7.433   4.652  13.708  0.00  0.00    +0.000 NA
ATOM     26  C   UNL     1       6.257   4.154  14.010  0.00  0.00    +0.000 A 
ATOM     27  N   UNL     1       5.862   4.634  15.218  0.00  0.00    +0.000 N 
ATOM     28  C   UNL     1       4.636   4.304  15.897  0.00  0.00    +0.000 C 
ENDBRANCH  20  23
ENDBRANCH  17  20
ENDBRANCH  15  17
ENDBRANCH   8  11
BRANCH   5  29
ATOM     29  C   UNL     1      -0.153   9.488  22.697  0.00  0.00    +0.000 C 
ATOM     30  F   UNL     1      -0.778  10.538  23.299  0.00  0.00    +0.000 F 
ATOM     31  F   UNL     1      -0.920   8.397  22.975  0.00  0.00    +0.000 F 
ATOM     32  F   UNL     1       1.013   9.313  23.376  0.00  0.00    +0.000 F 
ENDBRANCH   5  29
BRANCH   1  34
ATOM     33  C   UNL     1      -1.537  13.185  19.483  0.00  0.00    +0.000 C 
ATOM     34  C   UNL     1      -1.010  12.187  18.436  0.00  0.00    +0.000 C 
BRANCH  34  35
ATOM     35  N   UNL     1      -2.064  11.758  17.498  0.00  0.00    +0.000 NA
ATOM     36  C   UNL     1      -1.948  10.351  17.077  0.00  0.00    +0.000 C 
ATOM     37  C   UNL     1      -3.197   9.625  17.550  0.00  0.00    +0.000 C 
ATOM     38  C   UNL     1      -4.236  10.715  17.592  0.00  0.00    +0.000 C 
ATOM     39  F   UNL     1      -4.746  10.894  16.345  0.00  0.00    +0.000 F 
ATOM     40  C   UNL     1      -3.441  11.940  18.012  0.00  0.00    +0.000 C 
ENDBRANCH  34  35
ENDBRANCH   1  34
TORSDOF 7
ENDMDL
MODEL 4
REMARK VINA RESULT:      -9.8      2.405      8.730
REMARK  Name = 
REMARK  10 active torsions:
REMARK  status: ('A' for Active; 'I' for Inactive)
REMARK    1  A    between atoms: C_1  and  C_2
REMARK    2  A    between atoms: C_2  and  C_3
REMARK    3  A    between atoms: C_2  and  N_35
REMARK    4  A    between atoms: C_7  and  C_8
REMARK    5  A    between atoms: N_14  and  C_15
REMARK    6  A    between atoms: C_19  and  C_20
REMARK    7  A    between atoms: C_20  and  C_21
REMARK    8  A    between atoms: C_20  and  C_23
REMARK    9  A    between atoms: C_23  and  C_26
REMARK   10  A    between atoms: N_30  and  C_31
REMARK                            x       y       z     vdW  Elec       q    Type
REMARK                         _______ _______ _______ _____ _____    ______ ____
ROOT
ATOM      1  C   UNL     1       3.824   5.311  17.997  0.00  0.00    +0.000 A 
ATOM      2  C   UNL     1       3.396   6.638  18.106  0.00  0.00    +0.000 A 
ATOM      3  C   UNL     1       2.544   6.963  19.140  0.00  0.00    +0.000 A 
ATOM      4  C   UNL     1       2.077   6.045  20.072  0.00  0.00    +0.000 A 
ATOM      5  C   UNL     1       2.464   4.711  19.984  0.00  0.00    +0.000 A 
ATOM      6  C   UNL     1       3.362   4.363  18.945  0.00  0.00    +0.000 A 
ATOM      7  C   UNL     1       1.180   6.749  21.044  0.00  0.00    +0.000 C 
ATOM      8  N   UNL     1       1.169   8.125  20.560  0.00  0.00    +0.000 N 
ATOM      9  C   UNL     1       1.973   8.275  19.430  0.00  0.00    +0.000 C 
ATOM     10  O   UNL     1       2.231   9.242  18.737  0.00  0.00    +0.000 OA
ENDROOT
BRANCH   8  11
ATOM     11  C   UNL     1       0.393   9.148  21.164  0.00  0.00    +0.000 A 
ATOM     12  C   UNL     1       0.001   9.055  22.505  0.00  0.00    +0.000 A 
ATOM     13  C   UNL     1      -0.736  10.066  23.118  0.00  0.00    +0.000 A 
ATOM     14  C   UNL     1      -1.112  11.187  22.394  0.00  0.00    +0.000 A 
ATOM     15  C   UNL     1      -0.769  11.308  21.041  0.00  0.00    +0.000 A 
ATOM     16  C   UNL     1       0.002  10.289  20.443  0.00  0.00    +0.000 A 
BRANCH  15  17
ATOM     17  C   UNL     1      -1.230  12.510  20.212  0.00  0.00    +0.000 C 
ATOM     18  C   UNL     1      -2.280  12.037  19.192  0.00  0.00    +0.000 C 
ATOM     19  F   UNL     1      -1.892  13.437  20.988  0.00  0.00    +0.000 F 
BRANCH  17  20
ATOM     20  C   UNL     1      -0.064  13.231  19.475  0.00  0.00    +0.000 C 
ATOM     21  F   UNL     1       0.508  12.381  18.564  0.00  0.00    +0.000 F 
ATOM     22  F   UNL     1      -0.589  14.235  18.702  0.00  0.00    +0.000 F 
BRANCH  20  23
ATOM     23  C   UNL     1       0.993  13.814  20.357  0.00  0.00    +0.000 A 
ATOM     24  N   UNL     1       1.055  13.833  21.675  0.00  0.00    +0.000 NA
ATOM     25  N   UNL     1       2.185  14.524  22.048  0.00  0.00    +0.000 NA
ATOM     26  C   UNL     1       2.794  14.911  20.952  0.00  0.00    +0.000 A 
ATOM     27  N   UNL     1       2.094  14.478  19.871  0.00  0.00    +0.000 N 
ATOM     28  C   UNL     1       2.454  14.688  18.493  0.00  0.00    +0.000 C 
ENDBRANCH  20  23
ENDBRANCH  17  20
ENDBRANCH  15  17
ENDBRANCH   8  11
BRANCH   5  29
ATOM     29  C   UNL     1       1.943   3.651  20.919  0.00  0.00    +0.000 C 
ATOM     30  F   UNL     1       2.403   2.401  20.636  0.00  0.00    +0.000 F 
ATOM     31  F   UNL     1       2.297   3.887  22.213  0.00  0.00    +0.000 F 
ATOM     32  F   UNL     1       0.586   3.558  20.910  0.00  0.00    +0.000 F 
ENDBRANCH   5  29
BRANCH   1  34
ATOM     33  C   UNL     1       4.316   3.603  16.250  0.00  0.00    +0.000 C 
ATOM     34  C   UNL     1       4.775   4.941  16.858  0.00  0.00    +0.000 C 
BRANCH  34  35
ATOM     35  N   UNL     1       6.187   4.902  17.282  0.00  0.00    +0.000 NA
ATOM     36  C   UNL     1       6.992   6.025  16.769  0.00  0.00    +0.000 C 
ATOM     37  C   UNL     1       7.492   6.817  17.966  0.00  0.00    +0.000 C 
ATOM     38  C   UNL     1       7.551   5.786  19.063  0.00  0.00    +0.000 C 
ATOM     39  F   UNL     1       8.718   5.095  18.963  0.00  0.00    +0.000 F 
ATOM     40  C   UNL     1       6.376   4.875  18.750  0.00  0.00    +0.000 C 
ENDBRANCH  34  35
ENDBRANCH   1  34
TORSDOF 7
ENDMDL
MODEL 5
REMARK VINA RESULT:      -9.7      1.511      2.478
REMARK  Name = 
REMARK  10 active torsions:
REMARK  status: ('A' for Active; 'I' for Inactive)
REMARK    1  A    between atoms: C_1  and  C_2
REMARK    2  A    between atoms: C_2  and  C_3
REMARK    3  A    between atoms: C_2  and  N_35
REMARK    4  A    between atoms: C_7  and  C_8
REMARK    5  A    between atoms: N_14  and  C_15
REMARK    6  A    between atoms: C_19  and  C_20
REMARK    7  A    between atoms: C_20  and  C_21
REMARK    8  A    between atoms: C_20  and  C_23
REMARK    9  A    between atoms: C_23  and  C_26
REMARK   10  A    between atoms: N_30  and  C_31
REMARK                            x       y       z     vdW  Elec       q    Type
REMARK                         _______ _______ _______ _____ _____    ______ ____
ROOT
ATOM      1  C   UNL     1       0.658  11.911  19.818  0.00  0.00    +0.000 A 
ATOM      2  C   UNL     1       1.318  11.103  18.887  0.00  0.00    +0.000 A 
ATOM      3  C   UNL     1       1.463   9.762  19.175  0.00  0.00    +0.000 A 
ATOM      4  C   UNL     1       1.001   9.172  20.346  0.00  0.00    +0.000 A 
ATOM      5  C   UNL     1       0.358   9.948  21.306  0.00  0.00    +0.000 A 
ATOM      6  C   UNL     1       0.175  11.321  21.014  0.00  0.00    +0.000 A 
ATOM      7  C   UNL     1       1.329   7.710  20.317  0.00  0.00    +0.000 C 
ATOM      8  N   UNL     1       2.031   7.545  19.049  0.00  0.00    +0.000 N 
ATOM      9  C   UNL     1       2.120   8.751  18.354  0.00  0.00    +0.000 C 
ATOM     10  O   UNL     1       2.616   9.037  17.279  0.00  0.00    +0.000 OA
ENDROOT
BRANCH   8  11
ATOM     11  C   UNL     1       2.576   6.305  18.625  0.00  0.00    +0.000 A 
ATOM     12  C   UNL     1       1.886   5.106  18.844  0.00  0.00    +0.000 A 
ATOM     13  C   UNL     1       2.397   3.884  18.408  0.00  0.00    +0.000 A 
ATOM     14  C   UNL     1       3.620   3.837  17.757  0.00  0.00    +0.000 A 
ATOM     15  C   UNL     1       4.360   5.009  17.545  0.00  0.00    +0.000 A 
ATOM     16  C   UNL     1       3.815   6.240  17.968  0.00  0.00    +0.000 A 
BRANCH  15  17
ATOM     17  C   UNL     1       5.740   4.964  16.884  0.00  0.00    +0.000 C 
ATOM     18  C   UNL     1       6.257   6.403  16.715  0.00  0.00    +0.000 C 
ATOM     19  F   UNL     1       6.671   4.352  17.694  0.00  0.00    +0.000 F 
BRANCH  17  20
ATOM     20  C   UNL     1       5.737   4.239  15.506  0.00  0.00    +0.000 C 
ATOM     21  F   UNL     1       5.866   2.886  15.691  0.00  0.00    +0.000 F 
ATOM     22  F   UNL     1       4.494   4.375  14.942  0.00  0.00    +0.000 F 
BRANCH  20  23
ATOM     23  C   UNL     1       6.759   4.714  14.525  0.00  0.00    +0.000 A 
ATOM     24  N   UNL     1       7.761   5.554  14.713  0.00  0.00    +0.000 NA
ATOM     25  N   UNL     1       8.406   5.737  13.512  0.00  0.00    +0.000 NA
ATOM     26  C   UNL     1       7.791   5.003  12.614  0.00  0.00    +0.000 A 
ATOM     27  N   UNL     1       6.765   4.337  13.204  0.00  0.00    +0.000 N 
ATOM     28  C   UNL     1       5.869   3.418  12.550  0.00  0.00    +0.000 C 
ENDBRANCH  20  23
ENDBRANCH  17  20
ENDBRANCH  15  17
ENDBRANCH   8  11
BRANCH   5  29
ATOM     29  C   UNL     1      -0.106   9.387  22.625  0.00  0.00    +0.000 C 
ATOM     30  F   UNL     1      -0.769   8.203  22.511  0.00  0.00    +0.000 F 
ATOM     31  F   UNL     1       0.932   9.144  23.474  0.00  0.00    +0.000 F 
ATOM     32  F   UNL     1      -0.949  10.222  23.289  0.00  0.00    +0.000 F 
ENDBRANCH   5  29
BRANCH   1  34
ATOM     33  C   UNL     1      -0.321  13.533  18.200  0.00  0.00    +0.000 C 
ATOM     34  C   UNL     1       0.486  13.397  19.504  0.00  0.00    +0.000 C 
BRANCH  34  35
ATOM     35  N   UNL     1       1.770  14.121  19.440  0.00  0.00    +0.000 NA
ATOM     36  C   UNL     1       1.790  15.206  18.443  0.00  0.00    +0.000 C 
ATOM     37  C   UNL     1       2.014  16.511  19.190  0.00  0.00    +0.000 C 
ATOM     38  C   UNL     1       2.777  16.082  20.416  0.00  0.00    +0.000 C 
ATOM     39  F   UNL     1       4.095  15.969  20.106  0.00  0.00    +0.000 F 
ATOM     40  C   UNL     1       2.194  14.713  20.729  0.00  0.00    +0.000 C 
ENDBRANCH  34  35
ENDBRANCH   1  34
TORSDOF 7
ENDMDL
MODEL 6
REMARK VINA RESULT:      -9.6      2.211      3.307
REMARK  Name = 
REMARK  10 active torsions:
REMARK  status: ('A' for Active; 'I' for Inactive)
REMARK    1  A    between atoms: C_1  and  C_2
REMARK    2  A    between atoms: C_2  and  C_3
REMARK    3  A    between atoms: C_2  and  N_35
REMARK    4  A    between atoms: C_7  and  C_8
REMARK    5  A    between atoms: N_14  and  C_15
REMARK    6  A    between atoms: C_19  and  C_20
REMARK    7  A    between atoms: C_20  and  C_21
REMARK    8  A    between atoms: C_20  and  C_23
REMARK    9  A    between atoms: C_23  and  C_26
REMARK   10  A    between atoms: N_30  and  C_31
REMARK                            x       y       z     vdW  Elec       q    Type
REMARK                         _______ _______ _______ _____ _____    ______ ____
ROOT
ATOM      1  C   UNL     1      -0.432  11.373  19.348  0.00  0.00    +0.000 A 
ATOM      2  C   UNL     1       0.370  10.621  18.483  0.00  0.00    +0.000 A 
ATOM      3  C   UNL     1       0.963   9.478  18.975  0.00  0.00    +0.000 A 
ATOM      4  C   UNL     1       0.818   9.037  20.285  0.00  0.00    +0.000 A 
ATOM      5  C   UNL     1       0.045   9.769  21.181  0.00  0.00    +0.000 A 
ATOM      6  C   UNL     1      -0.595  10.932  20.686  0.00  0.00    +0.000 A 
ATOM      7  C   UNL     1       1.596   7.768  20.461  0.00  0.00    +0.000 C 
ATOM      8  N   UNL     1       2.201   7.557  19.151  0.00  0.00    +0.000 N 
ATOM      9  C   UNL     1       1.838   8.560  18.253  0.00  0.00    +0.000 C 
ATOM     10  O   UNL     1       2.121   8.747  17.084  0.00  0.00    +0.000 OA
ENDROOT
BRANCH   8  11
ATOM     11  C   UNL     1       3.078   6.475  18.873  0.00  0.00    +0.000 A 
ATOM     12  C   UNL     1       3.294   5.466  19.818  0.00  0.00    +0.000 A 
ATOM     13  C   UNL     1       4.130   4.384  19.546  0.00  0.00    +0.000 A 
ATOM     14  C   UNL     1       4.781   4.300  18.325  0.00  0.00    +0.000 A 
ATOM     15  C   UNL     1       4.619   5.305  17.361  0.00  0.00    +0.000 A 
ATOM     16  C   UNL     1       3.747   6.378  17.642  0.00  0.00    +0.000 A 
BRANCH  15  17
ATOM     17  C   UNL     1       5.380   5.257  16.034  0.00  0.00    +0.000 C 
ATOM     18  C   UNL     1       4.780   4.145  15.157  0.00  0.00    +0.000 C 
ATOM     19  F   UNL     1       5.199   6.411  15.303  0.00  0.00    +0.000 F 
BRANCH  17  20
ATOM     20  C   UNL     1       6.909   5.025  16.211  0.00  0.00    +0.000 C 
ATOM     21  F   UNL     1       7.228   3.738  15.863  0.00  0.00    +0.000 F 
ATOM     22  F   UNL     1       7.578   5.790  15.290  0.00  0.00    +0.000 F 
BRANCH  20  23
ATOM     23  C   UNL     1       7.454   5.331  17.569  0.00  0.00    +0.000 A 
ATOM     24  N   UNL     1       7.812   4.495  18.527  0.00  0.00    +0.000 NA
ATOM     25  N   UNL     1       8.205   5.230  19.622  0.00  0.00    +0.000 NA
ATOM     26  C   UNL     1       8.083   6.500  19.313  0.00  0.00    +0.000 A 
ATOM     27  N   UNL     1       7.631   6.611  18.037  0.00  0.00    +0.000 N 
ATOM     28  C   UNL     1       7.390   7.843  17.332  0.00  0.00    +0.000 C 
ENDBRANCH  20  23
ENDBRANCH  17  20
ENDBRANCH  15  17
ENDBRANCH   8  11
BRANCH   5  29
ATOM     29  C   UNL     1      -0.098   9.387  22.631  0.00  0.00    +0.000 C 
ATOM     30  F   UNL     1      -0.796  10.295  23.368  0.00  0.00    +0.000 F 
ATOM     31  F   UNL     1      -0.757   8.205  22.788  0.00  0.00    +0.000 F 
ATOM     32  F   UNL     1       1.098   9.239  23.261  0.00  0.00    +0.000 F 
ENDBRANCH   5  29
BRANCH   1  34
ATOM     33  C   UNL     1      -1.337  13.606  19.986  0.00  0.00    +0.000 C 
ATOM     34  C   UNL     1      -1.099  12.639  18.811  0.00  0.00    +0.000 C 
BRANCH  34  35
ATOM     35  N   UNL     1      -2.340  12.358  18.064  0.00  0.00    +0.000 NA
ATOM     36  C   UNL     1      -2.156  11.428  16.936  0.00  0.00    +0.000 C 
ATOM     37  C   UNL     1      -2.998  10.194  17.216  0.00  0.00    +0.000 C 
ATOM     38  C   UNL     1      -4.113  10.725  18.079  0.00  0.00    +0.000 C 
ATOM     39  F   UNL     1      -5.073  11.268  17.285  0.00  0.00    +0.000 F 
ATOM     40  C   UNL     1      -3.435  11.811  18.897  0.00  0.00    +0.000 C 
ENDBRANCH  34  35
ENDBRANCH   1  34
TORSDOF 7
ENDMDL
MODEL 7
REMARK VINA RESULT:      -9.6      2.624      9.198
REMARK  Name = 
REMARK  10 active torsions:
REMARK  status: ('A' for Active; 'I' for Inactive)
REMARK    1  A    between atoms: C_1  and  C_2
REMARK    2  A    between atoms: C_2  and  C_3
REMARK    3  A    between atoms: C_2  and  N_35
REMARK    4  A    between atoms: C_7  and  C_8
REMARK    5  A    between atoms: N_14  and  C_15
REMARK    6  A    between atoms: C_19  and  C_20
REMARK    7  A    between atoms: C_20  and  C_21
REMARK    8  A    between atoms: C_20  and  C_23
REMARK    9  A    between atoms: C_23  and  C_26
REMARK   10  A    between atoms: N_30  and  C_31
REMARK                            x       y       z     vdW  Elec       q    Type
REMARK                         _______ _______ _______ _____ _____    ______ ____
ROOT
ATOM      1  C   UNL     1       3.830   5.290  18.023  0.00  0.00    +0.000 A 
ATOM      2  C   UNL     1       3.404   6.618  18.125  0.00  0.00    +0.000 A 
ATOM      3  C   UNL     1       2.547   6.950  19.152  0.00  0.00    +0.000 A 
ATOM      4  C   UNL     1       2.071   6.036  20.084  0.00  0.00    +0.000 A 
ATOM      5  C   UNL     1       2.455   4.700  20.003  0.00  0.00    +0.000 A 
ATOM      6  C   UNL     1       3.359   4.347  18.972  0.00  0.00    +0.000 A 
ATOM      7  C   UNL     1       1.170   6.746  21.048  0.00  0.00    +0.000 C 
ATOM      8  N   UNL     1       1.166   8.120  20.559  0.00  0.00    +0.000 N 
ATOM      9  C   UNL     1       1.978   8.264  19.434  0.00  0.00    +0.000 C 
ATOM     10  O   UNL     1       2.243   9.228  18.739  0.00  0.00    +0.000 OA
ENDROOT
BRANCH   8  11
ATOM     11  C   UNL     1       0.389   9.148  21.154  0.00  0.00    +0.000 A 
ATOM     12  C   UNL     1       0.041   9.090  22.509  0.00  0.00    +0.000 A 
ATOM     13  C   UNL     1      -0.697  10.107  23.114  0.00  0.00    +0.000 A 
ATOM     14  C   UNL     1      -1.117  11.197  22.366  0.00  0.00    +0.000 A 
ATOM     15  C   UNL     1      -0.819  11.280  20.999  0.00  0.00    +0.000 A 
ATOM     16  C   UNL     1      -0.047  10.257  20.410  0.00  0.00    +0.000 A 
BRANCH  15  17
ATOM     17  C   UNL     1      -1.330  12.446  20.148  0.00  0.00    +0.000 C 
ATOM     18  C   UNL     1      -1.752  11.907  18.771  0.00  0.00    +0.000 C 
ATOM     19  F   UNL     1      -2.478  12.994  20.675  0.00  0.00    +0.000 F 
BRANCH  17  20
ATOM     20  C   UNL     1      -0.281  13.583  19.972  0.00  0.00    +0.000 C 
ATOM     21  F   UNL     1       0.922  13.052  19.582  0.00  0.00    +0.000 F 
ATOM     22  F   UNL     1      -0.655  14.363  18.908  0.00  0.00    +0.000 F 
BRANCH  20  23
ATOM     23  C   UNL     1      -0.081  14.465  21.162  0.00  0.00    +0.000 A 
ATOM     24  N   UNL     1       0.766  14.326  22.165  0.00  0.00    +0.000 NA
ATOM     25  N   UNL     1       0.556  15.352  23.058  0.00  0.00    +0.000 NA
ATOM     26  C   UNL     1      -0.412  16.100  22.583  0.00  0.00    +0.000 A 
ATOM     27  N   UNL     1      -0.831  15.593  21.395  0.00  0.00    +0.000 N 
ATOM     28  C   UNL     1      -1.865  16.148  20.559  0.00  0.00    +0.000 C 
ENDBRANCH  20  23
ENDBRANCH  17  20
ENDBRANCH  15  17
ENDBRANCH   8  11
BRANCH   5  29
ATOM     29  C   UNL     1       1.925   3.645  20.938  0.00  0.00    +0.000 C 
ATOM     30  F   UNL     1       2.388   2.394  20.666  0.00  0.00    +0.000 F 
ATOM     31  F   UNL     1       2.267   3.888  22.234  0.00  0.00    +0.000 F 
ATOM     32  F   UNL     1       0.568   3.552  20.916  0.00  0.00    +0.000 F 
ENDBRANCH   5  29
BRANCH   1  34
ATOM     33  C   UNL     1       4.336   3.568  16.294  0.00  0.00    +0.000 C 
ATOM     34  C   UNL     1       4.787   4.913  16.891  0.00  0.00    +0.000 C 
BRANCH  34  35
ATOM     35  N   UNL     1       6.197   4.884  17.322  0.00  0.00    +0.000 NA
ATOM     36  C   UNL     1       7.006   5.990  16.777  0.00  0.00    +0.000 C 
ATOM     37  C   UNL     1       7.504   6.816  17.952  0.00  0.00    +0.000 C 
ATOM     38  C   UNL     1       7.557   5.819  19.079  0.00  0.00    +0.000 C 
ATOM     39  F   UNL     1       8.722   5.123  19.006  0.00  0.00    +0.000 F 
ATOM     40  C   UNL     1       6.381   4.902  18.791  0.00  0.00    +0.000 C 
ENDBRANCH  34  35
ENDBRANCH   1  34
TORSDOF 7
ENDMDL
MODEL 8
REMARK VINA RESULT:      -9.5      2.485      9.032
REMARK  Name = 
REMARK  10 active torsions:
REMARK  status: ('A' for Active; 'I' for Inactive)
REMARK    1  A    between atoms: C_1  and  C_2
REMARK    2  A    between atoms: C_2  and  C_3
REMARK    3  A    between atoms: C_2  and  N_35
REMARK    4  A    between atoms: C_7  and  C_8
REMARK    5  A    between atoms: N_14  and  C_15
REMARK    6  A    between atoms: C_19  and  C_20
REMARK    7  A    between atoms: C_20  and  C_21
REMARK    8  A    between atoms: C_20  and  C_23
REMARK    9  A    between atoms: C_23  and  C_26
REMARK   10  A    between atoms: N_30  and  C_31
REMARK                            x       y       z     vdW  Elec       q    Type
REMARK                         _______ _______ _______ _____ _____    ______ ____
ROOT
ATOM      1  C   UNL     1       3.870   5.339  17.973  0.00  0.00    +0.000 A 
ATOM      2  C   UNL     1       3.444   6.669  18.042  0.00  0.00    +0.000 A 
ATOM      3  C   UNL     1       2.576   7.022  19.053  0.00  0.00    +0.000 A 
ATOM      4  C   UNL     1       2.091   6.128  20.000  0.00  0.00    +0.000 A 
ATOM      5  C   UNL     1       2.476   4.792  19.952  0.00  0.00    +0.000 A 
ATOM      6  C   UNL     1       3.390   4.416  18.937  0.00  0.00    +0.000 A 
ATOM      7  C   UNL     1       1.180   6.859  20.939  0.00  0.00    +0.000 C 
ATOM      8  N   UNL     1       1.181   8.222  20.420  0.00  0.00    +0.000 N 
ATOM      9  C   UNL     1       2.004   8.342  19.301  0.00  0.00    +0.000 C 
ATOM     10  O   UNL     1       2.276   9.291  18.589  0.00  0.00    +0.000 OA
ENDROOT
BRANCH   8  11
ATOM     11  C   UNL     1       0.398   9.262  20.986  0.00  0.00    +0.000 A 
ATOM     12  C   UNL     1       0.077   9.259  22.349  0.00  0.00    +0.000 A 
ATOM     13  C   UNL     1      -0.667  10.289  22.922  0.00  0.00    +0.000 A 
ATOM     14  C   UNL     1      -1.120  11.337  22.137  0.00  0.00    +0.000 A 
ATOM     15  C   UNL     1      -0.850  11.365  20.762  0.00  0.00    +0.000 A 
ATOM     16  C   UNL     1      -0.072  10.329  20.202  0.00  0.00    +0.000 A 
BRANCH  15  17
ATOM     17  C   UNL     1      -1.397  12.484  19.871  0.00  0.00    +0.000 C 
ATOM     18  C   UNL     1      -2.274  11.859  18.772  0.00  0.00    +0.000 C 
ATOM     19  F   UNL     1      -2.248  13.315  20.565  0.00  0.00    +0.000 F 
BRANCH  17  20
ATOM     20  C   UNL     1      -0.281  13.355  19.224  0.00  0.00    +0.000 C 
ATOM     21  F   UNL     1       0.949  12.807  19.486  0.00  0.00    +0.000 F 
ATOM     22  F   UNL     1      -0.394  13.270  17.860  0.00  0.00    +0.000 F 
BRANCH  20  23
ATOM     23  C   UNL     1      -0.284  14.798  19.613  0.00  0.00    +0.000 A 
ATOM     24  N   UNL     1      -0.715  15.841  18.926  0.00  0.00    +0.000 NA
ATOM     25  N   UNL     1      -0.468  16.978  19.660  0.00  0.00    +0.000 NA
ATOM     26  C   UNL     1       0.106  16.610  20.782  0.00  0.00    +0.000 A 
ATOM     27  N   UNL     1       0.228  15.258  20.803  0.00  0.00    +0.000 N 
ATOM     28  C   UNL     1       0.791  14.477  21.875  0.00  0.00    +0.000 C 
ENDBRANCH  20  23
ENDBRANCH  17  20
ENDBRANCH  15  17
ENDBRANCH   8  11
BRANCH   5  29
ATOM     29  C   UNL     1       1.936   3.756  20.904  0.00  0.00    +0.000 C 
ATOM     30  F   UNL     1       2.380   2.495  20.646  0.00  0.00    +0.000 F 
ATOM     31  F   UNL     1       2.288   4.012  22.194  0.00  0.00    +0.000 F 
ATOM     32  F   UNL     1       0.578   3.682  20.890  0.00  0.00    +0.000 F 
ENDBRANCH   5  29
BRANCH   1  34
ATOM     33  C   UNL     1       4.384   3.588  16.276  0.00  0.00    +0.000 C 
ATOM     34  C   UNL     1       4.839   4.938  16.860  0.00  0.00    +0.000 C 
BRANCH  34  35
ATOM     35  N   UNL     1       6.243   4.903  17.309  0.00  0.00    +0.000 NA
ATOM     36  C   UNL     1       7.062   6.009  16.782  0.00  0.00    +0.000 C 
ATOM     37  C   UNL     1       7.546   6.828  17.967  0.00  0.00    +0.000 C 
ATOM     38  C   UNL     1       7.581   5.825  19.090  0.00  0.00    +0.000 C 
ATOM     39  F   UNL     1       8.745   5.127  19.029  0.00  0.00    +0.000 F 
ATOM     40  C   UNL     1       6.407   4.912  18.781  0.00  0.00    +0.000 C 
ENDBRANCH  34  35
ENDBRANCH   1  34
TORSDOF 7
ENDMDL
MODEL 9
REMARK VINA RESULT:      -9.5      3.142      9.440
REMARK  Name = 
REMARK  10 active torsions:
REMARK  status: ('A' for Active; 'I' for Inactive)
REMARK    1  A    between atoms: C_1  and  C_2
REMARK    2  A    between atoms: C_2  and  C_3
REMARK    3  A    between atoms: C_2  and  N_35
REMARK    4  A    between atoms: C_7  and  C_8
REMARK    5  A    between atoms: N_14  and  C_15
REMARK    6  A    between atoms: C_19  and  C_20
REMARK    7  A    between atoms: C_20  and  C_21
REMARK    8  A    between atoms: C_20  and  C_23
REMARK    9  A    between atoms: C_23  and  C_26
REMARK   10  A    between atoms: N_30  and  C_31
REMARK                            x       y       z     vdW  Elec       q    Type
REMARK                         _______ _______ _______ _____ _____    ______ ____
ROOT
ATOM      1  C   UNL     1       3.794   5.348  17.992  0.00  0.00    +0.000 A 
ATOM      2  C   UNL     1       3.373   6.675  18.122  0.00  0.00    +0.000 A 
ATOM      3  C   UNL     1       2.530   6.991  19.167  0.00  0.00    +0.000 A 
ATOM      4  C   UNL     1       2.067   6.062  20.091  0.00  0.00    +0.000 A 
ATOM      5  C   UNL     1       2.447   4.727  19.982  0.00  0.00    +0.000 A 
ATOM      6  C   UNL     1       3.335   4.389  18.932  0.00  0.00    +0.000 A 
ATOM      7  C   UNL     1       1.181   6.757  21.079  0.00  0.00    +0.000 C 
ATOM      8  N   UNL     1       1.172   8.139  20.614  0.00  0.00    +0.000 N 
ATOM      9  C   UNL     1       1.968   8.300  19.479  0.00  0.00    +0.000 C 
ATOM     10  O   UNL     1       2.225   9.276  18.798  0.00  0.00    +0.000 OA
ENDROOT
BRANCH   8  11
ATOM     11  C   UNL     1       0.406   9.158  21.238  0.00  0.00    +0.000 A 
ATOM     12  C   UNL     1       0.004   9.037  22.573  0.00  0.00    +0.000 A 
ATOM     13  C   UNL     1      -0.725  10.043  23.206  0.00  0.00    +0.000 A 
ATOM     14  C   UNL     1      -1.080  11.186  22.508  0.00  0.00    +0.000 A 
ATOM     15  C   UNL     1      -0.726  11.336  21.160  0.00  0.00    +0.000 A 
ATOM     16  C   UNL     1       0.035  10.321  20.542  0.00  0.00    +0.000 A 
BRANCH  15  17
ATOM     17  C   UNL     1      -1.165  12.564  20.358  0.00  0.00    +0.000 C 
ATOM     18  C   UNL     1      -0.667  13.830  21.077  0.00  0.00    +0.000 C 
ATOM     19  F   UNL     1      -0.561  12.606  19.120  0.00  0.00    +0.000 F 
BRANCH  17  20
ATOM     20  C   UNL     1      -2.706  12.644  20.154  0.00  0.00    +0.000 C 
ATOM     21  F   UNL     1      -3.349  12.229  21.291  0.00  0.00    +0.000 F 
ATOM     22  F   UNL     1      -3.064  13.964  20.038  0.00  0.00    +0.000 F 
BRANCH  20  23
ATOM     23  C   UNL     1      -3.239  11.901  18.972  0.00  0.00    +0.000 A 
ATOM     24  N   UNL     1      -2.587  11.156  18.098  0.00  0.00    +0.000 NA
ATOM     25  N   UNL     1      -3.481  10.715  17.149  0.00  0.00    +0.000 NA
ATOM     26  C   UNL     1      -4.662  11.194  17.463  0.00  0.00    +0.000 A 
ATOM     27  N   UNL     1      -4.562  11.929  18.600  0.00  0.00    +0.000 N 
ATOM     28  C   UNL     1      -5.646  12.600  19.270  0.00  0.00    +0.000 C 
ENDBRANCH  20  23
ENDBRANCH  17  20
ENDBRANCH  15  17
ENDBRANCH   8  11
BRANCH   5  29
ATOM     29  C   UNL     1       1.928   3.657  20.907  0.00  0.00    +0.000 C 
ATOM     30  F   UNL     1       0.572   3.541  20.899  0.00  0.00    +0.000 F 
ATOM     31  F   UNL     1       2.402   2.422  20.581  0.00  0.00    +0.000 F 
ATOM     32  F   UNL     1       2.276   3.865  22.205  0.00  0.00    +0.000 F 
ENDBRANCH   5  29
BRANCH   1  34
ATOM     33  C   UNL     1       4.265   3.660  16.220  0.00  0.00    +0.000 C 
ATOM     34  C   UNL     1       4.734   4.989  16.841  0.00  0.00    +0.000 C 
BRANCH  34  35
ATOM     35  N   UNL     1       6.149   4.939  17.253  0.00  0.00    +0.000 NA
ATOM     36  C   UNL     1       6.964   6.041  16.710  0.00  0.00    +0.000 C 
ATOM     37  C   UNL     1       7.486   6.849  17.888  0.00  0.00    +0.000 C 
ATOM     38  C   UNL     1       7.542   5.838  19.003  0.00  0.00    +0.000 C 
ATOM     39  F   UNL     1       8.698   5.130  18.907  0.00  0.00    +0.000 F 
ATOM     40  C   UNL     1       6.352   4.937  18.720  0.00  0.00    +0.000 C 
ENDBRANCH  34  35
ENDBRANCH   1  34
TORSDOF 7
ENDMDL
