MODEL 1
REMARK VINA RESULT:      -8.7      0.000      0.000
REMARK  Name = 
REMARK  6 active torsions:
REMARK  status: ('A' for Active; 'I' for Inactive)
REMARK    1  A    between atoms: C_1  and  C_2
REMARK    2  A    between atoms: C_2  and  S_3
REMARK    3  A    between atoms: C_2  and  C_10
REMARK    4  A    between atoms: S_3  and  C_4
REMARK    5  A    between atoms: N_8  and  C_9
REMARK    6  A    between atoms: C_22  and  C_23
REMARK                            x       y       z     vdW  Elec       q    Type
REMARK                         _______ _______ _______ _____ _____    ______ ____
ROOT
ATOM      1  C   UNL     1       0.173  10.207  20.814  0.00  0.00    +0.000 A 
ATOM      2  C   UNL     1       0.370  11.206  19.859  0.00  0.00    +0.000 A 
ATOM      3  C   UNL     1       1.165  10.916  18.763  0.00  0.00    +0.000 A 
ATOM      4  N   UNL     1       1.759   9.721  18.559  0.00  0.00    +0.000 NA
ATOM      5  C   UNL     1       1.563   8.745  19.463  0.00  0.00    +0.000 A 
ATOM      6  N   UNL     1       2.145   7.481  19.274  0.00  0.00    +0.000 N 
ATOM      7  C   UNL     1       1.934   6.368  20.186  0.00  0.00    +0.000 C 
ATOM      8  C   UNL     1       2.750   5.271  19.586  0.00  0.00    +0.000 A 
ATOM      9  C   UNL     1       3.372   5.750  18.433  0.00  0.00    +0.000 A 
ATOM     10  C   UNL     1       4.221   4.978  17.665  0.00  0.00    +0.000 A 
ATOM     11  C   UNL     1       4.450   3.677  18.083  0.00  0.00    +0.000 A 
ATOM     12  C   UNL     1       3.820   3.167  19.234  0.00  0.00    +0.000 A 
ATOM     13  C   UNL     1       2.945   3.959  20.005  0.00  0.00    +0.000 A 
ATOM     14  C   UNL     1       2.977   7.143  18.217  0.00  0.00    +0.000 C 
ATOM     15  O   UNL     1       3.374   7.773  17.254  0.00  0.00    +0.000 OA
ATOM     16  C   UNL     1       0.781   8.968  20.587  0.00  0.00    +0.000 A 
ENDROOT
BRANCH  13  17
ATOM     17  C   UNL     1       2.258   3.370  21.209  0.00  0.00    +0.000 C 
ATOM     18  F   UNL     1       2.401   4.111  22.341  0.00  0.00    +0.000 F 
ATOM     19  F   UNL     1       0.916   3.240  21.021  0.00  0.00    +0.000 F 
ATOM     20  F   UNL     1       2.716   2.124  21.514  0.00  0.00    +0.000 F 
ENDBRANCH  13  17
BRANCH   1  22
ATOM     21  C   UNL     1      -0.183   9.650  23.286  0.00  0.00    +0.000 C 
ATOM     22  C   UNL     1      -0.654  10.445  22.062  0.00  0.00    +0.000 C 
BRANCH  22  23
ATOM     23  S   UNL     1      -0.875  12.227  22.415  0.00  0.00    +0.000 S 
BRANCH  23  24
ATOM     24  C   UNL     1      -2.574  12.421  22.665  0.00  0.00    +0.000 A 
ATOM     25  N   UNL     1      -3.243  12.298  23.790  0.00  0.00    +0.000 NA
ATOM     26  N   UNL     1      -4.581  12.467  23.509  0.00  0.00    +0.000 NA
ATOM     27  C   UNL     1      -4.690  12.676  22.217  0.00  0.00    +0.000 A 
ATOM     28  N   UNL     1      -3.451  12.671  21.648  0.00  0.00    +0.000 N 
ATOM     29  C   UNL     1      -3.160  12.910  20.261  0.00  0.00    +0.000 C 
ENDBRANCH  23  24
ENDBRANCH  22  23
ENDBRANCH   1  22
TORSDOF 4
ENDMDL
MODEL 2
REMARK VINA RESULT:      -8.6      0.699      1.014
REMARK  Name = 
REMARK  6 active torsions:
REMARK  status: ('A' for Active; 'I' for Inactive)
REMARK    1  A    between atoms: C_1  and  C_2
REMARK    2  A    between atoms: C_2  and  S_3
REMARK    3  A    between atoms: C_2  and  C_10
REMARK    4  A    between atoms: S_3  and  C_4
REMARK    5  A    between atoms: N_8  and  C_9
REMARK    6  A    between atoms: C_22  and  C_23
REMARK                            x       y       z     vdW  Elec       q    Type
REMARK                         _______ _______ _______ _____ _____    ______ ____
ROOT
ATOM      1  C   UNL     1      -0.113  10.579  20.967  0.00  0.00    +0.000 A 
ATOM      2  C   UNL     1       0.027  11.643  20.075  0.00  0.00    +0.000 A 
ATOM      3  C   UNL     1       0.798  11.449  18.941  0.00  0.00    +0.000 A 
ATOM      4  N   UNL     1       1.419  10.287  18.642  0.00  0.00    +0.000 NA
ATOM      5  C   UNL     1       1.276   9.250  19.485  0.00  0.00    +0.000 A 
ATOM      6  N   UNL     1       1.888   8.017  19.198  0.00  0.00    +0.000 N 
ATOM      7  C   UNL     1       1.734   6.842  20.040  0.00  0.00    +0.000 C 
ATOM      8  C   UNL     1       2.563   5.812  19.347  0.00  0.00    +0.000 A 
ATOM      9  C   UNL     1       3.137   6.382  18.211  0.00  0.00    +0.000 A 
ATOM     10  C   UNL     1       3.984   5.688  17.371  0.00  0.00    +0.000 A 
ATOM     11  C   UNL     1       4.262   4.369  17.695  0.00  0.00    +0.000 A 
ATOM     12  C   UNL     1       3.680   3.768  18.828  0.00  0.00    +0.000 A 
ATOM     13  C   UNL     1       2.807   4.481  19.673  0.00  0.00    +0.000 A 
ATOM     14  C   UNL     1       2.697   7.774  18.098  0.00  0.00    +0.000 C 
ATOM     15  O   UNL     1       3.049   8.477  17.168  0.00  0.00    +0.000 OA
ATOM     16  C   UNL     1       0.522   9.376  20.643  0.00  0.00    +0.000 A 
ENDROOT
BRANCH  13  17
ATOM     17  C   UNL     1       2.172   3.795  20.854  0.00  0.00    +0.000 C 
ATOM     18  F   UNL     1       2.513   2.484  20.976  0.00  0.00    +0.000 F 
ATOM     19  F   UNL     1       2.520   4.377  22.034  0.00  0.00    +0.000 F 
ATOM     20  F   UNL     1       0.812   3.827  20.807  0.00  0.00    +0.000 F 
ENDBRANCH  13  17
BRANCH   1  22
ATOM     21  C   UNL     1      -0.403   9.824  23.395  0.00  0.00    +0.000 C 
ATOM     22  C   UNL     1      -0.909  10.711  22.250  0.00  0.00    +0.000 C 
BRANCH  22  23
ATOM     23  S   UNL     1      -1.131  12.457  22.750  0.00  0.00    +0.000 S 
BRANCH  23  24
ATOM     24  C   UNL     1      -2.828  12.623  23.034  0.00  0.00    +0.000 A 
ATOM     25  N   UNL     1      -3.570  11.963  23.894  0.00  0.00    +0.000 NA
ATOM     26  N   UNL     1      -4.876  12.369  23.728  0.00  0.00    +0.000 NA
ATOM     27  C   UNL     1      -4.893  13.258  22.760  0.00  0.00    +0.000 A 
ATOM     28  N   UNL     1      -3.624  13.461  22.305  0.00  0.00    +0.000 N 
ATOM     29  C   UNL     1      -3.235  14.393  21.282  0.00  0.00    +0.000 C 
ENDBRANCH  23  24
ENDBRANCH  22  23
ENDBRANCH   1  22
TORSDOF 4
ENDMDL
MODEL 3
REMARK VINA RESULT:      -8.5      0.928      1.392
REMARK  Name = 
REMARK  6 active torsions:
REMARK  status: ('A' for Active; 'I' for Inactive)
REMARK    1  A    between atoms: C_1  and  C_2
REMARK    2  A    between atoms: C_2  and  S_3
REMARK    3  A    between atoms: C_2  and  C_10
REMARK    4  A    between atoms: S_3  and  C_4
REMARK    5  A    between atoms: N_8  and  C_9
REMARK    6  A    between atoms: C_22  and  C_23
REMARK                            x       y       z     vdW  Elec       q    Type
REMARK                         _______ _______ _______ _____ _____    ______ ____
ROOT
ATOM      1  C   UNL     1       0.090  10.553  20.762  0.00  0.00    +0.000 A 
ATOM      2  C   UNL     1       0.266  11.572  19.825  0.00  0.00    +0.000 A 
ATOM      3  C   UNL     1       1.034  11.305  18.704  0.00  0.00    +0.000 A 
ATOM      4  N   UNL     1       1.621  10.113  18.459  0.00  0.00    +0.000 NA
ATOM      5  C   UNL     1       1.443   9.118  19.346  0.00  0.00    +0.000 A 
ATOM      6  N   UNL     1       2.017   7.857  19.115  0.00  0.00    +0.000 N 
ATOM      7  C   UNL     1       1.825   6.725  20.007  0.00  0.00    +0.000 C 
ATOM      8  C   UNL     1       2.624   5.640  19.363  0.00  0.00    +0.000 A 
ATOM      9  C   UNL     1       3.219   6.142  18.207  0.00  0.00    +0.000 A 
ATOM     10  C   UNL     1       4.048   5.387  17.402  0.00  0.00    +0.000 A 
ATOM     11  C   UNL     1       4.283   4.076  17.785  0.00  0.00    +0.000 A 
ATOM     12  C   UNL     1       3.680   3.542  18.939  0.00  0.00    +0.000 A 
ATOM     13  C   UNL     1       2.826   4.318  19.749  0.00  0.00    +0.000 A 
ATOM     14  C   UNL     1       2.823   7.541  18.031  0.00  0.00    +0.000 C 
ATOM     15  O   UNL     1       3.199   8.191  17.073  0.00  0.00    +0.000 OA
ATOM     16  C   UNL     1       0.689   9.318  20.493  0.00  0.00    +0.000 A 
ENDROOT
BRANCH  13  17
ATOM     17  C   UNL     1       2.166   3.704  20.955  0.00  0.00    +0.000 C 
ATOM     18  F   UNL     1       0.808   3.673  20.883  0.00  0.00    +0.000 F 
ATOM     19  F   UNL     1       2.553   2.413  21.150  0.00  0.00    +0.000 F 
ATOM     20  F   UNL     1       2.467   4.364  22.107  0.00  0.00    +0.000 F 
ENDBRANCH  13  17
BRANCH   1  22
ATOM     21  C   UNL     1      -0.299   9.841  23.189  0.00  0.00    +0.000 C 
ATOM     22  C   UNL     1      -0.706  10.764  22.034  0.00  0.00    +0.000 C 
BRANCH  22  23
ATOM     23  S   UNL     1      -0.772  12.527  22.523  0.00  0.00    +0.000 S 
BRANCH  23  24
ATOM     24  C   UNL     1      -2.304  12.713  23.302  0.00  0.00    +0.000 A 
ATOM     25  N   UNL     1      -3.348  11.919  23.226  0.00  0.00    +0.000 NA
ATOM     26  N   UNL     1      -4.371  12.493  23.948  0.00  0.00    +0.000 NA
ATOM     27  C   UNL     1      -3.923  13.628  24.434  0.00  0.00    +0.000 A 
ATOM     28  N   UNL     1      -2.621  13.800  24.066  0.00  0.00    +0.000 N 
ATOM     29  C   UNL     1      -1.776  14.900  24.443  0.00  0.00    +0.000 C 
ENDBRANCH  23  24
ENDBRANCH  22  23
ENDBRANCH   1  22
TORSDOF 4
ENDMDL
MODEL 4
REMARK VINA RESULT:      -8.5      0.554      1.125
REMARK  Name = 
REMARK  6 active torsions:
REMARK  status: ('A' for Active; 'I' for Inactive)
REMARK    1  A    between atoms: C_1  and  C_2
REMARK    2  A    between atoms: C_2  and  S_3
REMARK    3  A    between atoms: C_2  and  C_10
REMARK    4  A    between atoms: S_3  and  C_4
REMARK    5  A    between atoms: N_8  and  C_9
REMARK    6  A    between atoms: C_22  and  C_23
REMARK                            x       y       z     vdW  Elec       q    Type
REMARK                         _______ _______ _______ _____ _____    ______ ____
ROOT
ATOM      1  C   UNL     1       0.154  10.232  20.871  0.00  0.00    +0.000 A 
ATOM      2  C   UNL     1       0.373  11.250  19.941  0.00  0.00    +0.000 A 
ATOM      3  C   UNL     1       1.176  10.974  18.847  0.00  0.00    +0.000 A 
ATOM      4  N   UNL     1       1.757   9.777  18.621  0.00  0.00    +0.000 NA
ATOM      5  C   UNL     1       1.538   8.783  19.501  0.00  0.00    +0.000 A 
ATOM      6  N   UNL     1       2.106   7.516  19.290  0.00  0.00    +0.000 N 
ATOM      7  C   UNL     1       1.872   6.386  20.174  0.00  0.00    +0.000 C 
ATOM      8  C   UNL     1       2.680   5.292  19.558  0.00  0.00    +0.000 A 
ATOM      9  C   UNL     1       3.320   5.788  18.422  0.00  0.00    +0.000 A 
ATOM     10  C   UNL     1       4.167   5.024  17.645  0.00  0.00    +0.000 A 
ATOM     11  C   UNL     1       4.375   3.710  18.036  0.00  0.00    +0.000 A 
ATOM     12  C   UNL     1       3.727   3.183  19.169  0.00  0.00    +0.000 A 
ATOM     13  C   UNL     1       2.855   3.969  19.949  0.00  0.00    +0.000 A 
ATOM     14  C   UNL     1       2.945   7.191  18.234  0.00  0.00    +0.000 C 
ATOM     15  O   UNL     1       3.361   7.838  17.290  0.00  0.00    +0.000 OA
ATOM     16  C   UNL     1       0.748   8.991  20.623  0.00  0.00    +0.000 A 
ENDROOT
BRANCH  13  17
ATOM     17  C   UNL     1       2.147   3.361  21.132  0.00  0.00    +0.000 C 
ATOM     18  F   UNL     1       2.416   3.983  22.311  0.00  0.00    +0.000 F 
ATOM     19  F   UNL     1       0.793   3.399  20.995  0.00  0.00    +0.000 F 
ATOM     20  F   UNL     1       2.469   2.051  21.316  0.00  0.00    +0.000 F 
ENDBRANCH  13  17
BRANCH   1  22
ATOM     21  C   UNL     1      -0.176   9.701  23.353  0.00  0.00    +0.000 C 
ATOM     22  C   UNL     1      -0.683  10.453  22.116  0.00  0.00    +0.000 C 
BRANCH  22  23
ATOM     23  S   UNL     1      -0.986  12.228  22.439  0.00  0.00    +0.000 S 
BRANCH  23  24
ATOM     24  C   UNL     1      -2.584  12.519  21.845  0.00  0.00    +0.000 A 
ATOM     25  N   UNL     1      -2.954  12.743  20.605  0.00  0.00    +0.000 NA
ATOM     26  N   UNL     1      -4.309  12.993  20.604  0.00  0.00    +0.000 NA
ATOM     27  C   UNL     1      -4.723  12.926  21.849  0.00  0.00    +0.000 A 
ATOM     28  N   UNL     1      -3.674  12.614  22.663  0.00  0.00    +0.000 N 
ATOM     29  C   UNL     1      -3.741  12.409  24.084  0.00  0.00    +0.000 C 
ENDBRANCH  23  24
ENDBRANCH  22  23
ENDBRANCH   1  22
TORSDOF 4
ENDMDL
MODEL 5
REMARK VINA RESULT:      -8.0      3.832      4.811
REMARK  Name = 
REMARK  6 active torsions:
REMARK  status: ('A' for Active; 'I' for Inactive)
REMARK    1  A    between atoms: C_1  and  C_2
REMARK    2  A    between atoms: C_2  and  S_3
REMARK    3  A    between atoms: C_2  and  C_10
REMARK    4  A    between atoms: S_3  and  C_4
REMARK    5  A    between atoms: N_8  and  C_9
REMARK    6  A    between atoms: C_22  and  C_23
REMARK                            x       y       z     vdW  Elec       q    Type
REMARK                         _______ _______ _______ _____ _____    ______ ____
ROOT
ATOM      1  C   UNL     1       0.720  10.876  19.352  0.00  0.00    +0.000 A 
ATOM      2  C   UNL     1      -0.092  10.753  20.481  0.00  0.00    +0.000 A 
ATOM      3  C   UNL     1      -0.101   9.542  21.152  0.00  0.00    +0.000 A 
ATOM      4  N   UNL     1       0.635   8.471  20.784  0.00  0.00    +0.000 NA
ATOM      5  C   UNL     1       1.435   8.583  19.709  0.00  0.00    +0.000 A 
ATOM      6  N   UNL     1       2.234   7.499  19.307  0.00  0.00    +0.000 N 
ATOM      7  C   UNL     1       3.156   7.568  18.185  0.00  0.00    +0.000 C 
ATOM      8  C   UNL     1       3.750   6.199  18.143  0.00  0.00    +0.000 A 
ATOM      9  C   UNL     1       3.188   5.431  19.162  0.00  0.00    +0.000 A 
ATOM     10  C   UNL     1       3.513   4.105  19.368  0.00  0.00    +0.000 A 
ATOM     11  C   UNL     1       4.439   3.537  18.507  0.00  0.00    +0.000 A 
ATOM     12  C   UNL     1       5.032   4.298  17.481  0.00  0.00    +0.000 A 
ATOM     13  C   UNL     1       4.701   5.654  17.287  0.00  0.00    +0.000 A 
ATOM     14  C   UNL     1       2.241   6.254  19.918  0.00  0.00    +0.000 C 
ATOM     15  O   UNL     1       1.639   5.809  20.878  0.00  0.00    +0.000 OA
ATOM     16  C   UNL     1       1.489   9.766  18.986  0.00  0.00    +0.000 A 
ENDROOT
BRANCH  13  17
ATOM     17  C   UNL     1       5.384   6.449  16.204  0.00  0.00    +0.000 C 
ATOM     18  F   UNL     1       4.524   7.111  15.384  0.00  0.00    +0.000 F 
ATOM     19  F   UNL     1       6.215   7.400  16.712  0.00  0.00    +0.000 F 
ATOM     20  F   UNL     1       6.154   5.672  15.394  0.00  0.00    +0.000 F 
ENDBRANCH  13  17
BRANCH   1  22
ATOM     21  C   UNL     1      -0.338  13.157  18.881  0.00  0.00    +0.000 C 
ATOM     22  C   UNL     1       0.767  12.151  18.536  0.00  0.00    +0.000 C 
BRANCH  22  23
ATOM     23  S   UNL     1       2.435  12.905  18.526  0.00  0.00    +0.000 S 
BRANCH  23  24
ATOM     24  C   UNL     1       2.510  13.831  19.985  0.00  0.00    +0.000 A 
ATOM     25  N   UNL     1       2.588  13.386  21.219  0.00  0.00    +0.000 NA
ATOM     26  N   UNL     1       2.551  14.472  22.065  0.00  0.00    +0.000 NA
ATOM     27  C   UNL     1       2.439  15.549  21.320  0.00  0.00    +0.000 A 
ATOM     28  N   UNL     1       2.425  15.194  20.004  0.00  0.00    +0.000 N 
ATOM     29  C   UNL     1       2.359  16.098  18.888  0.00  0.00    +0.000 C 
ENDBRANCH  23  24
ENDBRANCH  22  23
ENDBRANCH   1  22
TORSDOF 4
ENDMDL
MODEL 6
REMARK VINA RESULT:      -8.0      1.314      1.983
REMARK  Name = 
REMARK  6 active torsions:
REMARK  status: ('A' for Active; 'I' for Inactive)
REMARK    1  A    between atoms: C_1  and  C_2
REMARK    2  A    between atoms: C_2  and  S_3
REMARK    3  A    between atoms: C_2  and  C_10
REMARK    4  A    between atoms: S_3  and  C_4
REMARK    5  A    between atoms: N_8  and  C_9
REMARK    6  A    between atoms: C_22  and  C_23
REMARK                            x       y       z     vdW  Elec       q    Type
REMARK                         _______ _______ _______ _____ _____    ______ ____
ROOT
ATOM      1  C   UNL     1       0.497  10.262  19.763  0.00  0.00    +0.000 A 
ATOM      2  C   UNL     1       0.941  11.182  18.811  0.00  0.00    +0.000 A 
ATOM      3  C   UNL     1       1.887  10.765  17.891  0.00  0.00    +0.000 A 
ATOM      4  N   UNL     1       2.405   9.518  17.854  0.00  0.00    +0.000 NA
ATOM      5  C   UNL     1       1.971   8.619  18.755  0.00  0.00    +0.000 A 
ATOM      6  N   UNL     1       2.468   7.304  18.735  0.00  0.00    +0.000 N 
ATOM      7  C   UNL     1       2.008   6.270  19.648  0.00  0.00    +0.000 C 
ATOM      8  C   UNL     1       2.820   5.080  19.257  0.00  0.00    +0.000 A 
ATOM      9  C   UNL     1       3.672   5.437  18.213  0.00  0.00    +0.000 A 
ATOM     10  C   UNL     1       4.573   4.558  17.647  0.00  0.00    +0.000 A 
ATOM     11  C   UNL     1       4.615   3.271  18.162  0.00  0.00    +0.000 A 
ATOM     12  C   UNL     1       3.753   2.884  19.205  0.00  0.00    +0.000 A 
ATOM     13  C   UNL     1       2.828   3.786  19.768  0.00  0.00    +0.000 A 
ATOM     14  C   UNL     1       3.440   6.840  17.862  0.00  0.00    +0.000 C 
ATOM     15  O   UNL     1       4.051   7.376  16.956  0.00  0.00    +0.000 OA
ATOM     16  C   UNL     1       1.027   8.970  19.709  0.00  0.00    +0.000 A 
ENDROOT
BRANCH  13  17
ATOM     17  C   UNL     1       1.894   3.327  20.857  0.00  0.00    +0.000 C 
ATOM     18  F   UNL     1       0.598   3.686  20.657  0.00  0.00    +0.000 F 
ATOM     19  F   UNL     1       1.884   1.971  20.987  0.00  0.00    +0.000 F 
ATOM     20  F   UNL     1       2.236   3.818  22.080  0.00  0.00    +0.000 F 
ENDBRANCH  13  17
BRANCH   1  22
ATOM     21  C   UNL     1      -0.030  10.388  22.264  0.00  0.00    +0.000 C 
ATOM     22  C   UNL     1      -0.511  10.640  20.830  0.00  0.00    +0.000 C 
BRANCH  22  23
ATOM     23  S   UNL     1      -1.173  12.329  20.590  0.00  0.00    +0.000 S 
BRANCH  23  24
ATOM     24  C   UNL     1      -2.598  12.114  19.636  0.00  0.00    +0.000 A 
ATOM     25  N   UNL     1      -2.681  11.696  18.393  0.00  0.00    +0.000 NA
ATOM     26  N   UNL     1      -4.004  11.748  18.014  0.00  0.00    +0.000 NA
ATOM     27  C   UNL     1      -4.690  12.209  19.036  0.00  0.00    +0.000 A 
ATOM     28  N   UNL     1      -3.847  12.438  20.084  0.00  0.00    +0.000 N 
ATOM     29  C   UNL     1      -4.233  12.902  21.388  0.00  0.00    +0.000 C 
ENDBRANCH  23  24
ENDBRANCH  22  23
ENDBRANCH   1  22
TORSDOF 4
ENDMDL
MODEL 7
REMARK VINA RESULT:      -8.0      3.395      4.336
REMARK  Name = 
REMARK  6 active torsions:
REMARK  status: ('A' for Active; 'I' for Inactive)
REMARK    1  A    between atoms: C_1  and  C_2
REMARK    2  A    between atoms: C_2  and  S_3
REMARK    3  A    between atoms: C_2  and  C_10
REMARK    4  A    between atoms: S_3  and  C_4
REMARK    5  A    between atoms: N_8  and  C_9
REMARK    6  A    between atoms: C_22  and  C_23
REMARK                            x       y       z     vdW  Elec       q    Type
REMARK                         _______ _______ _______ _____ _____    ______ ____
ROOT
ATOM      1  C   UNL     1       0.774  10.401  20.272  0.00  0.00    +0.000 A 
ATOM      2  C   UNL     1       0.000  10.099  21.394  0.00  0.00    +0.000 A 
ATOM      3  C   UNL     1      -0.029   8.786  21.834  0.00  0.00    +0.000 A 
ATOM      4  N   UNL     1       0.652   7.779  21.246  0.00  0.00    +0.000 NA
ATOM      5  C   UNL     1       1.415   8.062  20.175  0.00  0.00    +0.000 A 
ATOM      6  N   UNL     1       2.157   7.046  19.550  0.00  0.00    +0.000 N 
ATOM      7  C   UNL     1       3.038   7.291  18.420  0.00  0.00    +0.000 C 
ATOM      8  C   UNL     1       3.579   5.935  18.105  0.00  0.00    +0.000 A 
ATOM      9  C   UNL     1       3.027   5.011  18.991  0.00  0.00    +0.000 A 
ATOM     10  C   UNL     1       3.310   3.661  18.938  0.00  0.00    +0.000 A 
ATOM     11  C   UNL     1       4.181   3.232  17.949  0.00  0.00    +0.000 A 
ATOM     12  C   UNL     1       4.763   4.149  17.053  0.00  0.00    +0.000 A 
ATOM     13  C   UNL     1       4.477   5.528  17.123  0.00  0.00    +0.000 A 
ATOM     14  C   UNL     1       2.140   5.710  19.924  0.00  0.00    +0.000 C 
ATOM     15  O   UNL     1       1.559   5.116  20.813  0.00  0.00    +0.000 OA
ATOM     16  C   UNL     1       1.487   9.355  19.678  0.00  0.00    +0.000 A 
ENDROOT
BRANCH  13  17
ATOM     17  C   UNL     1       5.148   6.486  16.174  0.00  0.00    +0.000 C 
ATOM     18  F   UNL     1       4.285   7.324  15.539  0.00  0.00    +0.000 F 
ATOM     19  F   UNL     1       6.046   7.290  16.806  0.00  0.00    +0.000 F 
ATOM     20  F   UNL     1       5.843   5.847  15.192  0.00  0.00    +0.000 F 
ENDBRANCH  13  17
BRANCH   1  22
ATOM     21  C   UNL     1       1.771  11.943  18.490  0.00  0.00    +0.000 C 
ATOM     22  C   UNL     1       0.838  11.803  19.699  0.00  0.00    +0.000 C 
BRANCH  22  23
ATOM     23  S   UNL     1      -0.825  12.503  19.396  0.00  0.00    +0.000 S 
BRANCH  23  24
ATOM     24  C   UNL     1      -1.629  11.326  18.418  0.00  0.00    +0.000 A 
ATOM     25  N   UNL     1      -1.088  10.439  17.615  0.00  0.00    +0.000 NA
ATOM     26  N   UNL     1      -2.106   9.759  16.984  0.00  0.00    +0.000 NA
ATOM     27  C   UNL     1      -3.241  10.261  17.414  0.00  0.00    +0.000 A 
ATOM     28  N   UNL     1      -2.990  11.239  18.330  0.00  0.00    +0.000 N 
ATOM     29  C   UNL     1      -3.979  11.989  19.055  0.00  0.00    +0.000 C 
ENDBRANCH  23  24
ENDBRANCH  22  23
ENDBRANCH   1  22
TORSDOF 4
ENDMDL
MODEL 8
REMARK VINA RESULT:      -7.9      1.269      1.677
REMARK  Name = 
REMARK  6 active torsions:
REMARK  status: ('A' for Active; 'I' for Inactive)
REMARK    1  A    between atoms: C_1  and  C_2
REMARK    2  A    between atoms: C_2  and  S_3
REMARK    3  A    between atoms: C_2  and  C_10
REMARK    4  A    between atoms: S_3  and  C_4
REMARK    5  A    between atoms: N_8  and  C_9
REMARK    6  A    between atoms: C_22  and  C_23
REMARK                            x       y       z     vdW  Elec       q    Type
REMARK                         _______ _______ _______ _____ _____    ______ ____
ROOT
ATOM      1  C   UNL     1       0.594  10.308  19.711  0.00  0.00    +0.000 A 
ATOM      2  C   UNL     1       1.077  11.204  18.755  0.00  0.00    +0.000 A 
ATOM      3  C   UNL     1       2.020  10.749  17.850  0.00  0.00    +0.000 A 
ATOM      4  N   UNL     1       2.500   9.487  17.831  0.00  0.00    +0.000 NA
ATOM      5  C   UNL     1       2.029   8.610  18.736  0.00  0.00    +0.000 A 
ATOM      6  N   UNL     1       2.486   7.281  18.735  0.00  0.00    +0.000 N 
ATOM      7  C   UNL     1       1.984   6.271  19.652  0.00  0.00    +0.000 C 
ATOM      8  C   UNL     1       2.764   5.052  19.282  0.00  0.00    +0.000 A 
ATOM      9  C   UNL     1       3.638   5.373  18.244  0.00  0.00    +0.000 A 
ATOM     10  C   UNL     1       4.518   4.461  17.697  0.00  0.00    +0.000 A 
ATOM     11  C   UNL     1       4.515   3.179  18.225  0.00  0.00    +0.000 A 
ATOM     12  C   UNL     1       3.630   2.829  19.262  0.00  0.00    +0.000 A 
ATOM     13  C   UNL     1       2.727   3.764  19.806  0.00  0.00    +0.000 A 
ATOM     14  C   UNL     1       3.453   6.778  17.877  0.00  0.00    +0.000 C 
ATOM     15  O   UNL     1       4.090   7.287  16.972  0.00  0.00    +0.000 OA
ATOM     16  C   UNL     1       1.086   8.999  19.676  0.00  0.00    +0.000 A 
ENDROOT
BRANCH  13  17
ATOM     17  C   UNL     1       1.767   3.344  20.888  0.00  0.00    +0.000 C 
ATOM     18  F   UNL     1       0.490   3.766  20.684  0.00  0.00    +0.000 F 
ATOM     19  F   UNL     1       1.693   1.990  21.011  0.00  0.00    +0.000 F 
ATOM     20  F   UNL     1       2.126   3.813  22.115  0.00  0.00    +0.000 F 
ENDBRANCH  13  17
BRANCH   1  22
ATOM     21  C   UNL     1      -0.014  10.356  22.196  0.00  0.00    +0.000 C 
ATOM     22  C   UNL     1      -0.414  10.726  20.762  0.00  0.00    +0.000 C 
BRANCH  22  23
ATOM     23  S   UNL     1      -0.902  12.482  20.592  0.00  0.00    +0.000 S 
BRANCH  23  24
ATOM     24  C   UNL     1      -2.584  12.437  20.197  0.00  0.00    +0.000 A 
ATOM     25  N   UNL     1      -3.603  12.722  20.976  0.00  0.00    +0.000 NA
ATOM     26  N   UNL     1      -4.760  12.480  20.268  0.00  0.00    +0.000 NA
ATOM     27  C   UNL     1      -4.411  12.041  19.080  0.00  0.00    +0.000 A 
ATOM     28  N   UNL     1      -3.051  12.013  18.985  0.00  0.00    +0.000 N 
ATOM     29  C   UNL     1      -2.295  11.634  17.823  0.00  0.00    +0.000 C 
ENDBRANCH  23  24
ENDBRANCH  22  23
ENDBRANCH   1  22
TORSDOF 4
ENDMDL
MODEL 9
REMARK VINA RESULT:      -7.9      5.110      9.089
REMARK  Name = 
REMARK  6 active torsions:
REMARK  status: ('A' for Active; 'I' for Inactive)
REMARK    1  A    between atoms: C_1  and  C_2
REMARK    2  A    between atoms: C_2  and  S_3
REMARK    3  A    between atoms: C_2  and  C_10
REMARK    4  A    between atoms: S_3  and  C_4
REMARK    5  A    between atoms: N_8  and  C_9
REMARK    6  A    between atoms: C_22  and  C_23
REMARK                            x       y       z     vdW  Elec       q    Type
REMARK                         _______ _______ _______ _____ _____    ______ ____
ROOT
ATOM      1  C   UNL     1       4.525   4.930  16.828  0.00  0.00    +0.000 A 
ATOM      2  C   UNL     1       4.505   3.633  17.346  0.00  0.00    +0.000 A 
ATOM      3  C   UNL     1       3.789   3.405  18.509  0.00  0.00    +0.000 A 
ATOM      4  N   UNL     1       3.103   4.360  19.173  0.00  0.00    +0.000 NA
ATOM      5  C   UNL     1       3.101   5.609  18.673  0.00  0.00    +0.000 A 
ATOM      6  N   UNL     1       2.380   6.626  19.321  0.00  0.00    +0.000 N 
ATOM      7  C   UNL     1       2.295   7.985  18.810  0.00  0.00    +0.000 C 
ATOM      8  C   UNL     1       1.453   8.683  19.827  0.00  0.00    +0.000 A 
ATOM      9  C   UNL     1       1.109   7.776  20.829  0.00  0.00    +0.000 A 
ATOM     10  C   UNL     1       0.355   8.127  21.931  0.00  0.00    +0.000 A 
ATOM     11  C   UNL     1      -0.062   9.446  22.021  0.00  0.00    +0.000 A 
ATOM     12  C   UNL     1       0.260  10.375  21.014  0.00  0.00    +0.000 A 
ATOM     13  C   UNL     1       1.020  10.004  19.887  0.00  0.00    +0.000 A 
ATOM     14  C   UNL     1       1.676   6.465  20.505  0.00  0.00    +0.000 C 
ATOM     15  O   UNL     1       1.489   5.499  21.223  0.00  0.00    +0.000 OA
ATOM     16  C   UNL     1       3.800   5.910  17.514  0.00  0.00    +0.000 A 
ENDROOT
BRANCH  13  17
ATOM     17  C   UNL     1       1.312  11.014  18.808  0.00  0.00    +0.000 C 
ATOM     18  F   UNL     1       0.200  11.494  18.189  0.00  0.00    +0.000 F 
ATOM     19  F   UNL     1       1.965  12.106  19.292  0.00  0.00    +0.000 F 
ATOM     20  F   UNL     1       2.104  10.510  17.822  0.00  0.00    +0.000 F 
ENDBRANCH  13  17
BRANCH   1  22
ATOM     21  C   UNL     1       5.090   6.715  15.085  0.00  0.00    +0.000 C 
ATOM     22  C   UNL     1       5.309   5.280  15.580  0.00  0.00    +0.000 C 
BRANCH  22  23
ATOM     23  S   UNL     1       7.080   4.844  15.729  0.00  0.00    +0.000 S 
BRANCH  23  24
ATOM     24  C   UNL     1       7.488   5.211  17.368  0.00  0.00    +0.000 A 
ATOM     25  N   UNL     1       7.658   4.371  18.365  0.00  0.00    +0.000 NA
ATOM     26  N   UNL     1       7.902   5.107  19.503  0.00  0.00    +0.000 NA
ATOM     27  C   UNL     1       7.861   6.377  19.170  0.00  0.00    +0.000 A 
ATOM     28  N   UNL     1       7.620   6.489  17.832  0.00  0.00    +0.000 N 
ATOM     29  C   UNL     1       7.549   7.717  17.089  0.00  0.00    +0.000 C 
ENDBRANCH  23  24
ENDBRANCH  22  23
ENDBRANCH   1  22
TORSDOF 4
ENDMDL
