MODEL 1
REMARK VINA RESULT:      -9.0      0.000      0.000
REMARK  Name = 
REMARK  8 active torsions:
REMARK  status: ('A' for Active; 'I' for Inactive)
REMARK    1  A    between atoms: C_1  and  N_2
REMARK    2  A    between atoms: C_6  and  C_7
REMARK    3  A    between atoms: C_7  and  C_8
REMARK    4  A    between atoms: C_8  and  C_9
REMARK    5  A    between atoms: C_13  and  N_14
REMARK    6  A    between atoms: C_19  and  N_20
REMARK    7  A    between atoms: C_22  and  C_23
REMARK    8  A    between atoms: C_28  and  C_29
REMARK                            x       y       z     vdW  Elec       q    Type
REMARK                         _______ _______ _______ _____ _____    ______ ____
ROOT
ATOM      1  N   UNL     1       1.467   8.047  20.134  0.00  0.00    +0.000 N 
ATOM      2  C   UNL     1       1.539   6.729  20.736  0.00  0.00    +0.000 C 
ATOM      3  C   UNL     1       2.236   5.908  19.722  0.00  0.00    +0.000 A 
ATOM      4  C   UNL     1       2.652   6.708  18.663  0.00  0.00    +0.000 A 
ATOM      5  C   UNL     1       3.375   6.181  17.602  0.00  0.00    +0.000 A 
ATOM      6  C   UNL     1       3.662   4.803  17.607  0.00  0.00    +0.000 A 
ATOM      7  C   UNL     1       3.176   4.006  18.671  0.00  0.00    +0.000 A 
ATOM      8  C   UNL     1       2.466   4.543  19.751  0.00  0.00    +0.000 A 
ATOM      9  C   UNL     1       2.144   8.084  18.909  0.00  0.00    +0.000 C 
ATOM     10  O   UNL     1       2.313   9.002  18.128  0.00  0.00    +0.000 OA
ENDROOT
BRANCH   1  15
ATOM     11  C   UNL     1      -0.727  11.083  20.443  0.00  0.00    +0.000 A 
ATOM     12  C   UNL     1      -0.758  11.214  21.837  0.00  0.00    +0.000 A 
ATOM     13  C   UNL     1      -0.105  10.298  22.676  0.00  0.00    +0.000 A 
ATOM     14  C   UNL     1       0.623   9.225  22.145  0.00  0.00    +0.000 A 
ATOM     15  C   UNL     1       0.698   9.055  20.770  0.00  0.00    +0.000 A 
ATOM     16  C   UNL     1      -0.002   9.977  19.962  0.00  0.00    +0.000 A 
BRANCH  11  17
ATOM     17  C   UNL     1      -1.452  12.091  19.406  0.00  0.00    +0.000 C 
ATOM     18  C   UNL     1      -3.000  12.144  19.500  0.00  0.00    +0.000 C 
ATOM     19  O   UNL     1      -3.169  11.703  18.141  0.00  0.00    +0.000 OA
ATOM     20  C   UNL     1      -1.743  11.564  17.967  0.00  0.00    +0.000 C 
BRANCH  17  21
ATOM     21  C   UNL     1      -0.798  13.496  19.424  0.00  0.00    +0.000 C 
BRANCH  21  27
ATOM     22  C   UNL     1       1.258  14.433  21.638  0.00  0.00    +0.000 C 
ATOM     23  N   UNL     1       1.561  13.902  20.336  0.00  0.00    +0.000 N 
ATOM     24  C   UNL     1       2.820  13.746  19.835  0.00  0.00    +0.000 A 
ATOM     25  N   UNL     1       2.750  13.284  18.612  0.00  0.00    +0.000 NA
ATOM     26  N   UNL     1       1.423  13.149  18.293  0.00  0.00    +0.000 NA
ATOM     27  C   UNL     1       0.701  13.495  19.346  0.00  0.00    +0.000 A 
ENDBRANCH  21  27
ENDBRANCH  17  21
ENDBRANCH  11  17
ENDBRANCH   1  15
BRANCH   6  28
ATOM     28  N   UNL     1       4.399   4.188  16.577  0.00  0.00    +0.000 N 
ATOM     29  C   UNL     1       5.509   3.288  16.658  0.00  0.00    +0.000 C 
ATOM     30  C   UNL     1       6.101   3.997  15.444  0.00  0.00    +0.000 C 
ATOM     31  C   UNL     1       4.719   4.639  15.260  0.00  0.00    +0.000 C 
BRANCH  30  32
ATOM     32  C   UNL     1       7.186   4.974  15.815  0.00  0.00    +0.000 C 
ATOM     33  F   UNL     1       8.021   4.382  16.710  0.00  0.00    +0.000 F 
ATOM     34  F   UNL     1       7.930   5.239  14.712  0.00  0.00    +0.000 F 
ENDBRANCH  30  32
ENDBRANCH   6  28
BRANCH   8  35
ATOM     35  C   UNL     1       1.969   3.651  20.859  0.00  0.00    +0.000 C 
ATOM     36  F   UNL     1       2.385   4.024  22.098  0.00  0.00    +0.000 F 
ATOM     37  F   UNL     1       0.611   3.605  20.913  0.00  0.00    +0.000 F 
ATOM     38  F   UNL     1       2.385   2.365  20.705  0.00  0.00    +0.000 F 
ENDBRANCH   8  35
TORSDOF 7
ENDMDL
MODEL 2
REMARK VINA RESULT:      -8.9      1.081      1.496
REMARK  Name = 
REMARK  8 active torsions:
REMARK  status: ('A' for Active; 'I' for Inactive)
REMARK    1  A    between atoms: C_1  and  N_2
REMARK    2  A    between atoms: C_6  and  C_7
REMARK    3  A    between atoms: C_7  and  C_8
REMARK    4  A    between atoms: C_8  and  C_9
REMARK    5  A    between atoms: C_13  and  N_14
REMARK    6  A    between atoms: C_19  and  N_20
REMARK    7  A    between atoms: C_22  and  C_23
REMARK    8  A    between atoms: C_28  and  C_29
REMARK                            x       y       z     vdW  Elec       q    Type
REMARK                         _______ _______ _______ _____ _____    ______ ____
ROOT
ATOM      1  N   UNL     1       1.652   7.986  20.016  0.00  0.00    +0.000 N 
ATOM      2  C   UNL     1       1.636   6.704  20.695  0.00  0.00    +0.000 C 
ATOM      3  C   UNL     1       2.506   5.845  19.862  0.00  0.00    +0.000 A 
ATOM      4  C   UNL     1       3.088   6.596  18.847  0.00  0.00    +0.000 A 
ATOM      5  C   UNL     1       3.990   6.028  17.956  0.00  0.00    +0.000 A 
ATOM      6  C   UNL     1       4.288   4.659  18.089  0.00  0.00    +0.000 A 
ATOM      7  C   UNL     1       3.637   3.910  19.097  0.00  0.00    +0.000 A 
ATOM      8  C   UNL     1       2.745   4.489  20.007  0.00  0.00    +0.000 A 
ATOM      9  C   UNL     1       2.529   7.972  18.924  0.00  0.00    +0.000 C 
ATOM     10  O   UNL     1       2.819   8.850  18.133  0.00  0.00    +0.000 OA
ENDROOT
BRANCH   1  15
ATOM     11  C   UNL     1      -0.886  10.745  19.758  0.00  0.00    +0.000 A 
ATOM     12  C   UNL     1      -0.923  11.162  21.095  0.00  0.00    +0.000 A 
ATOM     13  C   UNL     1      -0.159  10.524  22.084  0.00  0.00    +0.000 A 
ATOM     14  C   UNL     1       0.688   9.455  21.764  0.00  0.00    +0.000 A 
ATOM     15  C   UNL     1       0.773   9.009  20.453  0.00  0.00    +0.000 A 
ATOM     16  C   UNL     1      -0.038   9.655  19.494  0.00  0.00    +0.000 A 
BRANCH  11  17
ATOM     17  C   UNL     1      -1.734  11.423  18.558  0.00  0.00    +0.000 C 
ATOM     18  C   UNL     1      -3.148  11.932  18.945  0.00  0.00    +0.000 C 
ATOM     19  O   UNL     1      -3.799  11.057  18.005  0.00  0.00    +0.000 OA
ATOM     20  C   UNL     1      -2.537  10.476  17.613  0.00  0.00    +0.000 C 
BRANCH  17  21
ATOM     21  C   UNL     1      -0.899  12.483  17.797  0.00  0.00    +0.000 C 
BRANCH  21  27
ATOM     22  C   UNL     1       2.210  12.425  18.379  0.00  0.00    +0.000 C 
ATOM     23  N   UNL     1       1.244  13.359  18.893  0.00  0.00    +0.000 N 
ATOM     24  C   UNL     1       1.530  14.373  19.759  0.00  0.00    +0.000 A 
ATOM     25  N   UNL     1       0.428  15.008  20.067  0.00  0.00    +0.000 NA
ATOM     26  N   UNL     1      -0.606  14.393  19.408  0.00  0.00    +0.000 NA
ATOM     27  C   UNL     1      -0.110  13.412  18.673  0.00  0.00    +0.000 A 
ENDBRANCH  21  27
ENDBRANCH  17  21
ENDBRANCH  11  17
ENDBRANCH   1  15
BRANCH   6  28
ATOM     28  N   UNL     1       5.199   4.007  17.236  0.00  0.00    +0.000 N 
ATOM     29  C   UNL     1       6.477   4.440  16.760  0.00  0.00    +0.000 C 
ATOM     30  C   UNL     1       6.134   3.793  15.420  0.00  0.00    +0.000 C 
ATOM     31  C   UNL     1       4.981   3.097  16.157  0.00  0.00    +0.000 C 
BRANCH  30  32
ATOM     32  C   UNL     1       5.687   4.796  14.390  0.00  0.00    +0.000 C 
ATOM     33  F   UNL     1       6.786   5.334  13.796  0.00  0.00    +0.000 F 
ATOM     34  F   UNL     1       5.004   4.145  13.415  0.00  0.00    +0.000 F 
ENDBRANCH  30  32
ENDBRANCH   6  28
BRANCH   8  35
ATOM     35  C   UNL     1       2.076   3.647  21.063  0.00  0.00    +0.000 C 
ATOM     36  F   UNL     1       2.386   4.007  22.336  0.00  0.00    +0.000 F 
ATOM     37  F   UNL     1       0.720   3.693  20.976  0.00  0.00    +0.000 F 
ATOM     38  F   UNL     1       2.417   2.333  20.961  0.00  0.00    +0.000 F 
ENDBRANCH   8  35
TORSDOF 7
ENDMDL
MODEL 3
REMARK VINA RESULT:      -8.9      2.641      3.628
REMARK  Name = 
REMARK  8 active torsions:
REMARK  status: ('A' for Active; 'I' for Inactive)
REMARK    1  A    between atoms: C_1  and  N_2
REMARK    2  A    between atoms: C_6  and  C_7
REMARK    3  A    between atoms: C_7  and  C_8
REMARK    4  A    between atoms: C_8  and  C_9
REMARK    5  A    between atoms: C_13  and  N_14
REMARK    6  A    between atoms: C_19  and  N_20
REMARK    7  A    between atoms: C_22  and  C_23
REMARK    8  A    between atoms: C_28  and  C_29
REMARK                            x       y       z     vdW  Elec       q    Type
REMARK                         _______ _______ _______ _____ _____    ______ ____
ROOT
ATOM      1  N   UNL     1       1.581   8.524  19.390  0.00  0.00    +0.000 N 
ATOM      2  C   UNL     1       1.554   7.302  20.171  0.00  0.00    +0.000 C 
ATOM      3  C   UNL     1       2.494   6.403  19.465  0.00  0.00    +0.000 A 
ATOM      4  C   UNL     1       3.120   7.086  18.427  0.00  0.00    +0.000 A 
ATOM      5  C   UNL     1       4.087   6.475  17.642  0.00  0.00    +0.000 A 
ATOM      6  C   UNL     1       4.410   5.130  17.905  0.00  0.00    +0.000 A 
ATOM      7  C   UNL     1       3.715   4.446  18.931  0.00  0.00    +0.000 A 
ATOM      8  C   UNL     1       2.756   5.071  19.736  0.00  0.00    +0.000 A 
ATOM      9  C   UNL     1       2.524   8.447  18.357  0.00  0.00    +0.000 C 
ATOM     10  O   UNL     1       2.841   9.266  17.515  0.00  0.00    +0.000 OA
ENDROOT
BRANCH   1  15
ATOM     11  C   UNL     1      -1.415  10.750  18.949  0.00  0.00    +0.000 A 
ATOM     12  C   UNL     1      -1.219  11.629  20.021  0.00  0.00    +0.000 A 
ATOM     13  C   UNL     1      -0.143  11.477  20.909  0.00  0.00    +0.000 A 
ATOM     14  C   UNL     1       0.791  10.445  20.741  0.00  0.00    +0.000 A 
ATOM     15  C   UNL     1       0.652   9.554  19.688  0.00  0.00    +0.000 A 
ATOM     16  C   UNL     1      -0.463   9.720  18.838  0.00  0.00    +0.000 A 
BRANCH  11  17
ATOM     17  C   UNL     1      -2.626  10.853  17.882  0.00  0.00    +0.000 C 
ATOM     18  C   UNL     1      -3.432   9.546  17.658  0.00  0.00    +0.000 C 
ATOM     19  O   UNL     1      -3.100   9.496  16.259  0.00  0.00    +0.000 OA
ATOM     20  C   UNL     1      -2.279  10.677  16.371  0.00  0.00    +0.000 C 
BRANCH  17  21
ATOM     21  C   UNL     1      -3.532  12.079  18.163  0.00  0.00    +0.000 C 
BRANCH  21  27
ATOM     22  C   UNL     1      -4.900  12.453  20.990  0.00  0.00    +0.000 C 
ATOM     23  N   UNL     1      -5.502  11.931  19.793  0.00  0.00    +0.000 N 
ATOM     24  C   UNL     1      -6.785  11.478  19.703  0.00  0.00    +0.000 A 
ATOM     25  N   UNL     1      -7.007  11.028  18.495  0.00  0.00    +0.000 NA
ATOM     26  N   UNL     1      -5.846  11.170  17.778  0.00  0.00    +0.000 NA
ATOM     27  C   UNL     1      -4.941  11.744  18.554  0.00  0.00    +0.000 A 
ENDBRANCH  21  27
ENDBRANCH  17  21
ENDBRANCH  11  17
ENDBRANCH   1  15
BRANCH   6  28
ATOM     28  N   UNL     1       5.387   4.437  17.165  0.00  0.00    +0.000 N 
ATOM     29  C   UNL     1       6.637   4.899  16.643  0.00  0.00    +0.000 C 
ATOM     30  C   UNL     1       6.374   4.040  15.409  0.00  0.00    +0.000 C 
ATOM     31  C   UNL     1       5.264   3.366  16.227  0.00  0.00    +0.000 C 
BRANCH  30  32
ATOM     32  C   UNL     1       5.872   4.845  14.239  0.00  0.00    +0.000 C 
ATOM     33  F   UNL     1       6.938   5.277  13.513  0.00  0.00    +0.000 F 
ATOM     34  F   UNL     1       5.157   4.029  13.423  0.00  0.00    +0.000 F 
ENDBRANCH  30  32
ENDBRANCH   6  28
BRANCH   8  35
ATOM     35  C   UNL     1       2.043   4.299  20.816  0.00  0.00    +0.000 C 
ATOM     36  F   UNL     1       2.256   2.957  20.768  0.00  0.00    +0.000 F 
ATOM     37  F   UNL     1       2.410   4.697  22.063  0.00  0.00    +0.000 F 
ATOM     38  F   UNL     1       0.693   4.457  20.750  0.00  0.00    +0.000 F 
ENDBRANCH   8  35
TORSDOF 7
ENDMDL
MODEL 4
REMARK VINA RESULT:      -8.9      1.046      1.500
REMARK  Name = 
REMARK  8 active torsions:
REMARK  status: ('A' for Active; 'I' for Inactive)
REMARK    1  A    between atoms: C_1  and  N_2
REMARK    2  A    between atoms: C_6  and  C_7
REMARK    3  A    between atoms: C_7  and  C_8
REMARK    4  A    between atoms: C_8  and  C_9
REMARK    5  A    between atoms: C_13  and  N_14
REMARK    6  A    between atoms: C_19  and  N_20
REMARK    7  A    between atoms: C_22  and  C_23
REMARK    8  A    between atoms: C_28  and  C_29
REMARK                            x       y       z     vdW  Elec       q    Type
REMARK                         _______ _______ _______ _____ _____    ______ ____
ROOT
ATOM      1  N   UNL     1       1.237   8.428  20.413  0.00  0.00    +0.000 N 
ATOM      2  C   UNL     1       1.396   7.067  20.889  0.00  0.00    +0.000 C 
ATOM      3  C   UNL     1       2.165   6.398  19.816  0.00  0.00    +0.000 A 
ATOM      4  C   UNL     1       2.537   7.323  18.847  0.00  0.00    +0.000 A 
ATOM      5  C   UNL     1       3.312   6.952  17.756  0.00  0.00    +0.000 A 
ATOM      6  C   UNL     1       3.697   5.604  17.638  0.00  0.00    +0.000 A 
ATOM      7  C   UNL     1       3.255   4.676  18.610  0.00  0.00    +0.000 A 
ATOM      8  C   UNL     1       2.493   5.056  19.720  0.00  0.00    +0.000 A 
ATOM      9  C   UNL     1       1.928   8.630  19.211  0.00  0.00    +0.000 C 
ATOM     10  O   UNL     1       2.042   9.628  18.524  0.00  0.00    +0.000 OA
ENDROOT
BRANCH   1  15
ATOM     11  C   UNL     1      -1.143  11.282  20.967  0.00  0.00    +0.000 A 
ATOM     12  C   UNL     1      -1.229  11.254  22.364  0.00  0.00    +0.000 A 
ATOM     13  C   UNL     1      -0.551  10.286  23.123  0.00  0.00    +0.000 A 
ATOM     14  C   UNL     1       0.257   9.322  22.506  0.00  0.00    +0.000 A 
ATOM     15  C   UNL     1       0.388   9.313  21.125  0.00  0.00    +0.000 A 
ATOM     16  C   UNL     1      -0.338  10.280  20.396  0.00  0.00    +0.000 A 
BRANCH  11  17
ATOM     17  C   UNL     1      -1.891  12.359  20.019  0.00  0.00    +0.000 C 
ATOM     18  C   UNL     1      -3.200  12.961  20.597  0.00  0.00    +0.000 C 
ATOM     19  O   UNL     1      -3.996  12.459  19.509  0.00  0.00    +0.000 OA
ATOM     20  C   UNL     1      -2.850  11.812  18.917  0.00  0.00    +0.000 C 
BRANCH  17  21
ATOM     21  C   UNL     1      -0.910  13.440  19.497  0.00  0.00    +0.000 C 
BRANCH  21  27
ATOM     22  C   UNL     1       2.230  13.087  19.640  0.00  0.00    +0.000 C 
ATOM     23  N   UNL     1       1.393  13.820  20.552  0.00  0.00    +0.000 N 
ATOM     24  C   UNL     1       1.840  14.470  21.665  0.00  0.00    +0.000 A 
ATOM     25  N   UNL     1       0.824  14.996  22.301  0.00  0.00    +0.000 NA
ATOM     26  N   UNL     1      -0.314  14.676  21.606  0.00  0.00    +0.000 NA
ATOM     27  C   UNL     1       0.031  13.988  20.530  0.00  0.00    +0.000 A 
ENDBRANCH  21  27
ENDBRANCH  17  21
ENDBRANCH  11  17
ENDBRANCH   1  15
BRANCH   6  28
ATOM     28  N   UNL     1       4.492   5.145  16.570  0.00  0.00    +0.000 N 
ATOM     29  C   UNL     1       5.135   3.879  16.387  0.00  0.00    +0.000 C 
ATOM     30  C   UNL     1       6.310   4.629  15.766  0.00  0.00    +0.000 C 
ATOM     31  C   UNL     1       5.377   5.845  15.695  0.00  0.00    +0.000 C 
BRANCH  30  32
ATOM     32  C   UNL     1       7.462   4.794  16.723  0.00  0.00    +0.000 C 
ATOM     33  F   UNL     1       7.590   6.111  17.033  0.00  0.00    +0.000 F 
ATOM     34  F   UNL     1       7.161   4.154  17.882  0.00  0.00    +0.000 F 
ENDBRANCH  30  32
ENDBRANCH   6  28
BRANCH   8  35
ATOM     35  C   UNL     1       2.045   4.029  20.728  0.00  0.00    +0.000 C 
ATOM     36  F   UNL     1       2.460   4.281  21.997  0.00  0.00    +0.000 F 
ATOM     37  F   UNL     1       0.690   3.921  20.787  0.00  0.00    +0.000 F 
ATOM     38  F   UNL     1       2.511   2.785  20.431  0.00  0.00    +0.000 F 
ENDBRANCH   8  35
TORSDOF 7
ENDMDL
MODEL 5
REMARK VINA RESULT:      -8.9      1.881      2.999
REMARK  Name = 
REMARK  8 active torsions:
REMARK  status: ('A' for Active; 'I' for Inactive)
REMARK    1  A    between atoms: C_1  and  N_2
REMARK    2  A    between atoms: C_6  and  C_7
REMARK    3  A    between atoms: C_7  and  C_8
REMARK    4  A    between atoms: C_8  and  C_9
REMARK    5  A    between atoms: C_13  and  N_14
REMARK    6  A    between atoms: C_19  and  N_20
REMARK    7  A    between atoms: C_22  and  C_23
REMARK    8  A    between atoms: C_28  and  C_29
REMARK                            x       y       z     vdW  Elec       q    Type
REMARK                         _______ _______ _______ _____ _____    ______ ____
ROOT
ATOM      1  N   UNL     1       1.198   8.445  20.414  0.00  0.00    +0.000 N 
ATOM      2  C   UNL     1       1.365   7.087  20.896  0.00  0.00    +0.000 C 
ATOM      3  C   UNL     1       2.141   6.418  19.829  0.00  0.00    +0.000 A 
ATOM      4  C   UNL     1       2.510   7.341  18.857  0.00  0.00    +0.000 A 
ATOM      5  C   UNL     1       3.291   6.971  17.770  0.00  0.00    +0.000 A 
ATOM      6  C   UNL     1       3.685   5.624  17.659  0.00  0.00    +0.000 A 
ATOM      7  C   UNL     1       3.246   4.698  18.634  0.00  0.00    +0.000 A 
ATOM      8  C   UNL     1       2.478   5.078  19.740  0.00  0.00    +0.000 A 
ATOM      9  C   UNL     1       1.892   8.646  19.213  0.00  0.00    +0.000 C 
ATOM     10  O   UNL     1       2.001   9.642  18.522  0.00  0.00    +0.000 OA
ENDROOT
BRANCH   1  15
ATOM     11  C   UNL     1      -1.020  11.421  21.000  0.00  0.00    +0.000 A 
ATOM     12  C   UNL     1      -1.260  11.273  22.372  0.00  0.00    +0.000 A 
ATOM     13  C   UNL     1      -0.739  10.190  23.097  0.00  0.00    +0.000 A 
ATOM     14  C   UNL     1       0.061   9.223  22.473  0.00  0.00    +0.000 A 
ATOM     15  C   UNL     1       0.342   9.328  21.119  0.00  0.00    +0.000 A 
ATOM     16  C   UNL     1      -0.230  10.413  20.419  0.00  0.00    +0.000 A 
BRANCH  11  17
ATOM     17  C   UNL     1      -1.582  12.636  20.092  0.00  0.00    +0.000 C 
ATOM     18  C   UNL     1      -0.618  13.143  18.986  0.00  0.00    +0.000 C 
ATOM     19  O   UNL     1      -0.569  14.472  19.537  0.00  0.00    +0.000 OA
ATOM     20  C   UNL     1      -1.417  14.088  20.640  0.00  0.00    +0.000 C 
BRANCH  17  21
ATOM     21  C   UNL     1      -3.007  12.340  19.561  0.00  0.00    +0.000 C 
BRANCH  21  27
ATOM     22  C   UNL     1      -5.526  11.112  18.094  0.00  0.00    +0.000 C 
ATOM     23  N   UNL     1      -4.171  11.154  17.612  0.00  0.00    +0.000 N 
ATOM     24  C   UNL     1      -3.753  10.628  16.425  0.00  0.00    +0.000 A 
ATOM     25  N   UNL     1      -2.460  10.791  16.306  0.00  0.00    +0.000 NA
ATOM     26  N   UNL     1      -2.013  11.421  17.440  0.00  0.00    +0.000 NA
ATOM     27  C   UNL     1      -3.053  11.668  18.220  0.00  0.00    +0.000 A 
ENDBRANCH  21  27
ENDBRANCH  17  21
ENDBRANCH  11  17
ENDBRANCH   1  15
BRANCH   6  28
ATOM     28  N   UNL     1       4.486   5.166  16.596  0.00  0.00    +0.000 N 
ATOM     29  C   UNL     1       5.120   3.896  16.410  0.00  0.00    +0.000 C 
ATOM     30  C   UNL     1       6.308   4.640  15.806  0.00  0.00    +0.000 C 
ATOM     31  C   UNL     1       5.385   5.864  15.733  0.00  0.00    +0.000 C 
BRANCH  30  32
ATOM     32  C   UNL     1       7.451   4.790  16.774  0.00  0.00    +0.000 C 
ATOM     33  F   UNL     1       7.610   6.109  17.066  0.00  0.00    +0.000 F 
ATOM     34  F   UNL     1       7.121   4.175  17.938  0.00  0.00    +0.000 F 
ENDBRANCH  30  32
ENDBRANCH   6  28
BRANCH   8  35
ATOM     35  C   UNL     1       2.033   4.053  20.752  0.00  0.00    +0.000 C 
ATOM     36  F   UNL     1       0.684   3.912  20.840  0.00  0.00    +0.000 F 
ATOM     37  F   UNL     1       2.527   2.815  20.482  0.00  0.00    +0.000 F 
ATOM     38  F   UNL     1       2.452   4.362  22.010  0.00  0.00    +0.000 F 
ENDBRANCH   8  35
TORSDOF 7
ENDMDL
MODEL 6
REMARK VINA RESULT:      -8.9      2.622      3.702
REMARK  Name = 
REMARK  8 active torsions:
REMARK  status: ('A' for Active; 'I' for Inactive)
REMARK    1  A    between atoms: C_1  and  N_2
REMARK    2  A    between atoms: C_6  and  C_7
REMARK    3  A    between atoms: C_7  and  C_8
REMARK    4  A    between atoms: C_8  and  C_9
REMARK    5  A    between atoms: C_13  and  N_14
REMARK    6  A    between atoms: C_19  and  N_20
REMARK    7  A    between atoms: C_22  and  C_23
REMARK    8  A    between atoms: C_28  and  C_29
REMARK                            x       y       z     vdW  Elec       q    Type
REMARK                         _______ _______ _______ _____ _____    ______ ____
ROOT
ATOM      1  N   UNL     1       1.470   8.725  18.980  0.00  0.00    +0.000 N 
ATOM      2  C   UNL     1       1.457   7.540  19.817  0.00  0.00    +0.000 C 
ATOM      3  C   UNL     1       2.478   6.659  19.209  0.00  0.00    +0.000 A 
ATOM      4  C   UNL     1       3.129   7.323  18.175  0.00  0.00    +0.000 A 
ATOM      5  C   UNL     1       4.168   6.726  17.475  0.00  0.00    +0.000 A 
ATOM      6  C   UNL     1       4.539   5.413  17.821  0.00  0.00    +0.000 A 
ATOM      7  C   UNL     1       3.820   4.743  18.840  0.00  0.00    +0.000 A 
ATOM      8  C   UNL     1       2.787   5.355  19.559  0.00  0.00    +0.000 A 
ATOM      9  C   UNL     1       2.474   8.648  18.006  0.00  0.00    +0.000 C 
ATOM     10  O   UNL     1       2.799   9.441  17.143  0.00  0.00    +0.000 OA
ENDROOT
BRANCH   1  15
ATOM     11  C   UNL     1      -1.677  10.678  18.348  0.00  0.00    +0.000 A 
ATOM     12  C   UNL     1      -1.526  11.691  19.304  0.00  0.00    +0.000 A 
ATOM     13  C   UNL     1      -0.428  11.718  20.178  0.00  0.00    +0.000 A 
ATOM     14  C   UNL     1       0.572  10.738  20.112  0.00  0.00    +0.000 A 
ATOM     15  C   UNL     1       0.478   9.719  19.176  0.00  0.00    +0.000 A 
ATOM     16  C   UNL     1      -0.659   9.708  18.338  0.00  0.00    +0.000 A 
BRANCH  11  17
ATOM     17  C   UNL     1      -2.909  10.572  17.306  0.00  0.00    +0.000 C 
ATOM     18  C   UNL     1      -2.737   9.525  16.173  0.00  0.00    +0.000 C 
ATOM     19  O   UNL     1      -2.829  10.521  15.139  0.00  0.00    +0.000 OA
ATOM     20  C   UNL     1      -2.940  11.579  16.114  0.00  0.00    +0.000 C 
BRANCH  17  21
ATOM     21  C   UNL     1      -4.269  10.450  18.039  0.00  0.00    +0.000 C 
BRANCH  21  27
ATOM     22  C   UNL     1      -4.792  12.488  20.400  0.00  0.00    +0.000 C 
ATOM     23  N   UNL     1      -5.309  12.556  19.059  0.00  0.00    +0.000 N 
ATOM     24  C   UNL     1      -6.151  13.526  18.600  0.00  0.00    +0.000 A 
ATOM     25  N   UNL     1      -6.470  13.274  17.356  0.00  0.00    +0.000 NA
ATOM     26  N   UNL     1      -5.841  12.111  16.991  0.00  0.00    +0.000 NA
ATOM     27  C   UNL     1      -5.113  11.690  18.012  0.00  0.00    +0.000 A 
ENDBRANCH  21  27
ENDBRANCH  17  21
ENDBRANCH  11  17
ENDBRANCH   1  15
BRANCH   6  28
ATOM     28  N   UNL     1       5.588   4.736  17.171  0.00  0.00    +0.000 N 
ATOM     29  C   UNL     1       6.808   5.249  16.627  0.00  0.00    +0.000 C 
ATOM     30  C   UNL     1       6.650   4.254  15.481  0.00  0.00    +0.000 C 
ATOM     31  C   UNL     1       5.580   3.572  16.343  0.00  0.00    +0.000 C 
BRANCH  30  32
ATOM     32  C   UNL     1       6.113   4.894  14.227  0.00  0.00    +0.000 C 
ATOM     33  F   UNL     1       7.151   5.164  13.392  0.00  0.00    +0.000 F 
ATOM     34  F   UNL     1       5.324   3.997  13.583  0.00  0.00    +0.000 F 
ENDBRANCH  30  32
ENDBRANCH   6  28
BRANCH   8  35
ATOM     35  C   UNL     1       2.051   4.599  20.634  0.00  0.00    +0.000 C 
ATOM     36  F   UNL     1       0.703   4.768  20.606  0.00  0.00    +0.000 F 
ATOM     37  F   UNL     1       2.266   3.258  20.561  0.00  0.00    +0.000 F 
ATOM     38  F   UNL     1       2.441   4.977  21.883  0.00  0.00    +0.000 F 
ENDBRANCH   8  35
TORSDOF 7
ENDMDL
MODEL 7
REMARK VINA RESULT:      -8.8      0.968      1.344
REMARK  Name = 
REMARK  8 active torsions:
REMARK  status: ('A' for Active; 'I' for Inactive)
REMARK    1  A    between atoms: C_1  and  N_2
REMARK    2  A    between atoms: C_6  and  C_7
REMARK    3  A    between atoms: C_7  and  C_8
REMARK    4  A    between atoms: C_8  and  C_9
REMARK    5  A    between atoms: C_13  and  N_14
REMARK    6  A    between atoms: C_19  and  N_20
REMARK    7  A    between atoms: C_22  and  C_23
REMARK    8  A    between atoms: C_28  and  C_29
REMARK                            x       y       z     vdW  Elec       q    Type
REMARK                         _______ _______ _______ _____ _____    ______ ____
ROOT
ATOM      1  N   UNL     1       1.308   8.288  20.353  0.00  0.00    +0.000 N 
ATOM      2  C   UNL     1       1.419   6.929  20.847  0.00  0.00    +0.000 C 
ATOM      3  C   UNL     1       2.182   6.224  19.793  0.00  0.00    +0.000 A 
ATOM      4  C   UNL     1       2.595   7.125  18.818  0.00  0.00    +0.000 A 
ATOM      5  C   UNL     1       3.373   6.718  17.743  0.00  0.00    +0.000 A 
ATOM      6  C   UNL     1       3.719   5.358  17.646  0.00  0.00    +0.000 A 
ATOM      7  C   UNL     1       3.236   4.456  18.624  0.00  0.00    +0.000 A 
ATOM      8  C   UNL     1       2.471   4.872  19.719  0.00  0.00    +0.000 A 
ATOM      9  C   UNL     1       2.020   8.454  19.158  0.00  0.00    +0.000 C 
ATOM     10  O   UNL     1       2.173   9.440  18.461  0.00  0.00    +0.000 OA
ENDROOT
BRANCH   1  15
ATOM     11  C   UNL     1      -0.953  11.248  20.848  0.00  0.00    +0.000 A 
ATOM     12  C   UNL     1      -1.092  11.212  22.241  0.00  0.00    +0.000 A 
ATOM     13  C   UNL     1      -0.489  10.208  23.014  0.00  0.00    +0.000 A 
ATOM     14  C   UNL     1       0.295   9.211  22.417  0.00  0.00    +0.000 A 
ATOM     15  C   UNL     1       0.476   9.207  21.042  0.00  0.00    +0.000 A 
ATOM     16  C   UNL     1      -0.176  10.214  20.297  0.00  0.00    +0.000 A 
BRANCH  11  17
ATOM     17  C   UNL     1      -1.614  12.367  19.885  0.00  0.00    +0.000 C 
ATOM     18  C   UNL     1      -3.148  12.247  19.677  0.00  0.00    +0.000 C 
ATOM     19  O   UNL     1      -3.015  12.073  18.255  0.00  0.00    +0.000 OA
ATOM     20  C   UNL     1      -1.575  12.114  18.346  0.00  0.00    +0.000 C 
BRANCH  17  21
ATOM     21  C   UNL     1      -1.170  13.798  20.282  0.00  0.00    +0.000 C 
BRANCH  21  27
ATOM     22  C   UNL     1      -0.455  16.379  18.600  0.00  0.00    +0.000 C 
ATOM     23  N   UNL     1       0.446  15.346  19.036  0.00  0.00    +0.000 N 
ATOM     24  C   UNL     1       1.780  15.309  18.755  0.00  0.00    +0.000 A 
ATOM     25  N   UNL     1       2.302  14.218  19.255  0.00  0.00    +0.000 NA
ATOM     26  N   UNL     1       1.294  13.514  19.862  0.00  0.00    +0.000 NA
ATOM     27  C   UNL     1       0.173  14.209  19.757  0.00  0.00    +0.000 A 
ENDBRANCH  21  27
ENDBRANCH  17  21
ENDBRANCH  11  17
ENDBRANCH   1  15
BRANCH   6  28
ATOM     28  N   UNL     1       4.514   4.862  16.595  0.00  0.00    +0.000 N 
ATOM     29  C   UNL     1       5.229   3.626  16.494  0.00  0.00    +0.000 C 
ATOM     30  C   UNL     1       6.340   4.393  15.780  0.00  0.00    +0.000 C 
ATOM     31  C   UNL     1       5.331   5.541  15.640  0.00  0.00    +0.000 C 
BRANCH  30  32
ATOM     32  C   UNL     1       7.503   4.704  16.686  0.00  0.00    +0.000 C 
ATOM     33  F   UNL     1       7.597   6.053  16.832  0.00  0.00    +0.000 F 
ATOM     34  F   UNL     1       7.241   4.201  17.919  0.00  0.00    +0.000 F 
ENDBRANCH  30  32
ENDBRANCH   6  28
BRANCH   8  35
ATOM     35  C   UNL     1       1.979   3.871  20.733  0.00  0.00    +0.000 C 
ATOM     36  F   UNL     1       2.389   2.597  20.496  0.00  0.00    +0.000 F 
ATOM     37  F   UNL     1       2.387   4.173  21.994  0.00  0.00    +0.000 F 
ATOM     38  F   UNL     1       0.620   3.816  20.777  0.00  0.00    +0.000 F 
ENDBRANCH   8  35
TORSDOF 7
ENDMDL
MODEL 8
REMARK VINA RESULT:      -8.8      3.818      9.340
REMARK  Name = 
REMARK  8 active torsions:
REMARK  status: ('A' for Active; 'I' for Inactive)
REMARK    1  A    between atoms: C_1  and  N_2
REMARK    2  A    between atoms: C_6  and  C_7
REMARK    3  A    between atoms: C_7  and  C_8
REMARK    4  A    between atoms: C_8  and  C_9
REMARK    5  A    between atoms: C_13  and  N_14
REMARK    6  A    between atoms: C_19  and  N_20
REMARK    7  A    between atoms: C_22  and  C_23
REMARK    8  A    between atoms: C_28  and  C_29
REMARK                            x       y       z     vdW  Elec       q    Type
REMARK                         _______ _______ _______ _____ _____    ______ ____
ROOT
ATOM      1  N   UNL     1       2.319   7.406  19.450  0.00  0.00    +0.000 N 
ATOM      2  C   UNL     1       1.556   7.715  20.644  0.00  0.00    +0.000 C 
ATOM      3  C   UNL     1       1.020   9.071  20.388  0.00  0.00    +0.000 A 
ATOM      4  C   UNL     1       1.338   9.474  19.095  0.00  0.00    +0.000 A 
ATOM      5  C   UNL     1       0.904  10.693  18.593  0.00  0.00    +0.000 A 
ATOM      6  C   UNL     1       0.149  11.531  19.434  0.00  0.00    +0.000 A 
ATOM      7  C   UNL     1      -0.110  11.118  20.763  0.00  0.00    +0.000 A 
ATOM      8  C   UNL     1       0.309   9.879  21.260  0.00  0.00    +0.000 A 
ATOM      9  C   UNL     1       2.191   8.417  18.489  0.00  0.00    +0.000 C 
ATOM     10  O   UNL     1       2.664   8.509  17.372  0.00  0.00    +0.000 OA
ENDROOT
BRANCH   1  15
ATOM     11  C   UNL     1       5.348   5.270  18.830  0.00  0.00    +0.000 A 
ATOM     12  C   UNL     1       4.827   4.014  19.168  0.00  0.00    +0.000 A 
ATOM     13  C   UNL     1       3.512   3.865  19.634  0.00  0.00    +0.000 A 
ATOM     14  C   UNL     1       2.661   4.971  19.760  0.00  0.00    +0.000 A 
ATOM     15  C   UNL     1       3.121   6.237  19.428  0.00  0.00    +0.000 A 
ATOM     16  C   UNL     1       4.461   6.349  18.996  0.00  0.00    +0.000 A 
BRANCH  11  17
ATOM     17  C   UNL     1       6.849   5.529  18.288  0.00  0.00    +0.000 C 
ATOM     18  C   UNL     1       7.897   5.897  19.372  0.00  0.00    +0.000 C 
ATOM     19  O   UNL     1       8.181   7.172  18.768  0.00  0.00    +0.000 OA
ATOM     20  C   UNL     1       7.188   6.951  17.744  0.00  0.00    +0.000 C 
BRANCH  17  21
ATOM     21  C   UNL     1       7.324   4.387  17.354  0.00  0.00    +0.000 C 
BRANCH  21  27
ATOM     22  C   UNL     1       4.703   3.381  15.897  0.00  0.00    +0.000 C 
ATOM     23  N   UNL     1       5.797   4.112  15.316  0.00  0.00    +0.000 N 
ATOM     24  C   UNL     1       5.883   4.467  14.002  0.00  0.00    +0.000 A 
ATOM     25  N   UNL     1       7.020   5.080  13.788  0.00  0.00    +0.000 NA
ATOM     26  N   UNL     1       7.704   5.116  14.976  0.00  0.00    +0.000 NA
ATOM     27  C   UNL     1       6.952   4.557  15.911  0.00  0.00    +0.000 A 
ENDBRANCH  21  27
ENDBRANCH  17  21
ENDBRANCH  11  17
ENDBRANCH   1  15
BRANCH   6  28
ATOM     28  N   UNL     1      -0.340  12.779  19.002  0.00  0.00    +0.000 N 
ATOM     29  C   UNL     1       0.361  13.888  18.430  0.00  0.00    +0.000 C 
ATOM     30  C   UNL     1      -0.557  14.809  19.230  0.00  0.00    +0.000 C 
ATOM     31  C   UNL     1      -1.431  13.571  19.476  0.00  0.00    +0.000 C 
BRANCH  30  32
ATOM     32  C   UNL     1       0.104  15.351  20.470  0.00  0.00    +0.000 C 
ATOM     33  F   UNL     1       1.452  15.251  20.329  0.00  0.00    +0.000 F 
ATOM     34  F   UNL     1      -0.175  16.675  20.570  0.00  0.00    +0.000 F 
ENDBRANCH  30  32
ENDBRANCH   6  28
BRANCH   8  35
ATOM     35  C   UNL     1       0.011   9.484  22.683  0.00  0.00    +0.000 C 
ATOM     36  F   UNL     1      -0.748   8.363  22.798  0.00  0.00    +0.000 F 
ATOM     37  F   UNL     1       1.141   9.253  23.402  0.00  0.00    +0.000 F 
ATOM     38  F   UNL     1      -0.670  10.456  23.350  0.00  0.00    +0.000 F 
ENDBRANCH   8  35
TORSDOF 7
ENDMDL
MODEL 9
REMARK VINA RESULT:      -8.8      3.961      9.252
REMARK  Name = 
REMARK  8 active torsions:
REMARK  status: ('A' for Active; 'I' for Inactive)
REMARK    1  A    between atoms: C_1  and  N_2
REMARK    2  A    between atoms: C_6  and  C_7
REMARK    3  A    between atoms: C_7  and  C_8
REMARK    4  A    between atoms: C_8  and  C_9
REMARK    5  A    between atoms: C_13  and  N_14
REMARK    6  A    between atoms: C_19  and  N_20
REMARK    7  A    between atoms: C_22  and  C_23
REMARK    8  A    between atoms: C_28  and  C_29
REMARK                            x       y       z     vdW  Elec       q    Type
REMARK                         _______ _______ _______ _____ _____    ______ ____
ROOT
ATOM      1  N   UNL     1       2.016   7.608  19.616  0.00  0.00    +0.000 N 
ATOM      2  C   UNL     1       1.239   7.907  20.805  0.00  0.00    +0.000 C 
ATOM      3  C   UNL     1       0.739   9.279  20.573  0.00  0.00    +0.000 A 
ATOM      4  C   UNL     1       1.088   9.706  19.296  0.00  0.00    +0.000 A 
ATOM      5  C   UNL     1       0.691  10.946  18.816  0.00  0.00    +0.000 A 
ATOM      6  C   UNL     1      -0.060  11.782  19.664  0.00  0.00    +0.000 A 
ATOM      7  C   UNL     1      -0.350  11.342  20.978  0.00  0.00    +0.000 A 
ATOM      8  C   UNL     1       0.032  10.083  21.452  0.00  0.00    +0.000 A 
ATOM      9  C   UNL     1       1.927   8.645  18.678  0.00  0.00    +0.000 C 
ATOM     10  O   UNL     1       2.422   8.752  17.572  0.00  0.00    +0.000 OA
ENDROOT
BRANCH   1  15
ATOM     11  C   UNL     1       4.937   5.378  18.832  0.00  0.00    +0.000 A 
ATOM     12  C   UNL     1       4.427   4.151  19.276  0.00  0.00    +0.000 A 
ATOM     13  C   UNL     1       3.157   4.054  19.866  0.00  0.00    +0.000 A 
ATOM     14  C   UNL     1       2.341   5.184  20.013  0.00  0.00    +0.000 A 
ATOM     15  C   UNL     1       2.792   6.422  19.579  0.00  0.00    +0.000 A 
ATOM     16  C   UNL     1       4.089   6.483  19.024  0.00  0.00    +0.000 A 
BRANCH  11  17
ATOM     17  C   UNL     1       6.387   5.578  18.144  0.00  0.00    +0.000 C 
ATOM     18  C   UNL     1       7.253   4.295  18.028  0.00  0.00    +0.000 C 
ATOM     19  O   UNL     1       8.309   4.847  18.835  0.00  0.00    +0.000 OA
ATOM     20  C   UNL     1       7.560   6.062  19.052  0.00  0.00    +0.000 C 
BRANCH  17  21
ATOM     21  C   UNL     1       6.284   6.359  16.809  0.00  0.00    +0.000 C 
BRANCH  21  27
ATOM     22  C   UNL     1       4.363   4.114  15.680  0.00  0.00    +0.000 C 
ATOM     23  N   UNL     1       5.605   4.564  15.113  0.00  0.00    +0.000 N 
ATOM     24  C   UNL     1       6.172   4.053  13.982  0.00  0.00    +0.000 A 
ATOM     25  N   UNL     1       7.318   4.646  13.762  0.00  0.00    +0.000 NA
ATOM     26  N   UNL     1       7.520   5.552  14.772  0.00  0.00    +0.000 NA
ATOM     27  C   UNL     1       6.469   5.525  15.576  0.00  0.00    +0.000 A 
ENDBRANCH  21  27
ENDBRANCH  17  21
ENDBRANCH  11  17
ENDBRANCH   1  15
BRANCH   6  28
ATOM     28  N   UNL     1      -0.513  13.050  19.255  0.00  0.00    +0.000 N 
ATOM     29  C   UNL     1      -0.301  13.742  18.019  0.00  0.00    +0.000 C 
ATOM     30  C   UNL     1      -0.184  15.032  18.827  0.00  0.00    +0.000 C 
ATOM     31  C   UNL     1      -0.767  14.239  20.004  0.00  0.00    +0.000 C 
BRANCH  30  32
ATOM     32  C   UNL     1       1.246  15.463  19.025  0.00  0.00    +0.000 C 
ATOM     33  F   UNL     1       1.530  16.461  18.147  0.00  0.00    +0.000 F 
ATOM     34  F   UNL     1       1.373  15.994  20.267  0.00  0.00    +0.000 F 
ENDBRANCH  30  32
ENDBRANCH   6  28
BRANCH   8  35
ATOM     35  C   UNL     1      -0.300   9.662  22.860  0.00  0.00    +0.000 C 
ATOM     36  F   UNL     1      -1.022  10.579  23.556  0.00  0.00    +0.000 F 
ATOM     37  F   UNL     1      -1.018   8.507  22.897  0.00  0.00    +0.000 F 
ATOM     38  F   UNL     1       0.818   9.437  23.603  0.00  0.00    +0.000 F 
ENDBRANCH   8  35
TORSDOF 7
ENDMDL
