MODEL 1
REMARK VINA RESULT:      -9.5      0.000      0.000
REMARK  Name = 
REMARK  9 active torsions:
REMARK  status: ('A' for Active; 'I' for Inactive)
REMARK    1  A    between atoms: C_1  and  C_2
REMARK    2  A    between atoms: C_2  and  C_3
REMARK    3  A    between atoms: C_2  and  C_10
REMARK    4  A    between atoms: C_3  and  C_4
REMARK    5  A    between atoms: N_8  and  C_9
REMARK    6  A    between atoms: C_14  and  C_15
REMARK    7  A    between atoms: C_19  and  N_20
REMARK    8  A    between atoms: C_23  and  O_24
REMARK    9  A    between atoms: C_27  and  C_28
REMARK                            x       y       z     vdW  Elec       q    Type
REMARK                         _______ _______ _______ _____ _____    ______ ____
ROOT
ATOM      1  C   UNL     1       2.269   7.780  19.295  0.00  0.00    +0.000 A 
ATOM      2  N   UNL     1       2.949   8.282  18.217  0.00  0.00    +0.000 N 
ATOM      3  N   UNL     1       3.746   7.413  17.582  0.00  0.00    +0.000 NA
ATOM      4  C   UNL     1       3.622   6.255  18.267  0.00  0.00    +0.000 A 
ATOM      5  C   UNL     1       4.242   4.991  18.031  0.00  0.00    +0.000 A 
ATOM      6  C   UNL     1       3.815   4.043  18.992  0.00  0.00    +0.000 A 
ATOM      7  C   UNL     1       2.911   4.338  20.057  0.00  0.00    +0.000 A 
ATOM      8  N   UNL     1       2.328   5.560  20.279  0.00  0.00    +0.000 NA
ATOM      9  C   UNL     1       2.709   6.479  19.363  0.00  0.00    +0.000 A 
ATOM     10  H   UNL     1       2.917   9.230  17.867  0.00  0.00    +0.000 HD
ENDROOT
BRANCH   1  15
ATOM     11  C   UNL     1      -0.319  10.379  20.224  0.00  0.00    +0.000 A 
ATOM     12  C   UNL     1      -0.428  10.145  21.601  0.00  0.00    +0.000 A 
ATOM     13  C   UNL     1       0.302   9.125  22.209  0.00  0.00    +0.000 A 
ATOM     14  C   UNL     1       1.172   8.342  21.454  0.00  0.00    +0.000 A 
ATOM     15  C   UNL     1       1.318   8.562  20.078  0.00  0.00    +0.000 A 
ATOM     16  C   UNL     1       0.555   9.572  19.475  0.00  0.00    +0.000 A 
BRANCH  11  18
ATOM     17  C   UNL     1      -0.226  12.804  19.441  0.00  0.00    +0.000 C 
ATOM     18  C   UNL     1      -1.058  11.516  19.521  0.00  0.00    +0.000 C 
BRANCH  18  19
ATOM     19  C   UNL     1      -1.533  11.024  18.136  0.00  0.00    +0.000 C 
BRANCH  19  20
ATOM     20  C   UNL     1      -2.964  11.335  17.859  0.00  0.00    +0.000 A 
ATOM     21  N   UNL     1      -3.827  11.831  18.725  0.00  0.00    +0.000 NA
ATOM     22  N   UNL     1      -5.038  11.973  18.094  0.00  0.00    +0.000 NA
ATOM     23  C   UNL     1      -4.888  11.575  16.853  0.00  0.00    +0.000 A 
ATOM     24  N   UNL     1      -3.604  11.169  16.657  0.00  0.00    +0.000 N 
ATOM     25  C   UNL     1      -3.053  10.673  15.425  0.00  0.00    +0.000 C 
ENDBRANCH  19  20
ENDBRANCH  18  19
ENDBRANCH  11  18
ENDBRANCH   1  15
BRANCH   5  26
ATOM     26  N   UNL     1       5.109   4.687  16.999  0.00  0.00    +0.000 N 
ATOM     27  C   UNL     1       4.604   4.046  15.780  0.00  0.00    +0.000 C 
ATOM     28  C   UNL     1       5.764   4.123  14.798  0.00  0.00    +0.000 C 
ATOM     29  C   UNL     1       6.490   5.393  15.209  0.00  0.00    +0.000 C 
ATOM     30  C   UNL     1       6.352   5.409  16.740  0.00  0.00    +0.000 C 
BRANCH  29  31
ATOM     31  O   UNL     1       7.841   5.378  14.772  0.00  0.00    +0.000 OA
ATOM     32  H   UNL     1       7.949   4.635  14.154  0.00  0.00    +0.000 HD
ENDBRANCH  29  31
ENDBRANCH   5  26
BRANCH   7  33
ATOM     33  C   UNL     1       2.548   3.223  21.036  0.00  0.00    +0.000 C 
ATOM     34  F   UNL     1       2.190   3.672  22.275  0.00  0.00    +0.000 F 
ATOM     35  F   UNL     1       1.495   2.465  20.608  0.00  0.00    +0.000 F 
ATOM     36  F   UNL     1       3.571   2.345  21.247  0.00  0.00    +0.000 F 
ENDBRANCH   7  33
TORSDOF 7
ENDMDL
MODEL 2
REMARK VINA RESULT:      -9.4      0.927      1.121
REMARK  Name = 
REMARK  9 active torsions:
REMARK  status: ('A' for Active; 'I' for Inactive)
REMARK    1  A    between atoms: C_1  and  C_2
REMARK    2  A    between atoms: C_2  and  C_3
REMARK    3  A    between atoms: C_2  and  C_10
REMARK    4  A    between atoms: C_3  and  C_4
REMARK    5  A    between atoms: N_8  and  C_9
REMARK    6  A    between atoms: C_14  and  C_15
REMARK    7  A    between atoms: C_19  and  N_20
REMARK    8  A    between atoms: C_23  and  O_24
REMARK    9  A    between atoms: C_27  and  C_28
REMARK                            x       y       z     vdW  Elec       q    Type
REMARK                         _______ _______ _______ _____ _____    ______ ____
ROOT
ATOM      1  C   UNL     1       1.788   8.244  19.646  0.00  0.00    +0.000 A 
ATOM      2  N   UNL     1       2.368   8.811  18.542  0.00  0.00    +0.000 N 
ATOM      3  N   UNL     1       3.070   7.976  17.766  0.00  0.00    +0.000 NA
ATOM      4  C   UNL     1       2.985   6.773  18.374  0.00  0.00    +0.000 A 
ATOM      5  C   UNL     1       3.541   5.517  17.984  0.00  0.00    +0.000 A 
ATOM      6  C   UNL     1       3.189   4.509  18.913  0.00  0.00    +0.000 A 
ATOM      7  C   UNL     1       2.406   4.741  20.085  0.00  0.00    +0.000 A 
ATOM      8  N   UNL     1       1.885   5.955  20.454  0.00  0.00    +0.000 NA
ATOM      9  C   UNL     1       2.195   6.932  19.573  0.00  0.00    +0.000 A 
ATOM     10  H   UNL     1       2.327   9.783  18.267  0.00  0.00    +0.000 HD
ENDROOT
BRANCH   1  15
ATOM     11  C   UNL     1      -0.716  10.734  21.002  0.00  0.00    +0.000 A 
ATOM     12  C   UNL     1      -0.596  10.490  22.376  0.00  0.00    +0.000 A 
ATOM     13  C   UNL     1       0.260   9.497  22.850  0.00  0.00    +0.000 A 
ATOM     14  C   UNL     1       1.029   8.752  21.958  0.00  0.00    +0.000 A 
ATOM     15  C   UNL     1       0.944   8.983  20.579  0.00  0.00    +0.000 A 
ATOM     16  C   UNL     1       0.057   9.966  20.116  0.00  0.00    +0.000 A 
BRANCH  11  18
ATOM     17  C   UNL     1      -1.131  13.246  20.852  0.00  0.00    +0.000 C 
ATOM     18  C   UNL     1      -1.601  11.844  20.438  0.00  0.00    +0.000 C 
BRANCH  18  19
ATOM     19  C   UNL     1      -1.701  11.675  18.905  0.00  0.00    +0.000 C 
BRANCH  19  20
ATOM     20  C   UNL     1      -3.104  11.687  18.401  0.00  0.00    +0.000 A 
ATOM     21  N   UNL     1      -4.169  12.046  19.092  0.00  0.00    +0.000 NA
ATOM     22  N   UNL     1      -5.271  11.918  18.284  0.00  0.00    +0.000 NA
ATOM     23  C   UNL     1      -4.857  11.496  17.113  0.00  0.00    +0.000 A 
ATOM     24  N   UNL     1      -3.505  11.340  17.137  0.00  0.00    +0.000 N 
ATOM     25  C   UNL     1      -2.686  10.901  16.039  0.00  0.00    +0.000 C 
ENDBRANCH  19  20
ENDBRANCH  18  19
ENDBRANCH  11  18
ENDBRANCH   1  15
BRANCH   5  26
ATOM     26  N   UNL     1       4.289   5.274  16.848  0.00  0.00    +0.000 N 
ATOM     27  C   UNL     1       5.266   6.266  16.385  0.00  0.00    +0.000 C 
ATOM     28  C   UNL     1       6.063   5.545  15.306  0.00  0.00    +0.000 C 
ATOM     29  C   UNL     1       6.028   4.093  15.754  0.00  0.00    +0.000 C 
ATOM     30  C   UNL     1       4.625   3.937  16.364  0.00  0.00    +0.000 C 
BRANCH  29  31
ATOM     31  O   UNL     1       6.261   3.213  14.665  0.00  0.00    +0.000 OA
ATOM     32  H   UNL     1       5.428   3.120  14.170  0.00  0.00    +0.000 HD
ENDBRANCH  29  31
ENDBRANCH   5  26
BRANCH   7  33
ATOM     33  C   UNL     1       2.115   3.564  21.013  0.00  0.00    +0.000 C 
ATOM     34  F   UNL     1       2.396   3.813  22.326  0.00  0.00    +0.000 F 
ATOM     35  F   UNL     1       0.802   3.184  20.989  0.00  0.00    +0.000 F 
ATOM     36  F   UNL     1       2.826   2.444  20.694  0.00  0.00    +0.000 F 
ENDBRANCH   7  33
TORSDOF 7
ENDMDL
MODEL 3
REMARK VINA RESULT:      -9.2      4.990     10.150
REMARK  Name = 
REMARK  9 active torsions:
REMARK  status: ('A' for Active; 'I' for Inactive)
REMARK    1  A    between atoms: C_1  and  C_2
REMARK    2  A    between atoms: C_2  and  C_3
REMARK    3  A    between atoms: C_2  and  C_10
REMARK    4  A    between atoms: C_3  and  C_4
REMARK    5  A    between atoms: N_8  and  C_9
REMARK    6  A    between atoms: C_14  and  C_15
REMARK    7  A    between atoms: C_19  and  N_20
REMARK    8  A    between atoms: C_23  and  O_24
REMARK    9  A    between atoms: C_27  and  C_28
REMARK                            x       y       z     vdW  Elec       q    Type
REMARK                         _______ _______ _______ _____ _____    ______ ____
ROOT
ATOM      1  C   UNL     1       0.792   9.724  20.078  0.00  0.00    +0.000 A 
ATOM      2  N   UNL     1       1.084  10.140  21.350  0.00  0.00    +0.000 N 
ATOM      3  N   UNL     1       0.214  11.002  21.889  0.00  0.00    +0.000 NA
ATOM      4  C   UNL     1      -0.719  11.206  20.934  0.00  0.00    +0.000 A 
ATOM      5  C   UNL     1      -1.885  12.030  20.965  0.00  0.00    +0.000 A 
ATOM      6  C   UNL     1      -2.592  11.934  19.743  0.00  0.00    +0.000 A 
ATOM      7  C   UNL     1      -2.168  11.139  18.636  0.00  0.00    +0.000 A 
ATOM      8  N   UNL     1      -1.040  10.358  18.614  0.00  0.00    +0.000 NA
ATOM      9  C   UNL     1      -0.355  10.421  19.778  0.00  0.00    +0.000 A 
ATOM     10  H   UNL     1       1.885   9.872  21.907  0.00  0.00    +0.000 HD
ENDROOT
BRANCH   1  15
ATOM     11  C   UNL     1       2.802   6.617  19.289  0.00  0.00    +0.000 A 
ATOM     12  C   UNL     1       3.235   6.920  17.991  0.00  0.00    +0.000 A 
ATOM     13  C   UNL     1       2.841   8.103  17.368  0.00  0.00    +0.000 A 
ATOM     14  C   UNL     1       2.030   9.013  18.043  0.00  0.00    +0.000 A 
ATOM     15  C   UNL     1       1.595   8.748  19.348  0.00  0.00    +0.000 A 
ATOM     16  C   UNL     1       1.976   7.541  19.951  0.00  0.00    +0.000 A 
BRANCH  11  18
ATOM     17  C   UNL     1       2.117   4.728  20.858  0.00  0.00    +0.000 C 
ATOM     18  C   UNL     1       3.247   5.360  20.033  0.00  0.00    +0.000 C 
BRANCH  18  19
ATOM     19  C   UNL     1       3.873   4.373  19.023  0.00  0.00    +0.000 C 
BRANCH  19  20
ATOM     20  C   UNL     1       5.327   4.611  18.790  0.00  0.00    +0.000 A 
ATOM     21  N   UNL     1       6.201   4.995  19.700  0.00  0.00    +0.000 NA
ATOM     22  N   UNL     1       7.430   5.106  19.098  0.00  0.00    +0.000 NA
ATOM     23  C   UNL     1       7.285   4.776  17.837  0.00  0.00    +0.000 A 
ATOM     24  N   UNL     1       5.985   4.454  17.597  0.00  0.00    +0.000 N 
ATOM     25  C   UNL     1       5.438   4.034  16.335  0.00  0.00    +0.000 C 
ENDBRANCH  19  20
ENDBRANCH  18  19
ENDBRANCH  11  18
ENDBRANCH   1  15
BRANCH   5  26
ATOM     26  N   UNL     1      -2.315  12.795  22.032  0.00  0.00    +0.000 N 
ATOM     27  C   UNL     1      -2.812  14.157  21.807  0.00  0.00    +0.000 C 
ATOM     28  C   UNL     1      -3.433  14.563  23.136  0.00  0.00    +0.000 C 
ATOM     29  C   UNL     1      -3.922  13.245  23.714  0.00  0.00    +0.000 C 
ATOM     30  C   UNL     1      -2.849  12.237  23.272  0.00  0.00    +0.000 C 
BRANCH  29  31
ATOM     31  O   UNL     1      -4.065  13.323  25.124  0.00  0.00    +0.000 OA
ATOM     32  H   UNL     1      -3.308  13.822  25.476  0.00  0.00    +0.000 HD
ENDBRANCH  29  31
ENDBRANCH   5  26
BRANCH   7  33
ATOM     33  C   UNL     1      -3.019  11.141  17.367  0.00  0.00    +0.000 C 
ATOM     34  F   UNL     1      -2.333  11.505  16.244  0.00  0.00    +0.000 F 
ATOM     35  F   UNL     1      -3.551   9.915  17.085  0.00  0.00    +0.000 F 
ATOM     36  F   UNL     1      -4.080  11.995  17.438  0.00  0.00    +0.000 F 
ENDBRANCH   7  33
TORSDOF 7
ENDMDL
MODEL 4
REMARK VINA RESULT:      -9.2      4.651      9.639
REMARK  Name = 
REMARK  9 active torsions:
REMARK  status: ('A' for Active; 'I' for Inactive)
REMARK    1  A    between atoms: C_1  and  C_2
REMARK    2  A    between atoms: C_2  and  C_3
REMARK    3  A    between atoms: C_2  and  C_10
REMARK    4  A    between atoms: C_3  and  C_4
REMARK    5  A    between atoms: N_8  and  C_9
REMARK    6  A    between atoms: C_14  and  C_15
REMARK    7  A    between atoms: C_19  and  N_20
REMARK    8  A    between atoms: C_23  and  O_24
REMARK    9  A    between atoms: C_27  and  C_28
REMARK                            x       y       z     vdW  Elec       q    Type
REMARK                         _______ _______ _______ _____ _____    ______ ____
ROOT
ATOM      1  C   UNL     1       1.291   8.304  20.887  0.00  0.00    +0.000 A 
ATOM      2  N   UNL     1       1.756   8.801  22.077  0.00  0.00    +0.000 N 
ATOM      3  N   UNL     1       1.293  10.010  22.417  0.00  0.00    +0.000 NA
ATOM      4  C   UNL     1       0.479  10.374  21.404  0.00  0.00    +0.000 A 
ATOM      5  C   UNL     1      -0.287  11.569  21.240  0.00  0.00    +0.000 A 
ATOM      6  C   UNL     1      -1.014  11.528  20.026  0.00  0.00    +0.000 A 
ATOM      7  C   UNL     1      -0.955  10.446  19.096  0.00  0.00    +0.000 A 
ATOM      8  N   UNL     1      -0.207   9.308  19.260  0.00  0.00    +0.000 NA
ATOM      9  C   UNL     1       0.485   9.316  20.422  0.00  0.00    +0.000 A 
ATOM     10  H   UNL     1       2.412   8.356  22.705  0.00  0.00    +0.000 HD
ENDROOT
BRANCH   1  15
ATOM     11  C   UNL     1       2.791   5.590  18.719  0.00  0.00    +0.000 A 
ATOM     12  C   UNL     1       2.232   4.454  19.317  0.00  0.00    +0.000 A 
ATOM     13  C   UNL     1       1.411   4.569  20.437  0.00  0.00    +0.000 A 
ATOM     14  C   UNL     1       1.115   5.826  20.961  0.00  0.00    +0.000 A 
ATOM     15  C   UNL     1       1.644   6.984  20.376  0.00  0.00    +0.000 A 
ATOM     16  C   UNL     1       2.491   6.850  19.267  0.00  0.00    +0.000 A 
BRANCH  11  18
ATOM     17  C   UNL     1       4.322   6.862  17.125  0.00  0.00    +0.000 C 
ATOM     18  C   UNL     1       3.655   5.520  17.461  0.00  0.00    +0.000 C 
BRANCH  18  19
ATOM     19  C   UNL     1       4.672   4.368  17.615  0.00  0.00    +0.000 C 
BRANCH  19  20
ATOM     20  C   UNL     1       5.923   4.776  18.316  0.00  0.00    +0.000 A 
ATOM     21  N   UNL     1       6.046   4.991  19.611  0.00  0.00    +0.000 NA
ATOM     22  N   UNL     1       7.346   5.351  19.867  0.00  0.00    +0.000 NA
ATOM     23  C   UNL     1       7.994   5.335  18.727  0.00  0.00    +0.000 A 
ATOM     24  N   UNL     1       7.145   4.977  17.726  0.00  0.00    +0.000 N 
ATOM     25  C   UNL     1       7.487   4.841  16.336  0.00  0.00    +0.000 C 
ENDBRANCH  19  20
ENDBRANCH  18  19
ENDBRANCH  11  18
ENDBRANCH   1  15
BRANCH   5  26
ATOM     26  N   UNL     1      -0.365  12.618  22.136  0.00  0.00    +0.000 N 
ATOM     27  C   UNL     1       0.173  13.934  21.774  0.00  0.00    +0.000 C 
ATOM     28  C   UNL     1      -0.330  14.868  22.866  0.00  0.00    +0.000 C 
ATOM     29  C   UNL     1      -1.654  14.244  23.279  0.00  0.00    +0.000 C 
ATOM     30  C   UNL     1      -1.391  12.733  23.169  0.00  0.00    +0.000 C 
BRANCH  29  31
ATOM     31  O   UNL     1      -2.027  14.650  24.587  0.00  0.00    +0.000 OA
ATOM     32  H   UNL     1      -2.820  15.208  24.514  0.00  0.00    +0.000 HD
ENDBRANCH  29  31
ENDBRANCH   5  26
BRANCH   7  33
ATOM     33  C   UNL     1      -1.779  10.541  17.813  0.00  0.00    +0.000 C 
ATOM     34  F   UNL     1      -3.094  10.212  17.977  0.00  0.00    +0.000 F 
ATOM     35  F   UNL     1      -1.784  11.798  17.279  0.00  0.00    +0.000 F 
ATOM     36  F   UNL     1      -1.319   9.723  16.822  0.00  0.00    +0.000 F 
ENDBRANCH   7  33
TORSDOF 7
ENDMDL
MODEL 5
REMARK VINA RESULT:      -9.2      0.663      1.043
REMARK  Name = 
REMARK  9 active torsions:
REMARK  status: ('A' for Active; 'I' for Inactive)
REMARK    1  A    between atoms: C_1  and  C_2
REMARK    2  A    between atoms: C_2  and  C_3
REMARK    3  A    between atoms: C_2  and  C_10
REMARK    4  A    between atoms: C_3  and  C_4
REMARK    5  A    between atoms: N_8  and  C_9
REMARK    6  A    between atoms: C_14  and  C_15
REMARK    7  A    between atoms: C_19  and  N_20
REMARK    8  A    between atoms: C_23  and  O_24
REMARK    9  A    between atoms: C_27  and  C_28
REMARK                            x       y       z     vdW  Elec       q    Type
REMARK                         _______ _______ _______ _____ _____    ______ ____
ROOT
ATOM      1  C   UNL     1       2.278   7.762  19.193  0.00  0.00    +0.000 A 
ATOM      2  N   UNL     1       2.983   8.234  18.117  0.00  0.00    +0.000 N 
ATOM      3  N   UNL     1       3.792   7.348  17.524  0.00  0.00    +0.000 NA
ATOM      4  C   UNL     1       3.651   6.209  18.236  0.00  0.00    +0.000 A 
ATOM      5  C   UNL     1       4.275   4.938  18.048  0.00  0.00    +0.000 A 
ATOM      6  C   UNL     1       3.825   4.017  19.024  0.00  0.00    +0.000 A 
ATOM      7  C   UNL     1       2.897   4.341  20.060  0.00  0.00    +0.000 A 
ATOM      8  N   UNL     1       2.312   5.569  20.236  0.00  0.00    +0.000 NA
ATOM      9  C   UNL     1       2.714   6.463  19.305  0.00  0.00    +0.000 A 
ATOM     10  H   UNL     1       2.960   9.173  17.741  0.00  0.00    +0.000 HD
ENDROOT
BRANCH   1  15
ATOM     11  C   UNL     1      -0.143  10.532  20.076  0.00  0.00    +0.000 A 
ATOM     12  C   UNL     1      -0.460  10.178  21.393  0.00  0.00    +0.000 A 
ATOM     13  C   UNL     1       0.076   9.028  21.970  0.00  0.00    +0.000 A 
ATOM     14  C   UNL     1       0.960   8.230  21.248  0.00  0.00    +0.000 A 
ATOM     15  C   UNL     1       1.311   8.565  19.933  0.00  0.00    +0.000 A 
ATOM     16  C   UNL     1       0.740   9.709  19.357  0.00  0.00    +0.000 A 
BRANCH  11  18
ATOM     17  C   UNL     1       0.452  12.641  18.772  0.00  0.00    +0.000 C 
ATOM     18  C   UNL     1      -0.665  11.807  19.417  0.00  0.00    +0.000 C 
BRANCH  18  19
ATOM     19  C   UNL     1      -1.785  11.435  18.420  0.00  0.00    +0.000 C 
BRANCH  19  20
ATOM     20  C   UNL     1      -3.139  11.869  18.866  0.00  0.00    +0.000 A 
ATOM     21  N   UNL     1      -3.423  12.453  20.014  0.00  0.00    +0.000 NA
ATOM     22  N   UNL     1      -4.774  12.693  20.054  0.00  0.00    +0.000 NA
ATOM     23  C   UNL     1      -5.287  12.264  18.926  0.00  0.00    +0.000 A 
ATOM     24  N   UNL     1      -4.300  11.742  18.147  0.00  0.00    +0.000 N 
ATOM     25  C   UNL     1      -4.469  11.180  16.834  0.00  0.00    +0.000 C 
ENDBRANCH  19  20
ENDBRANCH  18  19
ENDBRANCH  11  18
ENDBRANCH   1  15
BRANCH   5  26
ATOM     26  N   UNL     1       5.164   4.606  17.044  0.00  0.00    +0.000 N 
ATOM     27  C   UNL     1       4.705   3.837  15.881  0.00  0.00    +0.000 C 
ATOM     28  C   UNL     1       5.863   3.906  14.896  0.00  0.00    +0.000 C 
ATOM     29  C   UNL     1       6.506   5.249  15.201  0.00  0.00    +0.000 C 
ATOM     30  C   UNL     1       6.360   5.381  16.726  0.00  0.00    +0.000 C 
BRANCH  29  31
ATOM     31  O   UNL     1       7.857   5.283  14.767  0.00  0.00    +0.000 OA
ATOM     32  H   UNL     1       8.399   4.829  15.435  0.00  0.00    +0.000 HD
ENDBRANCH  29  31
ENDBRANCH   5  26
BRANCH   7  33
ATOM     33  C   UNL     1       2.511   3.253  21.060  0.00  0.00    +0.000 C 
ATOM     34  F   UNL     1       3.484   2.315  21.258  0.00  0.00    +0.000 F 
ATOM     35  F   UNL     1       2.229   3.750  22.301  0.00  0.00    +0.000 F 
ATOM     36  F   UNL     1       1.402   2.552  20.685  0.00  0.00    +0.000 F 
ENDBRANCH   7  33
TORSDOF 7
ENDMDL
MODEL 6
REMARK VINA RESULT:      -9.0      4.877     10.015
REMARK  Name = 
REMARK  9 active torsions:
REMARK  status: ('A' for Active; 'I' for Inactive)
REMARK    1  A    between atoms: C_1  and  C_2
REMARK    2  A    between atoms: C_2  and  C_3
REMARK    3  A    between atoms: C_2  and  C_10
REMARK    4  A    between atoms: C_3  and  C_4
REMARK    5  A    between atoms: N_8  and  C_9
REMARK    6  A    between atoms: C_14  and  C_15
REMARK    7  A    between atoms: C_19  and  N_20
REMARK    8  A    between atoms: C_23  and  O_24
REMARK    9  A    between atoms: C_27  and  C_28
REMARK                            x       y       z     vdW  Elec       q    Type
REMARK                         _______ _______ _______ _____ _____    ______ ____
ROOT
ATOM      1  C   UNL     1       0.831   9.754  19.969  0.00  0.00    +0.000 A 
ATOM      2  N   UNL     1       1.134  10.214  21.224  0.00  0.00    +0.000 N 
ATOM      3  N   UNL     1       0.270  11.098  21.738  0.00  0.00    +0.000 NA
ATOM      4  C   UNL     1      -0.669  11.271  20.783  0.00  0.00    +0.000 A 
ATOM      5  C   UNL     1      -1.832  12.099  20.793  0.00  0.00    +0.000 A 
ATOM      6  C   UNL     1      -2.549  11.962  19.580  0.00  0.00    +0.000 A 
ATOM      7  C   UNL     1      -2.135  11.127  18.499  0.00  0.00    +0.000 A 
ATOM      8  N   UNL     1      -1.010  10.342  18.497  0.00  0.00    +0.000 NA
ATOM      9  C   UNL     1      -0.316  10.444  19.653  0.00  0.00    +0.000 A 
ATOM     10  H   UNL     1       1.938   9.964  21.784  0.00  0.00    +0.000 HD
ENDROOT
BRANCH   1  15
ATOM     11  C   UNL     1       2.808   6.605  19.270  0.00  0.00    +0.000 A 
ATOM     12  C   UNL     1       3.250   6.869  17.968  0.00  0.00    +0.000 A 
ATOM     13  C   UNL     1       2.873   8.040  17.312  0.00  0.00    +0.000 A 
ATOM     14  C   UNL     1       2.071   8.977  17.959  0.00  0.00    +0.000 A 
ATOM     15  C   UNL     1       1.626   8.751  19.268  0.00  0.00    +0.000 A 
ATOM     16  C   UNL     1       1.989   7.556  19.904  0.00  0.00    +0.000 A 
BRANCH  11  18
ATOM     17  C   UNL     1       2.083   4.746  20.858  0.00  0.00    +0.000 C 
ATOM     18  C   UNL     1       3.234   5.362  20.049  0.00  0.00    +0.000 C 
BRANCH  18  19
ATOM     19  C   UNL     1       3.885   4.357  19.073  0.00  0.00    +0.000 C 
BRANCH  19  20
ATOM     20  C   UNL     1       5.334   4.615  18.840  0.00  0.00    +0.000 A 
ATOM     21  N   UNL     1       6.204   5.009  19.750  0.00  0.00    +0.000 NA
ATOM     22  N   UNL     1       7.430   5.139  19.148  0.00  0.00    +0.000 NA
ATOM     23  C   UNL     1       7.290   4.810  17.886  0.00  0.00    +0.000 A 
ATOM     24  N   UNL     1       5.994   4.470  17.646  0.00  0.00    +0.000 N 
ATOM     25  C   UNL     1       5.451   4.046  16.384  0.00  0.00    +0.000 C 
ENDBRANCH  19  20
ENDBRANCH  18  19
ENDBRANCH  11  18
ENDBRANCH   1  15
BRANCH   5  26
ATOM     26  N   UNL     1      -2.253  12.903  21.836  0.00  0.00    +0.000 N 
ATOM     27  C   UNL     1      -2.998  12.321  22.957  0.00  0.00    +0.000 C 
ATOM     28  C   UNL     1      -3.041  13.426  24.004  0.00  0.00    +0.000 C 
ATOM     29  C   UNL     1      -1.751  14.192  23.759  0.00  0.00    +0.000 C 
ATOM     30  C   UNL     1      -1.584  14.140  22.232  0.00  0.00    +0.000 C 
BRANCH  29  31
ATOM     31  O   UNL     1      -1.836  15.516  24.264  0.00  0.00    +0.000 OA
ATOM     32  H   UNL     1      -2.188  15.470  25.170  0.00  0.00    +0.000 HD
ENDBRANCH  29  31
ENDBRANCH   5  26
BRANCH   7  33
ATOM     33  C   UNL     1      -2.995  11.087  17.237  0.00  0.00    +0.000 C 
ATOM     34  F   UNL     1      -4.087  11.905  17.288  0.00  0.00    +0.000 F 
ATOM     35  F   UNL     1      -2.310  11.466  16.118  0.00  0.00    +0.000 F 
ATOM     36  F   UNL     1      -3.485   9.843  16.964  0.00  0.00    +0.000 F 
ENDBRANCH   7  33
TORSDOF 7
ENDMDL
MODEL 7
REMARK VINA RESULT:      -9.0      5.398     10.429
REMARK  Name = 
REMARK  9 active torsions:
REMARK  status: ('A' for Active; 'I' for Inactive)
REMARK    1  A    between atoms: C_1  and  C_2
REMARK    2  A    between atoms: C_2  and  C_3
REMARK    3  A    between atoms: C_2  and  C_10
REMARK    4  A    between atoms: C_3  and  C_4
REMARK    5  A    between atoms: N_8  and  C_9
REMARK    6  A    between atoms: C_14  and  C_15
REMARK    7  A    between atoms: C_19  and  N_20
REMARK    8  A    between atoms: C_23  and  O_24
REMARK    9  A    between atoms: C_27  and  C_28
REMARK                            x       y       z     vdW  Elec       q    Type
REMARK                         _______ _______ _______ _____ _____    ______ ____
ROOT
ATOM      1  C   UNL     1       0.690   9.569  20.709  0.00  0.00    +0.000 A 
ATOM      2  N   UNL     1       0.086   9.102  21.846  0.00  0.00    +0.000 N 
ATOM      3  N   UNL     1      -0.592  10.013  22.555  0.00  0.00    +0.000 NA
ATOM      4  C   UNL     1      -0.434  11.173  21.883  0.00  0.00    +0.000 A 
ATOM      5  C   UNL     1      -0.945  12.472  22.182  0.00  0.00    +0.000 A 
ATOM      6  C   UNL     1      -0.542  13.403  21.194  0.00  0.00    +0.000 A 
ATOM      7  C   UNL     1       0.282  13.072  20.076  0.00  0.00    +0.000 A 
ATOM      8  N   UNL     1       0.775  11.821  19.803  0.00  0.00    +0.000 NA
ATOM      9  C   UNL     1       0.391  10.911  20.726  0.00  0.00    +0.000 A 
ATOM     10  H   UNL     1       0.111   8.155  22.201  0.00  0.00    +0.000 HD
ENDROOT
BRANCH   1  15
ATOM     11  C   UNL     1       2.729   6.685  19.353  0.00  0.00    +0.000 A 
ATOM     12  C   UNL     1       2.948   7.126  18.042  0.00  0.00    +0.000 A 
ATOM     13  C   UNL     1       2.401   8.327  17.595  0.00  0.00    +0.000 A 
ATOM     14  C   UNL     1       1.651   9.120  18.461  0.00  0.00    +0.000 A 
ATOM     15  C   UNL     1       1.429   8.716  19.783  0.00  0.00    +0.000 A 
ATOM     16  C   UNL     1       1.960   7.491  20.210  0.00  0.00    +0.000 A 
BRANCH  11  18
ATOM     17  C   UNL     1       2.360   4.582  20.748  0.00  0.00    +0.000 C 
ATOM     18  C   UNL     1       3.348   5.401  19.905  0.00  0.00    +0.000 C 
BRANCH  18  19
ATOM     19  C   UNL     1       3.951   4.592  18.736  0.00  0.00    +0.000 C 
BRANCH  19  20
ATOM     20  C   UNL     1       5.431   4.730  18.625  0.00  0.00    +0.000 A 
ATOM     21  N   UNL     1       6.247   5.087  19.597  0.00  0.00    +0.000 NA
ATOM     22  N   UNL     1       7.528   5.102  19.103  0.00  0.00    +0.000 NA
ATOM     23  C   UNL     1       7.470   4.741  17.843  0.00  0.00    +0.000 A 
ATOM     24  N   UNL     1       6.177   4.494  17.499  0.00  0.00    +0.000 N 
ATOM     25  C   UNL     1       5.713   4.069  16.205  0.00  0.00    +0.000 C 
ENDBRANCH  19  20
ENDBRANCH  18  19
ENDBRANCH  11  18
ENDBRANCH   1  15
BRANCH   5  26
ATOM     26  N   UNL     1      -1.753  12.805  23.252  0.00  0.00    +0.000 N 
ATOM     27  C   UNL     1      -1.747  14.174  23.779  0.00  0.00    +0.000 C 
ATOM     28  C   UNL     1      -2.929  14.220  24.738  0.00  0.00    +0.000 C 
ATOM     29  C   UNL     1      -3.910  13.228  24.136  0.00  0.00    +0.000 C 
ATOM     30  C   UNL     1      -3.003  12.121  23.572  0.00  0.00    +0.000 C 
BRANCH  29  31
ATOM     31  O   UNL     1      -4.825  12.753  25.112  0.00  0.00    +0.000 OA
ATOM     32  H   UNL     1      -4.450  11.948  25.509  0.00  0.00    +0.000 HD
ENDBRANCH  29  31
ENDBRANCH   5  26
BRANCH   7  33
ATOM     33  C   UNL     1       0.657  14.180  19.093  0.00  0.00    +0.000 C 
ATOM     34  F   UNL     1      -0.412  14.716  18.433  0.00  0.00    +0.000 F 
ATOM     35  F   UNL     1       1.276  15.237  19.698  0.00  0.00    +0.000 F 
ATOM     36  F   UNL     1       1.515  13.761  18.118  0.00  0.00    +0.000 F 
ENDBRANCH   7  33
TORSDOF 7
ENDMDL
MODEL 8
REMARK VINA RESULT:      -9.0      1.035      1.654
REMARK  Name = 
REMARK  9 active torsions:
REMARK  status: ('A' for Active; 'I' for Inactive)
REMARK    1  A    between atoms: C_1  and  C_2
REMARK    2  A    between atoms: C_2  and  C_3
REMARK    3  A    between atoms: C_2  and  C_10
REMARK    4  A    between atoms: C_3  and  C_4
REMARK    5  A    between atoms: N_8  and  C_9
REMARK    6  A    between atoms: C_14  and  C_15
REMARK    7  A    between atoms: C_19  and  N_20
REMARK    8  A    between atoms: C_23  and  O_24
REMARK    9  A    between atoms: C_27  and  C_28
REMARK                            x       y       z     vdW  Elec       q    Type
REMARK                         _______ _______ _______ _____ _____    ______ ____
ROOT
ATOM      1  C   UNL     1       1.986   8.358  19.162  0.00  0.00    +0.000 A 
ATOM      2  N   UNL     1       2.700   8.884  18.117  0.00  0.00    +0.000 N 
ATOM      3  N   UNL     1       3.508   8.027  17.481  0.00  0.00    +0.000 NA
ATOM      4  C   UNL     1       3.357   6.852  18.130  0.00  0.00    +0.000 A 
ATOM      5  C   UNL     1       3.976   5.590  17.877  0.00  0.00    +0.000 A 
ATOM      6  C   UNL     1       3.516   4.619  18.799  0.00  0.00    +0.000 A 
ATOM      7  C   UNL     1       2.583   4.891  19.845  0.00  0.00    +0.000 A 
ATOM      8  N   UNL     1       2.003   6.111  20.085  0.00  0.00    +0.000 NA
ATOM      9  C   UNL     1       2.415   7.052  19.206  0.00  0.00    +0.000 A 
ATOM     10  H   UNL     1       2.684   9.841  17.793  0.00  0.00    +0.000 HD
ENDROOT
BRANCH   1  15
ATOM     11  C   UNL     1      -0.854  10.703  20.029  0.00  0.00    +0.000 A 
ATOM     12  C   UNL     1      -0.771  10.691  21.427  0.00  0.00    +0.000 A 
ATOM     13  C   UNL     1       0.170   9.896  22.078  0.00  0.00    +0.000 A 
ATOM     14  C   UNL     1       1.062   9.121  21.340  0.00  0.00    +0.000 A 
ATOM     15  C   UNL     1       1.018   9.124  19.939  0.00  0.00    +0.000 A 
ATOM     16  C   UNL     1       0.046   9.907  19.299  0.00  0.00    +0.000 A 
BRANCH  11  18
ATOM     17  C   UNL     1      -1.160  12.383  18.135  0.00  0.00    +0.000 C 
ATOM     18  C   UNL     1      -1.833  11.595  19.269  0.00  0.00    +0.000 C 
BRANCH  18  19
ATOM     19  C   UNL     1      -3.018  10.734  18.777  0.00  0.00    +0.000 C 
BRANCH  19  20
ATOM     20  C   UNL     1      -3.084  10.614  17.293  0.00  0.00    +0.000 A 
ATOM     21  N   UNL     1      -2.256   9.919  16.538  0.00  0.00    +0.000 NA
ATOM     22  N   UNL     1      -2.644  10.060  15.228  0.00  0.00    +0.000 NA
ATOM     23  C   UNL     1      -3.708  10.827  15.210  0.00  0.00    +0.000 A 
ATOM     24  N   UNL     1      -4.024  11.196  16.482  0.00  0.00    +0.000 N 
ATOM     25  C   UNL     1      -5.130  12.030  16.869  0.00  0.00    +0.000 C 
ENDBRANCH  19  20
ENDBRANCH  18  19
ENDBRANCH  11  18
ENDBRANCH   1  15
BRANCH   5  26
ATOM     26  N   UNL     1       4.869   5.308  16.862  0.00  0.00    +0.000 N 
ATOM     27  C   UNL     1       6.297   5.599  17.038  0.00  0.00    +0.000 C 
ATOM     28  C   UNL     1       6.975   4.917  15.858  0.00  0.00    +0.000 C 
ATOM     29  C   UNL     1       6.075   3.726  15.574  0.00  0.00    +0.000 C 
ATOM     30  C   UNL     1       4.663   4.264  15.861  0.00  0.00    +0.000 C 
BRANCH  29  31
ATOM     31  O   UNL     1       6.234   3.267  14.240  0.00  0.00    +0.000 OA
ATOM     32  H   UNL     1       5.781   2.409  14.162  0.00  0.00    +0.000 HD
ENDBRANCH  29  31
ENDBRANCH   5  26
BRANCH   7  33
ATOM     33  C   UNL     1       2.186   3.752  20.783  0.00  0.00    +0.000 C 
ATOM     34  F   UNL     1       0.863   3.421  20.718  0.00  0.00    +0.000 F 
ATOM     35  F   UNL     1       2.862   2.594  20.524  0.00  0.00    +0.000 F 
ATOM     36  F   UNL     1       2.427   4.033  22.096  0.00  0.00    +0.000 F 
ENDBRANCH   7  33
TORSDOF 7
ENDMDL
MODEL 9
REMARK VINA RESULT:      -9.0      0.904      1.544
REMARK  Name = 
REMARK  9 active torsions:
REMARK  status: ('A' for Active; 'I' for Inactive)
REMARK    1  A    between atoms: C_1  and  C_2
REMARK    2  A    between atoms: C_2  and  C_3
REMARK    3  A    between atoms: C_2  and  C_10
REMARK    4  A    between atoms: C_3  and  C_4
REMARK    5  A    between atoms: N_8  and  C_9
REMARK    6  A    between atoms: C_14  and  C_15
REMARK    7  A    between atoms: C_19  and  N_20
REMARK    8  A    between atoms: C_23  and  O_24
REMARK    9  A    between atoms: C_27  and  C_28
REMARK                            x       y       z     vdW  Elec       q    Type
REMARK                         _______ _______ _______ _____ _____    ______ ____
ROOT
ATOM      1  C   UNL     1       2.126   8.017  19.153  0.00  0.00    +0.000 A 
ATOM      2  N   UNL     1       2.925   8.472  18.137  0.00  0.00    +0.000 N 
ATOM      3  N   UNL     1       3.730   7.558  17.582  0.00  0.00    +0.000 NA
ATOM      4  C   UNL     1       3.487   6.416  18.260  0.00  0.00    +0.000 A 
ATOM      5  C   UNL     1       4.061   5.119  18.088  0.00  0.00    +0.000 A 
ATOM      6  C   UNL     1       3.503   4.204  19.012  0.00  0.00    +0.000 A 
ATOM      7  C   UNL     1       2.522   4.555  19.989  0.00  0.00    +0.000 A 
ATOM      8  N   UNL     1       1.985   5.807  20.151  0.00  0.00    +0.000 NA
ATOM      9  C   UNL     1       2.492   6.696  19.268  0.00  0.00    +0.000 A 
ATOM     10  H   UNL     1       2.973   9.418  17.780  0.00  0.00    +0.000 HD
ENDROOT
BRANCH   1  15
ATOM     11  C   UNL     1      -0.776  10.365  19.764  0.00  0.00    +0.000 A 
ATOM     12  C   UNL     1      -0.660  10.554  21.148  0.00  0.00    +0.000 A 
ATOM     13  C   UNL     1       0.326   9.890  21.876  0.00  0.00    +0.000 A 
ATOM     14  C   UNL     1       1.228   9.050  21.228  0.00  0.00    +0.000 A 
ATOM     15  C   UNL     1       1.150   8.853  19.843  0.00  0.00    +0.000 A 
ATOM     16  C   UNL     1       0.135   9.504  19.128  0.00  0.00    +0.000 A 
BRANCH  11  18
ATOM     17  C   UNL     1      -1.160  12.004  17.849  0.00  0.00    +0.000 C 
ATOM     18  C   UNL     1      -1.806  11.108  18.915  0.00  0.00    +0.000 C 
BRANCH  18  19
ATOM     19  C   UNL     1      -2.795  10.083  18.316  0.00  0.00    +0.000 C 
BRANCH  19  20
ATOM     20  C   UNL     1      -3.038  10.282  16.858  0.00  0.00    +0.000 A 
ATOM     21  N   UNL     1      -2.314   9.776  15.879  0.00  0.00    +0.000 NA
ATOM     22  N   UNL     1      -2.854  10.188  14.686  0.00  0.00    +0.000 NA
ATOM     23  C   UNL     1      -3.904  10.925  14.959  0.00  0.00    +0.000 A 
ATOM     24  N   UNL     1      -4.062  11.010  16.308  0.00  0.00    +0.000 N 
ATOM     25  C   UNL     1      -5.105  11.725  16.994  0.00  0.00    +0.000 C 
ENDBRANCH  19  20
ENDBRANCH  18  19
ENDBRANCH  11  18
ENDBRANCH   1  15
BRANCH   5  26
ATOM     26  N   UNL     1       5.000   4.761  17.140  0.00  0.00    +0.000 N 
ATOM     27  C   UNL     1       4.624   3.881  16.028  0.00  0.00    +0.000 C 
ATOM     28  C   UNL     1       5.809   3.939  15.075  0.00  0.00    +0.000 C 
ATOM     29  C   UNL     1       6.368   5.336  15.293  0.00  0.00    +0.000 C 
ATOM     30  C   UNL     1       6.163   5.576  16.797  0.00  0.00    +0.000 C 
BRANCH  29  31
ATOM     31  O   UNL     1       7.729   5.413  14.897  0.00  0.00    +0.000 OA
ATOM     32  H   UNL     1       7.844   4.857  14.108  0.00  0.00    +0.000 HD
ENDBRANCH  29  31
ENDBRANCH   5  26
BRANCH   7  33
ATOM     33  C   UNL     1       2.017   3.470  20.938  0.00  0.00    +0.000 C 
ATOM     34  F   UNL     1       2.346   2.202  20.551  0.00  0.00    +0.000 F 
ATOM     35  F   UNL     1       2.513   3.601  22.205  0.00  0.00    +0.000 F 
ATOM     36  F   UNL     1       0.659   3.469  21.074  0.00  0.00    +0.000 F 
ENDBRANCH   7  33
TORSDOF 7
ENDMDL
