MODEL 1
REMARK VINA RESULT:      -9.5      0.000      0.000
REMARK  Name = 
REMARK  9 active torsions:
REMARK  status: ('A' for Active; 'I' for Inactive)
REMARK    1  A    between atoms: C_1  and  O_2
REMARK    2  A    between atoms: O_2  and  C_3
REMARK    3  A    between atoms: C_6  and  C_7
REMARK    4  A    between atoms: C_7  and  C_8
REMARK    5  A    between atoms: C_7  and  S_9
REMARK    6  A    between atoms: S_9  and  C_10
REMARK    7  A    between atoms: N_14  and  C_15
REMARK    8  A    between atoms: C_17  and  N_18
REMARK    9  A    between atoms: C_19  and  C_21
REMARK                            x       y       z     vdW  Elec       q    Type
REMARK                         _______ _______ _______ _____ _____    ______ ____
ROOT
ATOM      1  C   UNL     1       2.956   4.431  20.083  0.00  0.00    +0.000 A 
ATOM      2  C   UNL     1       3.877   3.405  19.799  0.00  0.00    +0.000 A 
ATOM      3  C   UNL     1       4.945   3.611  18.926  0.00  0.00    +0.000 A 
ATOM      4  C   UNL     1       5.129   4.854  18.316  0.00  0.00    +0.000 A 
ATOM      5  C   UNL     1       4.275   5.915  18.712  0.00  0.00    +0.000 A 
ATOM      6  C   UNL     1       3.192   5.741  19.613  0.00  0.00    +0.000 A 
ENDROOT
BRANCH   6   7
ATOM      7  N   UNL     1       2.321   6.823  20.028  0.00  0.00    +0.000 N 
ATOM      8  C   UNL     1       2.016   7.944  19.251  0.00  0.00    +0.000 C 
ATOM      9  O   UNL     1       2.467   8.116  18.119  0.00  0.00    +0.000 OA
ATOM     10  H   UNL     1       2.036   6.826  21.002  0.00  0.00    +0.000 HD
BRANCH   8  11
ATOM     11  C   UNL     1       1.157   9.077  19.792  0.00  0.00    +0.000 A 
ATOM     12  C   UNL     1       0.654   9.960  18.830  0.00  0.00    +0.000 A 
ATOM     13  C   UNL     1      -0.138  11.032  19.215  0.00  0.00    +0.000 A 
ATOM     14  C   UNL     1      -0.507  11.160  20.545  0.00  0.00    +0.000 A 
ATOM     15  C   UNL     1      -1.396  12.191  20.914  0.00  0.00    +0.000 A 
ATOM     16  C   UNL     1      -1.895  12.258  22.207  0.00  0.00    +0.000 A 
ATOM     17  C   UNL     1      -1.469  11.312  23.132  0.00  0.00    +0.000 A 
ATOM     18  C   UNL     1      -0.528  10.325  22.768  0.00  0.00    +0.000 A 
ATOM     19  C   UNL     1      -0.020  10.201  21.472  0.00  0.00    +0.000 A 
ATOM     20  N   UNL     1       0.849   9.192  21.113  0.00  0.00    +0.000 NA
ENDBRANCH   8  11
ENDBRANCH   6   7
BRANCH   1  22
ATOM     21  C   UNL     1       1.585   2.802  21.097  0.00  0.00    +0.000 C 
ATOM     22  O   UNL     1       1.814   4.191  20.817  0.00  0.00    +0.000 OA
ENDBRANCH   1  22
BRANCH   4  23
ATOM     23  C   UNL     1       6.125   4.949  17.150  0.00  0.00    +0.000 C 
ATOM     24  C   UNL     1       7.536   4.652  17.667  0.00  0.00    +0.000 C 
BRANCH  23  25
ATOM     25  S   UNL     1       5.721   3.893  15.706  0.00  0.00    +0.000 S 
BRANCH  25  26
ATOM     26  C   UNL     1       6.757   4.560  14.476  0.00  0.00    +0.000 A 
ATOM     27  N   UNL     1       7.714   5.447  14.649  0.00  0.00    +0.000 NA
ATOM     28  N   UNL     1       8.281   5.706  13.418  0.00  0.00    +0.000 NA
ATOM     29  C   UNL     1       7.652   4.976  12.526  0.00  0.00    +0.000 A 
ATOM     30  N   UNL     1       6.687   4.232  13.147  0.00  0.00    +0.000 N 
ATOM     31  C   UNL     1       5.820   3.298  12.481  0.00  0.00    +0.000 C 
ENDBRANCH  25  26
ENDBRANCH  23  25
ENDBRANCH   4  23
TORSDOF 6
ENDMDL
MODEL 2
REMARK VINA RESULT:      -9.2      0.813      1.370
REMARK  Name = 
REMARK  9 active torsions:
REMARK  status: ('A' for Active; 'I' for Inactive)
REMARK    1  A    between atoms: C_1  and  O_2
REMARK    2  A    between atoms: O_2  and  C_3
REMARK    3  A    between atoms: C_6  and  C_7
REMARK    4  A    between atoms: C_7  and  C_8
REMARK    5  A    between atoms: C_7  and  S_9
REMARK    6  A    between atoms: S_9  and  C_10
REMARK    7  A    between atoms: N_14  and  C_15
REMARK    8  A    between atoms: C_17  and  N_18
REMARK    9  A    between atoms: C_19  and  C_21
REMARK                            x       y       z     vdW  Elec       q    Type
REMARK                         _______ _______ _______ _____ _____    ______ ____
ROOT
ATOM      1  C   UNL     1       2.846   4.172  20.164  0.00  0.00    +0.000 A 
ATOM      2  C   UNL     1       3.719   3.162  19.717  0.00  0.00    +0.000 A 
ATOM      3  C   UNL     1       4.761   3.443  18.834  0.00  0.00    +0.000 A 
ATOM      4  C   UNL     1       4.967   4.747  18.377  0.00  0.00    +0.000 A 
ATOM      5  C   UNL     1       4.167   5.776  18.938  0.00  0.00    +0.000 A 
ATOM      6  C   UNL     1       3.112   5.523  19.853  0.00  0.00    +0.000 A 
ENDROOT
BRANCH   6   7
ATOM      7  N   UNL     1       2.296   6.570  20.436  0.00  0.00    +0.000 N 
ATOM      8  C   UNL     1       1.919   7.745  19.780  0.00  0.00    +0.000 C 
ATOM      9  O   UNL     1       2.252   8.001  18.623  0.00  0.00    +0.000 OA
ATOM     10  H   UNL     1       2.113   6.500  21.432  0.00  0.00    +0.000 HD
BRANCH   8  11
ATOM     11  C   UNL     1       1.129   8.834  20.489  0.00  0.00    +0.000 A 
ATOM     12  C   UNL     1       0.441   8.426  21.636  0.00  0.00    +0.000 A 
ATOM     13  C   UNL     1      -0.314   9.339  22.358  0.00  0.00    +0.000 A 
ATOM     14  C   UNL     1      -0.299  10.674  21.989  0.00  0.00    +0.000 A 
ATOM     15  C   UNL     1      -0.985  11.614  22.786  0.00  0.00    +0.000 A 
ATOM     16  C   UNL     1      -0.870  12.972  22.526  0.00  0.00    +0.000 A 
ATOM     17  C   UNL     1      -0.098  13.376  21.443  0.00  0.00    +0.000 A 
ATOM     18  C   UNL     1       0.530  12.423  20.613  0.00  0.00    +0.000 A 
ATOM     19  C   UNL     1       0.466  11.048  20.853  0.00  0.00    +0.000 A 
ATOM     20  N   UNL     1       1.138  10.130  20.073  0.00  0.00    +0.000 NA
ENDBRANCH   8  11
ENDBRANCH   6   7
BRANCH   1  22
ATOM     21  C   UNL     1       1.794   2.615  21.590  0.00  0.00    +0.000 C 
ATOM     22  O   UNL     1       1.724   3.877  20.909  0.00  0.00    +0.000 OA
ENDBRANCH   1  22
BRANCH   4  23
ATOM     23  C   UNL     1       5.923   4.958  17.192  0.00  0.00    +0.000 C 
ATOM     24  C   UNL     1       7.347   4.591  17.622  0.00  0.00    +0.000 C 
BRANCH  23  25
ATOM     25  S   UNL     1       5.452   4.070  15.659  0.00  0.00    +0.000 S 
BRANCH  25  26
ATOM     26  C   UNL     1       6.639   4.659  14.528  0.00  0.00    +0.000 A 
ATOM     27  N   UNL     1       7.597   5.527  14.774  0.00  0.00    +0.000 NA
ATOM     28  N   UNL     1       8.305   5.721  13.606  0.00  0.00    +0.000 NA
ATOM     29  C   UNL     1       7.758   4.971  12.677  0.00  0.00    +0.000 A 
ATOM     30  N   UNL     1       6.707   4.279  13.214  0.00  0.00    +0.000 N 
ATOM     31  C   UNL     1       5.891   3.341  12.490  0.00  0.00    +0.000 C 
ENDBRANCH  25  26
ENDBRANCH  23  25
ENDBRANCH   4  23
TORSDOF 6
ENDMDL
MODEL 3
REMARK VINA RESULT:      -9.1      2.131      3.025
REMARK  Name = 
REMARK  9 active torsions:
REMARK  status: ('A' for Active; 'I' for Inactive)
REMARK    1  A    between atoms: C_1  and  O_2
REMARK    2  A    between atoms: O_2  and  C_3
REMARK    3  A    between atoms: C_6  and  C_7
REMARK    4  A    between atoms: C_7  and  C_8
REMARK    5  A    between atoms: C_7  and  S_9
REMARK    6  A    between atoms: S_9  and  C_10
REMARK    7  A    between atoms: N_14  and  C_15
REMARK    8  A    between atoms: C_17  and  N_18
REMARK    9  A    between atoms: C_19  and  C_21
REMARK                            x       y       z     vdW  Elec       q    Type
REMARK                         _______ _______ _______ _____ _____    ______ ____
ROOT
ATOM      1  C   UNL     1       2.368   4.048  17.937  0.00  0.00    +0.000 A 
ATOM      2  C   UNL     1       3.016   2.857  17.558  0.00  0.00    +0.000 A 
ATOM      3  C   UNL     1       4.213   2.879  16.843  0.00  0.00    +0.000 A 
ATOM      4  C   UNL     1       4.805   4.095  16.494  0.00  0.00    +0.000 A 
ATOM      5  C   UNL     1       4.214   5.283  16.996  0.00  0.00    +0.000 A 
ATOM      6  C   UNL     1       3.007   5.292  17.742  0.00  0.00    +0.000 A 
ENDROOT
BRANCH   6   7
ATOM      7  N   UNL     1       2.404   6.501  18.264  0.00  0.00    +0.000 N 
ATOM      8  C   UNL     1       2.350   6.845  19.618  0.00  0.00    +0.000 C 
ATOM      9  O   UNL     1       2.823   6.136  20.507  0.00  0.00    +0.000 OA
ATOM     10  H   UNL     1       1.861   7.056  17.610  0.00  0.00    +0.000 HD
BRANCH   8  11
ATOM     11  C   UNL     1       1.624   8.094  20.094  0.00  0.00    +0.000 A 
ATOM     12  C   UNL     1       1.419   9.076  19.120  0.00  0.00    +0.000 A 
ATOM     13  C   UNL     1       0.770  10.258  19.448  0.00  0.00    +0.000 A 
ATOM     14  C   UNL     1       0.242  10.412  20.719  0.00  0.00    +0.000 A 
ATOM     15  C   UNL     1      -0.506  11.570  21.017  0.00  0.00    +0.000 A 
ATOM     16  C   UNL     1      -1.166  11.687  22.231  0.00  0.00    +0.000 A 
ATOM     17  C   UNL     1      -1.040  10.658  23.156  0.00  0.00    +0.000 A 
ATOM     18  C   UNL     1      -0.236   9.533  22.873  0.00  0.00    +0.000 A 
ATOM     19  C   UNL     1       0.424   9.358  21.654  0.00  0.00    +0.000 A 
ATOM     20  N   UNL     1       1.154   8.225  21.365  0.00  0.00    +0.000 NA
ENDBRANCH   8  11
ENDBRANCH   6   7
BRANCH   1  22
ATOM     21  C   UNL     1       0.716   2.754  19.014  0.00  0.00    +0.000 C 
ATOM     22  O   UNL     1       1.110   4.036  18.502  0.00  0.00    +0.000 OA
ENDBRANCH   1  22
BRANCH   4  23
ATOM     23  C   UNL     1       5.947   4.076  15.465  0.00  0.00    +0.000 C 
ATOM     24  C   UNL     1       5.357   3.909  14.061  0.00  0.00    +0.000 C 
BRANCH  23  25
ATOM     25  S   UNL     1       7.069   5.525  15.537  0.00  0.00    +0.000 S 
BRANCH  25  26
ATOM     26  C   UNL     1       7.496   5.560  17.224  0.00  0.00    +0.000 A 
ATOM     27  N   UNL     1       7.716   4.522  18.003  0.00  0.00    +0.000 NA
ATOM     28  N   UNL     1       8.019   4.992  19.264  0.00  0.00    +0.000 NA
ATOM     29  C   UNL     1       7.971   6.304  19.224  0.00  0.00    +0.000 A 
ATOM     30  N   UNL     1       7.652   6.708  17.956  0.00  0.00    +0.000 N 
ATOM     31  C   UNL     1       7.537   8.080  17.540  0.00  0.00    +0.000 C 
ENDBRANCH  25  26
ENDBRANCH  23  25
ENDBRANCH   4  23
TORSDOF 6
ENDMDL
MODEL 4
REMARK VINA RESULT:      -8.9      2.028      2.794
REMARK  Name = 
REMARK  9 active torsions:
REMARK  status: ('A' for Active; 'I' for Inactive)
REMARK    1  A    between atoms: C_1  and  O_2
REMARK    2  A    between atoms: O_2  and  C_3
REMARK    3  A    between atoms: C_6  and  C_7
REMARK    4  A    between atoms: C_7  and  C_8
REMARK    5  A    between atoms: C_7  and  S_9
REMARK    6  A    between atoms: S_9  and  C_10
REMARK    7  A    between atoms: N_14  and  C_15
REMARK    8  A    between atoms: C_17  and  N_18
REMARK    9  A    between atoms: C_19  and  C_21
REMARK                            x       y       z     vdW  Elec       q    Type
REMARK                         _______ _______ _______ _____ _____    ______ ____
ROOT
ATOM      1  C   UNL     1       2.585   4.267  18.674  0.00  0.00    +0.000 A 
ATOM      2  C   UNL     1       3.348   3.244  18.082  0.00  0.00    +0.000 A 
ATOM      3  C   UNL     1       4.331   3.529  17.134  0.00  0.00    +0.000 A 
ATOM      4  C   UNL     1       4.586   4.850  16.757  0.00  0.00    +0.000 A 
ATOM      5  C   UNL     1       3.905   5.879  17.457  0.00  0.00    +0.000 A 
ATOM      6  C   UNL     1       2.914   5.620  18.440  0.00  0.00    +0.000 A 
ENDROOT
BRANCH   6   7
ATOM      7  N   UNL     1       2.220   6.665  19.165  0.00  0.00    +0.000 N 
ATOM      8  C   UNL     1       2.031   7.969  18.698  0.00  0.00    +0.000 C 
ATOM      9  O   UNL     1       2.444   8.353  17.604  0.00  0.00    +0.000 OA
ATOM     10  H   UNL     1       1.987   6.467  20.133  0.00  0.00    +0.000 HD
BRANCH   8  11
ATOM     11  C   UNL     1       1.363   9.033  19.555  0.00  0.00    +0.000 A 
ATOM     12  C   UNL     1       1.178  10.273  18.937  0.00  0.00    +0.000 A 
ATOM     13  C   UNL     1       0.581  11.316  19.631  0.00  0.00    +0.000 A 
ATOM     14  C   UNL     1       0.082  11.087  20.902  0.00  0.00    +0.000 A 
ATOM     15  C   UNL     1      -0.615  12.120  21.563  0.00  0.00    +0.000 A 
ATOM     16  C   UNL     1      -1.249  11.877  22.772  0.00  0.00    +0.000 A 
ATOM     17  C   UNL     1      -1.148  10.609  23.332  0.00  0.00    +0.000 A 
ATOM     18  C   UNL     1      -0.392   9.602  22.694  0.00  0.00    +0.000 A 
ATOM     19  C   UNL     1       0.240   9.791  21.462  0.00  0.00    +0.000 A 
ATOM     20  N   UNL     1       0.920   8.780  20.817  0.00  0.00    +0.000 NA
ENDBRANCH   8  11
ENDBRANCH   6   7
BRANCH   1  22
ATOM     21  C   UNL     1       0.786   2.803  19.107  0.00  0.00    +0.000 C 
ATOM     22  O   UNL     1       1.510   3.983  19.490  0.00  0.00    +0.000 OA
ENDBRANCH   1  22
BRANCH   4  23
ATOM     23  C   UNL     1       5.454   5.094  15.512  0.00  0.00    +0.000 C 
ATOM     24  C   UNL     1       5.212   6.517  15.001  0.00  0.00    +0.000 C 
BRANCH  23  25
ATOM     25  S   UNL     1       7.244   4.778  15.749  0.00  0.00    +0.000 S 
BRANCH  25  26
ATOM     26  C   UNL     1       7.463   5.208  17.422  0.00  0.00    +0.000 A 
ATOM     27  N   UNL     1       7.533   4.382  18.444  0.00  0.00    +0.000 NA
ATOM     28  N   UNL     1       7.702   5.134  19.589  0.00  0.00    +0.000 NA
ATOM     29  C   UNL     1       7.725   6.399  19.236  0.00  0.00    +0.000 A 
ATOM     30  N   UNL     1       7.584   6.494  17.878  0.00  0.00    +0.000 N 
ATOM     31  C   UNL     1       7.589   7.729  17.140  0.00  0.00    +0.000 C 
ENDBRANCH  25  26
ENDBRANCH  23  25
ENDBRANCH   4  23
TORSDOF 6
ENDMDL
MODEL 5
REMARK VINA RESULT:      -8.8      2.030      2.933
REMARK  Name = 
REMARK  9 active torsions:
REMARK  status: ('A' for Active; 'I' for Inactive)
REMARK    1  A    between atoms: C_1  and  O_2
REMARK    2  A    between atoms: O_2  and  C_3
REMARK    3  A    between atoms: C_6  and  C_7
REMARK    4  A    between atoms: C_7  and  C_8
REMARK    5  A    between atoms: C_7  and  S_9
REMARK    6  A    between atoms: S_9  and  C_10
REMARK    7  A    between atoms: N_14  and  C_15
REMARK    8  A    between atoms: C_17  and  N_18
REMARK    9  A    between atoms: C_19  and  C_21
REMARK                            x       y       z     vdW  Elec       q    Type
REMARK                         _______ _______ _______ _____ _____    ______ ____
ROOT
ATOM      1  C   UNL     1       2.903   4.229  20.489  0.00  0.00    +0.000 A 
ATOM      2  C   UNL     1       3.792   3.258  19.990  0.00  0.00    +0.000 A 
ATOM      3  C   UNL     1       4.558   3.495  18.849  0.00  0.00    +0.000 A 
ATOM      4  C   UNL     1       4.465   4.716  18.177  0.00  0.00    +0.000 A 
ATOM      5  C   UNL     1       3.667   5.733  18.764  0.00  0.00    +0.000 A 
ATOM      6  C   UNL     1       2.892   5.527  19.935  0.00  0.00    +0.000 A 
ENDROOT
BRANCH   6   7
ATOM      7  N   UNL     1       2.083   6.563  20.545  0.00  0.00    +0.000 N 
ATOM      8  C   UNL     1       1.742   7.773  19.933  0.00  0.00    +0.000 C 
ATOM      9  O   UNL     1       2.104   8.072  18.796  0.00  0.00    +0.000 OA
ATOM     10  H   UNL     1       1.877   6.454  21.533  0.00  0.00    +0.000 HD
BRANCH   8  11
ATOM     11  C   UNL     1       0.956   8.845  20.673  0.00  0.00    +0.000 A 
ATOM     12  C   UNL     1       0.192   8.391  21.753  0.00  0.00    +0.000 A 
ATOM     13  C   UNL     1      -0.567   9.286  22.494  0.00  0.00    +0.000 A 
ATOM     14  C   UNL     1      -0.481  10.641  22.217  0.00  0.00    +0.000 A 
ATOM     15  C   UNL     1      -1.173  11.555  23.039  0.00  0.00    +0.000 A 
ATOM     16  C   UNL     1      -0.993  12.920  22.876  0.00  0.00    +0.000 A 
ATOM     17  C   UNL     1      -0.150  13.362  21.864  0.00  0.00    +0.000 A 
ATOM     18  C   UNL     1       0.486  12.440  21.006  0.00  0.00    +0.000 A 
ATOM     19  C   UNL     1       0.358  11.056  21.148  0.00  0.00    +0.000 A 
ATOM     20  N   UNL     1       1.036  10.164  20.345  0.00  0.00    +0.000 NA
ENDBRANCH   8  11
ENDBRANCH   6   7
BRANCH   1  22
ATOM     21  C   UNL     1       1.252   2.757  21.310  0.00  0.00    +0.000 C 
ATOM     22  O   UNL     1       2.031   3.945  21.519  0.00  0.00    +0.000 OA
ENDBRANCH   1  22
BRANCH   4  23
ATOM     23  C   UNL     1       5.090   4.823  16.777  0.00  0.00    +0.000 C 
ATOM     24  C   UNL     1       4.684   6.158  16.145  0.00  0.00    +0.000 C 
BRANCH  23  25
ATOM     25  S   UNL     1       6.910   4.602  16.730  0.00  0.00    +0.000 S 
BRANCH  25  26
ATOM     26  C   UNL     1       7.471   6.150  17.298  0.00  0.00    +0.000 A 
ATOM     27  N   UNL     1       7.646   7.237  16.576  0.00  0.00    +0.000 NA
ATOM     28  N   UNL     1       8.106   8.233  17.412  0.00  0.00    +0.000 NA
ATOM     29  C   UNL     1       8.205   7.728  18.620  0.00  0.00    +0.000 A 
ATOM     30  N   UNL     1       7.809   6.419  18.598  0.00  0.00    +0.000 N 
ATOM     31  C   UNL     1       7.764   5.559  19.750  0.00  0.00    +0.000 C 
ENDBRANCH  25  26
ENDBRANCH  23  25
ENDBRANCH   4  23
TORSDOF 6
ENDMDL
MODEL 6
REMARK VINA RESULT:      -8.7      2.124      3.006
REMARK  Name = 
REMARK  9 active torsions:
REMARK  status: ('A' for Active; 'I' for Inactive)
REMARK    1  A    between atoms: C_1  and  O_2
REMARK    2  A    between atoms: O_2  and  C_3
REMARK    3  A    between atoms: C_6  and  C_7
REMARK    4  A    between atoms: C_7  and  C_8
REMARK    5  A    between atoms: C_7  and  S_9
REMARK    6  A    between atoms: S_9  and  C_10
REMARK    7  A    between atoms: N_14  and  C_15
REMARK    8  A    between atoms: C_17  and  N_18
REMARK    9  A    between atoms: C_19  and  C_21
REMARK                            x       y       z     vdW  Elec       q    Type
REMARK                         _______ _______ _______ _____ _____    ______ ____
ROOT
ATOM      1  C   UNL     1       2.983   4.522  19.776  0.00  0.00    +0.000 A 
ATOM      2  C   UNL     1       3.830   3.571  19.178  0.00  0.00    +0.000 A 
ATOM      3  C   UNL     1       4.584   3.883  18.046  0.00  0.00    +0.000 A 
ATOM      4  C   UNL     1       4.520   5.160  17.484  0.00  0.00    +0.000 A 
ATOM      5  C   UNL     1       3.767   6.146  18.174  0.00  0.00    +0.000 A 
ATOM      6  C   UNL     1       3.005   5.864  19.338  0.00  0.00    +0.000 A 
ENDROOT
BRANCH   6   7
ATOM      7  N   UNL     1       2.241   6.867  20.051  0.00  0.00    +0.000 N 
ATOM      8  C   UNL     1       1.699   8.018  19.472  0.00  0.00    +0.000 C 
ATOM      9  O   UNL     1       1.822   8.286  18.277  0.00  0.00    +0.000 OA
ATOM     10  H   UNL     1       2.229   6.792  21.064  0.00  0.00    +0.000 HD
BRANCH   8  11
ATOM     11  C   UNL     1       0.978   9.065  20.307  0.00  0.00    +0.000 A 
ATOM     12  C   UNL     1       0.334   8.582  21.451  0.00  0.00    +0.000 A 
ATOM     13  C   UNL     1      -0.357   9.452  22.282  0.00  0.00    +0.000 A 
ATOM     14  C   UNL     1      -0.317  10.813  22.022  0.00  0.00    +0.000 A 
ATOM     15  C   UNL     1      -0.934  11.702  22.927  0.00  0.00    +0.000 A 
ATOM     16  C   UNL     1      -0.789  13.073  22.772  0.00  0.00    +0.000 A 
ATOM     17  C   UNL     1      -0.059  13.545  21.689  0.00  0.00    +0.000 A 
ATOM     18  C   UNL     1       0.498  12.647  20.753  0.00  0.00    +0.000 A 
ATOM     19  C   UNL     1       0.403  11.258  20.882  0.00  0.00    +0.000 A 
ATOM     20  N   UNL     1       1.007  10.391  19.998  0.00  0.00    +0.000 NA
ENDBRANCH   8  11
ENDBRANCH   6   7
BRANCH   1  22
ATOM     21  C   UNL     1       1.944   2.760  20.953  0.00  0.00    +0.000 C 
ATOM     22  O   UNL     1       2.119   4.177  20.795  0.00  0.00    +0.000 OA
ENDBRANCH   1  22
BRANCH   4  23
ATOM     23  C   UNL     1       5.125   5.370  16.087  0.00  0.00    +0.000 C 
ATOM     24  C   UNL     1       4.852   6.806  15.630  0.00  0.00    +0.000 C 
BRANCH  23  25
ATOM     25  S   UNL     1       6.908   4.967  15.954  0.00  0.00    +0.000 S 
BRANCH  25  26
ATOM     26  C   UNL     1       7.477   5.336  17.559  0.00  0.00    +0.000 A 
ATOM     27  N   UNL     1       7.753   4.473  18.513  0.00  0.00    +0.000 NA
ATOM     28  N   UNL     1       8.164   5.183  19.623  0.00  0.00    +0.000 NA
ATOM     29  C   UNL     1       8.123   6.459  19.318  0.00  0.00    +0.000 A 
ATOM     30  N   UNL     1       7.702   6.604  18.025  0.00  0.00    +0.000 N 
ATOM     31  C   UNL     1       7.563   7.865  17.346  0.00  0.00    +0.000 C 
ENDBRANCH  25  26
ENDBRANCH  23  25
ENDBRANCH   4  23
TORSDOF 6
ENDMDL
MODEL 7
REMARK VINA RESULT:      -8.6      1.778      2.609
REMARK  Name = 
REMARK  9 active torsions:
REMARK  status: ('A' for Active; 'I' for Inactive)
REMARK    1  A    between atoms: C_1  and  O_2
REMARK    2  A    between atoms: O_2  and  C_3
REMARK    3  A    between atoms: C_6  and  C_7
REMARK    4  A    between atoms: C_7  and  C_8
REMARK    5  A    between atoms: C_7  and  S_9
REMARK    6  A    between atoms: S_9  and  C_10
REMARK    7  A    between atoms: N_14  and  C_15
REMARK    8  A    between atoms: C_17  and  N_18
REMARK    9  A    between atoms: C_19  and  C_21
REMARK                            x       y       z     vdW  Elec       q    Type
REMARK                         _______ _______ _______ _____ _____    ______ ____
ROOT
ATOM      1  C   UNL     1       2.766   4.415  19.982  0.00  0.00    +0.000 A 
ATOM      2  C   UNL     1       3.549   3.323  19.562  0.00  0.00    +0.000 A 
ATOM      3  C   UNL     1       4.453   3.443  18.507  0.00  0.00    +0.000 A 
ATOM      4  C   UNL     1       4.608   4.663  17.845  0.00  0.00    +0.000 A 
ATOM      5  C   UNL     1       3.914   5.787  18.364  0.00  0.00    +0.000 A 
ATOM      6  C   UNL     1       3.002   5.700  19.448  0.00  0.00    +0.000 A 
ENDROOT
BRANCH   6   7
ATOM      7  N   UNL     1       2.297   6.845  19.988  0.00  0.00    +0.000 N 
ATOM      8  C   UNL     1       1.834   7.926  19.232  0.00  0.00    +0.000 C 
ATOM      9  O   UNL     1       1.987   8.003  18.013  0.00  0.00    +0.000 OA
ATOM     10  H   UNL     1       2.269   6.924  20.999  0.00  0.00    +0.000 HD
BRANCH   8  11
ATOM     11  C   UNL     1       1.174   9.130  19.886  0.00  0.00    +0.000 A 
ATOM     12  C   UNL     1       1.073  10.269  19.081  0.00  0.00    +0.000 A 
ATOM     13  C   UNL     1       0.490  11.426  19.580  0.00  0.00    +0.000 A 
ATOM     14  C   UNL     1      -0.078  11.408  20.843  0.00  0.00    +0.000 A 
ATOM     15  C   UNL     1      -0.760  12.553  21.305  0.00  0.00    +0.000 A 
ATOM     16  C   UNL     1      -1.460  12.518  22.502  0.00  0.00    +0.000 A 
ATOM     17  C   UNL     1      -1.440  11.346  23.248  0.00  0.00    +0.000 A 
ATOM     18  C   UNL     1      -0.700  10.228  22.808  0.00  0.00    +0.000 A 
ATOM     19  C   UNL     1      -0.003  10.206  21.596  0.00  0.00    +0.000 A 
ATOM     20  N   UNL     1       0.662   9.086  21.146  0.00  0.00    +0.000 NA
ENDBRANCH   8  11
ENDBRANCH   6   7
BRANCH   1  22
ATOM     21  C   UNL     1       1.156   2.963  20.912  0.00  0.00    +0.000 C 
ATOM     22  O   UNL     1       1.762   4.264  20.915  0.00  0.00    +0.000 OA
ENDBRANCH   1  22
BRANCH   4  23
ATOM     23  C   UNL     1       5.381   4.675  16.517  0.00  0.00    +0.000 C 
ATOM     24  C   UNL     1       4.984   5.917  15.714  0.00  0.00    +0.000 C 
BRANCH  23  25
ATOM     25  S   UNL     1       7.203   4.560  16.687  0.00  0.00    +0.000 S 
BRANCH  25  26
ATOM     26  C   UNL     1       7.608   6.153  17.262  0.00  0.00    +0.000 A 
ATOM     27  N   UNL     1       7.704   7.249  16.540  0.00  0.00    +0.000 NA
ATOM     28  N   UNL     1       8.051   8.285  17.383  0.00  0.00    +0.000 NA
ATOM     29  C   UNL     1       8.164   7.793  18.595  0.00  0.00    +0.000 A 
ATOM     30  N   UNL     1       7.888   6.453  18.569  0.00  0.00    +0.000 N 
ATOM     31  C   UNL     1       7.890   5.595  19.724  0.00  0.00    +0.000 C 
ENDBRANCH  25  26
ENDBRANCH  23  25
ENDBRANCH   4  23
TORSDOF 6
ENDMDL
MODEL 8
REMARK VINA RESULT:      -8.5      2.209      3.316
REMARK  Name = 
REMARK  9 active torsions:
REMARK  status: ('A' for Active; 'I' for Inactive)
REMARK    1  A    between atoms: C_1  and  O_2
REMARK    2  A    between atoms: O_2  and  C_3
REMARK    3  A    between atoms: C_6  and  C_7
REMARK    4  A    between atoms: C_7  and  C_8
REMARK    5  A    between atoms: C_7  and  S_9
REMARK    6  A    between atoms: S_9  and  C_10
REMARK    7  A    between atoms: N_14  and  C_15
REMARK    8  A    between atoms: C_17  and  N_18
REMARK    9  A    between atoms: C_19  and  C_21
REMARK                            x       y       z     vdW  Elec       q    Type
REMARK                         _______ _______ _______ _____ _____    ______ ____
ROOT
ATOM      1  C   UNL     1       2.340   4.099  18.012  0.00  0.00    +0.000 A 
ATOM      2  C   UNL     1       2.992   2.899  17.673  0.00  0.00    +0.000 A 
ATOM      3  C   UNL     1       4.186   2.901  16.951  0.00  0.00    +0.000 A 
ATOM      4  C   UNL     1       4.769   4.107  16.555  0.00  0.00    +0.000 A 
ATOM      5  C   UNL     1       4.174   5.310  17.016  0.00  0.00    +0.000 A 
ATOM      6  C   UNL     1       2.971   5.338  17.768  0.00  0.00    +0.000 A 
ENDROOT
BRANCH   6   7
ATOM      7  N   UNL     1       2.363   6.562  18.250  0.00  0.00    +0.000 N 
ATOM      8  C   UNL     1       2.284   6.938  19.594  0.00  0.00    +0.000 C 
ATOM      9  O   UNL     1       2.736   6.249  20.509  0.00  0.00    +0.000 OA
ATOM     10  H   UNL     1       1.837   7.104  17.572  0.00  0.00    +0.000 HD
BRANCH   8  11
ATOM     11  C   UNL     1       1.556   8.202  20.026  0.00  0.00    +0.000 A 
ATOM     12  C   UNL     1       1.173   8.244  21.371  0.00  0.00    +0.000 A 
ATOM     13  C   UNL     1       0.499   9.349  21.869  0.00  0.00    +0.000 A 
ATOM     14  C   UNL     1       0.299  10.448  21.050  0.00  0.00    +0.000 A 
ATOM     15  C   UNL     1      -0.295  11.608  21.590  0.00  0.00    +0.000 A 
ATOM     16  C   UNL     1      -0.377  12.770  20.837  0.00  0.00    +0.000 A 
ATOM     17  C   UNL     1       0.100  12.750  19.532  0.00  0.00    +0.000 A 
ATOM     18  C   UNL     1       0.632  11.565  18.980  0.00  0.00    +0.000 A 
ATOM     19  C   UNL     1       0.762  10.379  19.709  0.00  0.00    +0.000 A 
ATOM     20  N   UNL     1       1.343   9.246  19.179  0.00  0.00    +0.000 NA
ENDBRANCH   8  11
ENDBRANCH   6   7
BRANCH   1  22
ATOM     21  C   UNL     1       0.850   2.995  19.470  0.00  0.00    +0.000 C 
ATOM     22  O   UNL     1       1.085   4.100  18.584  0.00  0.00    +0.000 OA
ENDBRANCH   1  22
BRANCH   4  23
ATOM     23  C   UNL     1       5.906   4.058  15.521  0.00  0.00    +0.000 C 
ATOM     24  C   UNL     1       5.308   3.865  14.124  0.00  0.00    +0.000 C 
BRANCH  23  25
ATOM     25  S   UNL     1       7.038   5.499  15.556  0.00  0.00    +0.000 S 
BRANCH  25  26
ATOM     26  C   UNL     1       7.495   5.552  17.236  0.00  0.00    +0.000 A 
ATOM     27  N   UNL     1       7.734   4.523  18.019  0.00  0.00    +0.000 NA
ATOM     28  N   UNL     1       8.056   5.006  19.271  0.00  0.00    +0.000 NA
ATOM     29  C   UNL     1       7.999   6.317  19.220  0.00  0.00    +0.000 A 
ATOM     30  N   UNL     1       7.656   6.707  17.955  0.00  0.00    +0.000 N 
ATOM     31  C   UNL     1       7.525   8.075  17.529  0.00  0.00    +0.000 C 
ENDBRANCH  25  26
ENDBRANCH  23  25
ENDBRANCH   4  23
TORSDOF 6
ENDMDL
MODEL 9
REMARK VINA RESULT:      -8.4      1.089      1.587
REMARK  Name = 
REMARK  9 active torsions:
REMARK  status: ('A' for Active; 'I' for Inactive)
REMARK    1  A    between atoms: C_1  and  O_2
REMARK    2  A    between atoms: O_2  and  C_3
REMARK    3  A    between atoms: C_6  and  C_7
REMARK    4  A    between atoms: C_7  and  C_8
REMARK    5  A    between atoms: C_7  and  S_9
REMARK    6  A    between atoms: S_9  and  C_10
REMARK    7  A    between atoms: N_14  and  C_15
REMARK    8  A    between atoms: C_17  and  N_18
REMARK    9  A    between atoms: C_19  and  C_21
REMARK                            x       y       z     vdW  Elec       q    Type
REMARK                         _______ _______ _______ _____ _____    ______ ____
ROOT
ATOM      1  C   UNL     1       2.283   4.242  18.685  0.00  0.00    +0.000 A 
ATOM      2  C   UNL     1       3.106   3.264  18.097  0.00  0.00    +0.000 A 
ATOM      3  C   UNL     1       4.314   3.604  17.488  0.00  0.00    +0.000 A 
ATOM      4  C   UNL     1       4.740   4.933  17.457  0.00  0.00    +0.000 A 
ATOM      5  C   UNL     1       3.969   5.889  18.169  0.00  0.00    +0.000 A 
ATOM      6  C   UNL     1       2.746   5.569  18.815  0.00  0.00    +0.000 A 
ENDROOT
BRANCH   6   7
ATOM      7  N   UNL     1       1.958   6.538  19.551  0.00  0.00    +0.000 N 
ATOM      8  C   UNL     1       1.909   7.906  19.268  0.00  0.00    +0.000 C 
ATOM      9  O   UNL     1       2.543   8.421  18.347  0.00  0.00    +0.000 OA
ATOM     10  H   UNL     1       1.532   6.214  20.413  0.00  0.00    +0.000 HD
BRANCH   8  11
ATOM     11  C   UNL     1       1.121   8.871  20.140  0.00  0.00    +0.000 A 
ATOM     12  C   UNL     1       1.036   8.525  21.492  0.00  0.00    +0.000 A 
ATOM     13  C   UNL     1       0.336   9.335  22.376  0.00  0.00    +0.000 A 
ATOM     14  C   UNL     1      -0.189  10.535  21.926  0.00  0.00    +0.000 A 
ATOM     15  C   UNL     1      -0.808  11.403  22.850  0.00  0.00    +0.000 A 
ATOM     16  C   UNL     1      -1.215  12.670  22.459  0.00  0.00    +0.000 A 
ATOM     17  C   UNL     1      -1.032  13.046  21.134  0.00  0.00    +0.000 A 
ATOM     18  C   UNL     1      -0.471  12.145  20.203  0.00  0.00    +0.000 A 
ATOM     19  C   UNL     1      -0.021  10.870  20.556  0.00  0.00    +0.000 A 
ATOM     20  N   UNL     1       0.585  10.024  19.652  0.00  0.00    +0.000 NA
ENDBRANCH   8  11
ENDBRANCH   6   7
BRANCH   1  22
ATOM     21  C   UNL     1       0.793   2.533  19.335  0.00  0.00    +0.000 C 
ATOM     22  O   UNL     1       1.020   3.938  19.147  0.00  0.00    +0.000 OA
ENDBRANCH   1  22
BRANCH   4  23
ATOM     23  C   UNL     1       5.910   5.299  16.530  0.00  0.00    +0.000 C 
ATOM     24  C   UNL     1       6.975   6.050  17.335  0.00  0.00    +0.000 C 
BRANCH  23  25
ATOM     25  S   UNL     1       6.647   3.884  15.628  0.00  0.00    +0.000 S 
BRANCH  25  26
ATOM     26  C   UNL     1       7.218   4.648  14.172  0.00  0.00    +0.000 A 
ATOM     27  N   UNL     1       8.099   5.622  14.087  0.00  0.00    +0.000 NA
ATOM     28  N   UNL     1       8.259   5.936  12.753  0.00  0.00    +0.000 NA
ATOM     29  C   UNL     1       7.469   5.150  12.059  0.00  0.00    +0.000 A 
ATOM     30  N   UNL     1       6.797   4.316  12.910  0.00  0.00    +0.000 N 
ATOM     31  C   UNL     1       5.864   3.303  12.496  0.00  0.00    +0.000 C 
ENDBRANCH  25  26
ENDBRANCH  23  25
ENDBRANCH   4  23
TORSDOF 6
ENDMDL
