MODEL 1
REMARK VINA RESULT:      -9.6      0.000      0.000
REMARK  Name = 
REMARK  9 active torsions:
REMARK  status: ('A' for Active; 'I' for Inactive)
REMARK    1  A    between atoms: C_1  and  C_2
REMARK    2  A    between atoms: C_6  and  C_7
REMARK    3  A    between atoms: C_9  and  C_10
REMARK    4  A    between atoms: C_10  and  C_11
REMARK    5  A    between atoms: C_10  and  C_12
REMARK    6  A    between atoms: C_12  and  C_13
REMARK    7  A    between atoms: N_17  and  C_18
REMARK    8  A    between atoms: C_20  and  N_21
REMARK    9  A    between atoms: C_28  and  C_29
REMARK                            x       y       z     vdW  Elec       q    Type
REMARK                         _______ _______ _______ _____ _____    ______ ____
ROOT
ATOM      1  C   UNL     1       2.748   4.879  18.314  0.00  0.00    +0.000 A 
ATOM      2  C   UNL     1       3.820   4.944  17.443  0.00  0.00    +0.000 A 
ATOM      3  C   UNL     1       4.298   6.185  17.046  0.00  0.00    +0.000 A 
ATOM      4  C   UNL     1       3.658   7.320  17.550  0.00  0.00    +0.000 A 
ATOM      5  C   UNL     1       2.598   7.186  18.453  0.00  0.00    +0.000 A 
ATOM      6  N   UNL     1       2.158   5.970  18.840  0.00  0.00    +0.000 NA
ENDROOT
BRANCH   5   7
ATOM      7  N   UNL     1       1.977   8.337  18.978  0.00  0.00    +0.000 N 
ATOM      8  C   UNL     1       1.367   8.364  20.293  0.00  0.00    +0.000 C 
ATOM      9  C   UNL     1       0.803   9.741  20.389  0.00  0.00    +0.000 A 
ATOM     10  C   UNL     1       1.088  10.437  19.216  0.00  0.00    +0.000 A 
ATOM     11  C   UNL     1       0.666  11.735  19.004  0.00  0.00    +0.000 A 
ATOM     12  C   UNL     1      -0.073  12.345  20.017  0.00  0.00    +0.000 A 
ATOM     13  C   UNL     1      -0.362  11.656  21.211  0.00  0.00    +0.000 A 
ATOM     14  C   UNL     1       0.081  10.337  21.422  0.00  0.00    +0.000 A 
ATOM     15  C   UNL     1       1.847   9.554  18.315  0.00  0.00    +0.000 C 
ATOM     16  O   UNL     1       2.224   9.922  17.218  0.00  0.00    +0.000 OA
BRANCH  14  17
ATOM     17  C   UNL     1      -0.230   9.628  22.714  0.00  0.00    +0.000 C 
ATOM     18  F   UNL     1       0.877   9.307  23.441  0.00  0.00    +0.000 F 
ATOM     19  F   UNL     1      -1.008  10.378  23.542  0.00  0.00    +0.000 F 
ATOM     20  F   UNL     1      -0.899   8.459  22.522  0.00  0.00    +0.000 F 
ENDBRANCH  14  17
ENDBRANCH   5   7
BRANCH   1  26
ATOM     21  C   UNL     1       4.087   2.347  19.957  0.00  0.00    +0.000 C 
ATOM     22  C   UNL     1       2.713   2.530  19.431  0.00  0.00    +0.000 A 
ATOM     23  C   UNL     1       1.647   1.604  19.503  0.00  0.00    +0.000 A 
ATOM     24  N   UNL     1       0.541   2.044  18.903  0.00  0.00    +0.000 NA
ATOM     25  N   UNL     1       0.915   3.228  18.381  0.00  0.00    +0.000 N 
ATOM     26  C   UNL     1       2.187   3.604  18.725  0.00  0.00    +0.000 A 
ATOM     27  H   UNL     1       0.258   3.753  17.809  0.00  0.00    +0.000 HD
ENDBRANCH   1  26
BRANCH   3  28
ATOM     28  C   UNL     1       5.497   6.310  16.123  0.00  0.00    +0.000 C 
ATOM     29  C   UNL     1       5.246   5.516  14.835  0.00  0.00    +0.000 C 
BRANCH  28  30
ATOM     30  C   UNL     1       6.809   5.844  16.796  0.00  0.00    +0.000 C 
BRANCH  30  31
ATOM     31  C   UNL     1       7.513   6.962  17.494  0.00  0.00    +0.000 A 
ATOM     32  N   UNL     1       7.657   8.188  17.036  0.00  0.00    +0.000 NA
ATOM     33  N   UNL     1       8.308   8.931  17.994  0.00  0.00    +0.000 NA
ATOM     34  C   UNL     1       8.553   8.141  19.011  0.00  0.00    +0.000 A 
ATOM     35  N   UNL     1       8.084   6.891  18.739  0.00  0.00    +0.000 N 
ATOM     36  C   UNL     1       8.182   5.751  19.610  0.00  0.00    +0.000 C 
ENDBRANCH  30  31
ENDBRANCH  28  30
ENDBRANCH   3  28
TORSDOF 6
ENDMDL
MODEL 2
REMARK VINA RESULT:      -9.4      1.052      1.084
REMARK  Name = 
REMARK  9 active torsions:
REMARK  status: ('A' for Active; 'I' for Inactive)
REMARK    1  A    between atoms: C_1  and  C_2
REMARK    2  A    between atoms: C_6  and  C_7
REMARK    3  A    between atoms: C_9  and  C_10
REMARK    4  A    between atoms: C_10  and  C_11
REMARK    5  A    between atoms: C_10  and  C_12
REMARK    6  A    between atoms: C_12  and  C_13
REMARK    7  A    between atoms: N_17  and  C_18
REMARK    8  A    between atoms: C_20  and  N_21
REMARK    9  A    between atoms: C_28  and  C_29
REMARK                            x       y       z     vdW  Elec       q    Type
REMARK                         _______ _______ _______ _____ _____    ______ ____
ROOT
ATOM      1  C   UNL     1       3.257   4.880  19.294  0.00  0.00    +0.000 A 
ATOM      2  C   UNL     1       4.147   4.853  18.236  0.00  0.00    +0.000 A 
ATOM      3  C   UNL     1       4.316   5.992  17.460  0.00  0.00    +0.000 A 
ATOM      4  C   UNL     1       3.563   7.120  17.791  0.00  0.00    +0.000 A 
ATOM      5  C   UNL     1       2.702   7.093  18.894  0.00  0.00    +0.000 A 
ATOM      6  N   UNL     1       2.564   5.981  19.646  0.00  0.00    +0.000 NA
ENDROOT
BRANCH   5   7
ATOM      7  N   UNL     1       1.968   8.246  19.237  0.00  0.00    +0.000 N 
ATOM      8  C   UNL     1       1.327   8.409  20.527  0.00  0.00    +0.000 C 
ATOM      9  C   UNL     1       0.638   9.727  20.412  0.00  0.00    +0.000 A 
ATOM     10  C   UNL     1       0.886  10.266  19.151  0.00  0.00    +0.000 A 
ATOM     11  C   UNL     1       0.354  11.475  18.745  0.00  0.00    +0.000 A 
ATOM     12  C   UNL     1      -0.461  12.155  19.649  0.00  0.00    +0.000 A 
ATOM     13  C   UNL     1      -0.714  11.625  20.930  0.00  0.00    +0.000 A 
ATOM     14  C   UNL     1      -0.158  10.398  21.338  0.00  0.00    +0.000 A 
ATOM     15  C   UNL     1       1.743   9.335  18.399  0.00  0.00    +0.000 C 
ATOM     16  O   UNL     1       2.110   9.571  17.263  0.00  0.00    +0.000 OA
BRANCH  14  17
ATOM     17  C   UNL     1      -0.433   9.860  22.718  0.00  0.00    +0.000 C 
ATOM     18  F   UNL     1       0.690   9.676  23.467  0.00  0.00    +0.000 F 
ATOM     19  F   UNL     1      -1.228  10.691  23.448  0.00  0.00    +0.000 F 
ATOM     20  F   UNL     1      -1.065   8.657  22.694  0.00  0.00    +0.000 F 
ENDBRANCH  14  17
ENDBRANCH   5   7
BRANCH   1  26
ATOM     21  C   UNL     1       3.468   1.665  18.573  0.00  0.00    +0.000 C 
ATOM     22  C   UNL     1       3.115   2.342  19.844  0.00  0.00    +0.000 A 
ATOM     23  C   UNL     1       2.753   1.724  21.063  0.00  0.00    +0.000 A 
ATOM     24  N   UNL     1       2.454   2.603  22.018  0.00  0.00    +0.000 NA
ATOM     25  N   UNL     1       2.556   3.793  21.395  0.00  0.00    +0.000 N 
ATOM     26  C   UNL     1       3.017   3.702  20.107  0.00  0.00    +0.000 A 
ATOM     27  H   UNL     1       2.315   4.643  21.898  0.00  0.00    +0.000 HD
ENDBRANCH   1  26
BRANCH   3  28
ATOM     28  C   UNL     1       5.309   6.024  16.313  0.00  0.00    +0.000 C 
ATOM     29  C   UNL     1       4.848   5.075  15.199  0.00  0.00    +0.000 C 
BRANCH  28  30
ATOM     30  C   UNL     1       6.744   5.667  16.766  0.00  0.00    +0.000 C 
BRANCH  30  31
ATOM     31  C   UNL     1       7.430   6.818  17.426  0.00  0.00    +0.000 A 
ATOM     32  N   UNL     1       7.550   8.032  16.930  0.00  0.00    +0.000 NA
ATOM     33  N   UNL     1       8.192   8.816  17.862  0.00  0.00    +0.000 NA
ATOM     34  C   UNL     1       8.455   8.062  18.902  0.00  0.00    +0.000 A 
ATOM     35  N   UNL     1       8.008   6.796  18.670  0.00  0.00    +0.000 N 
ATOM     36  C   UNL     1       8.129   5.685  19.576  0.00  0.00    +0.000 C 
ENDBRANCH  30  31
ENDBRANCH  28  30
ENDBRANCH   3  28
TORSDOF 6
ENDMDL
MODEL 3
REMARK VINA RESULT:      -9.4      1.994      2.651
REMARK  Name = 
REMARK  9 active torsions:
REMARK  status: ('A' for Active; 'I' for Inactive)
REMARK    1  A    between atoms: C_1  and  C_2
REMARK    2  A    between atoms: C_6  and  C_7
REMARK    3  A    between atoms: C_9  and  C_10
REMARK    4  A    between atoms: C_10  and  C_11
REMARK    5  A    between atoms: C_10  and  C_12
REMARK    6  A    between atoms: C_12  and  C_13
REMARK    7  A    between atoms: N_17  and  C_18
REMARK    8  A    between atoms: C_20  and  N_21
REMARK    9  A    between atoms: C_28  and  C_29
REMARK                            x       y       z     vdW  Elec       q    Type
REMARK                         _______ _______ _______ _____ _____    ______ ____
ROOT
ATOM      1  C   UNL     1       3.047   5.006  19.325  0.00  0.00    +0.000 A 
ATOM      2  C   UNL     1       3.988   5.015  18.312  0.00  0.00    +0.000 A 
ATOM      3  C   UNL     1       4.198   6.181  17.588  0.00  0.00    +0.000 A 
ATOM      4  C   UNL     1       3.432   7.300  17.924  0.00  0.00    +0.000 A 
ATOM      5  C   UNL     1       2.518   7.235  18.982  0.00  0.00    +0.000 A 
ATOM      6  N   UNL     1       2.340   6.096  19.684  0.00  0.00    +0.000 NA
ENDROOT
BRANCH   5   7
ATOM      7  N   UNL     1       1.771   8.377  19.331  0.00  0.00    +0.000 N 
ATOM      8  C   UNL     1       1.140   8.531  20.628  0.00  0.00    +0.000 C 
ATOM      9  C   UNL     1       0.432   9.839  20.519  0.00  0.00    +0.000 A 
ATOM     10  C   UNL     1       0.660  10.382  19.256  0.00  0.00    +0.000 A 
ATOM     11  C   UNL     1       0.108  11.583  18.855  0.00  0.00    +0.000 A 
ATOM     12  C   UNL     1      -0.709  12.252  19.767  0.00  0.00    +0.000 A 
ATOM     13  C   UNL     1      -0.942  11.718  21.049  0.00  0.00    +0.000 A 
ATOM     14  C   UNL     1      -0.366  10.499  21.453  0.00  0.00    +0.000 A 
ATOM     15  C   UNL     1       1.524   9.463  18.496  0.00  0.00    +0.000 C 
ATOM     16  O   UNL     1       1.877   9.705  17.357  0.00  0.00    +0.000 OA
BRANCH  14  17
ATOM     17  C   UNL     1      -0.620   9.958  22.835  0.00  0.00    +0.000 C 
ATOM     18  F   UNL     1       0.507   9.835  23.591  0.00  0.00    +0.000 F 
ATOM     19  F   UNL     1      -1.460  10.751  23.555  0.00  0.00    +0.000 F 
ATOM     20  F   UNL     1      -1.191   8.723  22.816  0.00  0.00    +0.000 F 
ENDBRANCH  14  17
ENDBRANCH   5   7
BRANCH   1  26
ATOM     21  C   UNL     1       3.187   1.822  18.461  0.00  0.00    +0.000 C 
ATOM     22  C   UNL     1       2.831   2.450  19.757  0.00  0.00    +0.000 A 
ATOM     23  C   UNL     1       2.435   1.787  20.941  0.00  0.00    +0.000 A 
ATOM     24  N   UNL     1       2.144   2.630  21.931  0.00  0.00    +0.000 NA
ATOM     25  N   UNL     1       2.286   3.844  21.364  0.00  0.00    +0.000 N 
ATOM     26  C   UNL     1       2.765   3.799  20.080  0.00  0.00    +0.000 A 
ATOM     27  H   UNL     1       2.059   4.677  21.901  0.00  0.00    +0.000 HD
ENDBRANCH   1  26
BRANCH   3  28
ATOM     28  C   UNL     1       5.247   6.252  16.494  0.00  0.00    +0.000 C 
ATOM     29  C   UNL     1       4.753   7.158  15.359  0.00  0.00    +0.000 C 
BRANCH  28  30
ATOM     30  C   UNL     1       5.621   4.856  15.944  0.00  0.00    +0.000 C 
BRANCH  30  31
ATOM     31  C   UNL     1       6.558   4.940  14.783  0.00  0.00    +0.000 A 
ATOM     32  N   UNL     1       7.721   5.556  14.773  0.00  0.00    +0.000 NA
ATOM     33  N   UNL     1       8.304   5.355  13.544  0.00  0.00    +0.000 NA
ATOM     34  C   UNL     1       7.482   4.627  12.828  0.00  0.00    +0.000 A 
ATOM     35  N   UNL     1       6.365   4.352  13.559  0.00  0.00    +0.000 N 
ATOM     36  C   UNL     1       5.233   3.589  13.105  0.00  0.00    +0.000 C 
ENDBRANCH  30  31
ENDBRANCH  28  30
ENDBRANCH   3  28
TORSDOF 6
ENDMDL
MODEL 4
REMARK VINA RESULT:      -9.3      0.661      1.351
REMARK  Name = 
REMARK  9 active torsions:
REMARK  status: ('A' for Active; 'I' for Inactive)
REMARK    1  A    between atoms: C_1  and  C_2
REMARK    2  A    between atoms: C_6  and  C_7
REMARK    3  A    between atoms: C_9  and  C_10
REMARK    4  A    between atoms: C_10  and  C_11
REMARK    5  A    between atoms: C_10  and  C_12
REMARK    6  A    between atoms: C_12  and  C_13
REMARK    7  A    between atoms: N_17  and  C_18
REMARK    8  A    between atoms: C_20  and  N_21
REMARK    9  A    between atoms: C_28  and  C_29
REMARK                            x       y       z     vdW  Elec       q    Type
REMARK                         _______ _______ _______ _____ _____    ______ ____
ROOT
ATOM      1  C   UNL     1       2.811   5.034  18.315  0.00  0.00    +0.000 A 
ATOM      2  C   UNL     1       3.880   5.145  17.446  0.00  0.00    +0.000 A 
ATOM      3  C   UNL     1       4.317   6.406  17.063  0.00  0.00    +0.000 A 
ATOM      4  C   UNL     1       3.640   7.512  17.582  0.00  0.00    +0.000 A 
ATOM      5  C   UNL     1       2.585   7.332  18.483  0.00  0.00    +0.000 A 
ATOM      6  N   UNL     1       2.185   6.098  18.855  0.00  0.00    +0.000 NA
ENDROOT
BRANCH   5   7
ATOM      7  N   UNL     1       1.927   8.456  19.022  0.00  0.00    +0.000 N 
ATOM      8  C   UNL     1       1.303   8.442  20.331  0.00  0.00    +0.000 C 
ATOM      9  C   UNL     1       0.699   9.801  20.445  0.00  0.00    +0.000 A 
ATOM     10  C   UNL     1       0.975  10.526  19.287  0.00  0.00    +0.000 A 
ATOM     11  C   UNL     1       0.519  11.815  19.094  0.00  0.00    +0.000 A 
ATOM     12  C   UNL     1      -0.247  12.386  20.110  0.00  0.00    +0.000 A 
ATOM     13  C   UNL     1      -0.528  11.667  21.289  0.00  0.00    +0.000 A 
ATOM     14  C   UNL     1      -0.050  10.357  21.481  0.00  0.00    +0.000 A 
ATOM     15  C   UNL     1       1.768   9.680  18.379  0.00  0.00    +0.000 C 
ATOM     16  O   UNL     1       2.145  10.079  17.292  0.00  0.00    +0.000 OA
BRANCH  14  17
ATOM     17  C   UNL     1      -0.353   9.616  22.757  0.00  0.00    +0.000 C 
ATOM     18  F   UNL     1      -1.215  10.276  23.581  0.00  0.00    +0.000 F 
ATOM     19  F   UNL     1      -0.921   8.401  22.527  0.00  0.00    +0.000 F 
ATOM     20  F   UNL     1       0.761   9.378  23.500  0.00  0.00    +0.000 F 
ENDBRANCH  14  17
ENDBRANCH   5   7
BRANCH   1  26
ATOM     21  C   UNL     1       4.230   2.534  19.942  0.00  0.00    +0.000 C 
ATOM     22  C   UNL     1       2.852   2.674  19.409  0.00  0.00    +0.000 A 
ATOM     23  C   UNL     1       1.819   1.711  19.467  0.00  0.00    +0.000 A 
ATOM     24  N   UNL     1       0.701   2.118  18.865  0.00  0.00    +0.000 NA
ATOM     25  N   UNL     1       1.036   3.320  18.357  0.00  0.00    +0.000 N 
ATOM     26  C   UNL     1       2.293   3.736  18.711  0.00  0.00    +0.000 A 
ATOM     27  H   UNL     1       0.364   3.826  17.786  0.00  0.00    +0.000 HD
ENDBRANCH   1  26
BRANCH   3  28
ATOM     28  C   UNL     1       5.511   6.581  16.142  0.00  0.00    +0.000 C 
ATOM     29  C   UNL     1       5.049   6.543  14.680  0.00  0.00    +0.000 C 
BRANCH  28  30
ATOM     30  C   UNL     1       6.606   5.519  16.389  0.00  0.00    +0.000 C 
BRANCH  30  31
ATOM     31  C   UNL     1       7.221   5.647  17.745  0.00  0.00    +0.000 A 
ATOM     32  N   UNL     1       7.344   4.681  18.631  0.00  0.00    +0.000 NA
ATOM     33  N   UNL     1       8.013   5.182  19.724  0.00  0.00    +0.000 NA
ATOM     34  C   UNL     1       8.278   6.443  19.484  0.00  0.00    +0.000 A 
ATOM     35  N   UNL     1       7.789   6.785  18.259  0.00  0.00    +0.000 N 
ATOM     36  C   UNL     1       7.875   8.088  17.656  0.00  0.00    +0.000 C 
ENDBRANCH  30  31
ENDBRANCH  28  30
ENDBRANCH   3  28
TORSDOF 6
ENDMDL
MODEL 5
REMARK VINA RESULT:      -9.1      1.822      2.532
REMARK  Name = 
REMARK  9 active torsions:
REMARK  status: ('A' for Active; 'I' for Inactive)
REMARK    1  A    between atoms: C_1  and  C_2
REMARK    2  A    between atoms: C_6  and  C_7
REMARK    3  A    between atoms: C_9  and  C_10
REMARK    4  A    between atoms: C_10  and  C_11
REMARK    5  A    between atoms: C_10  and  C_12
REMARK    6  A    between atoms: C_12  and  C_13
REMARK    7  A    between atoms: N_17  and  C_18
REMARK    8  A    between atoms: C_20  and  N_21
REMARK    9  A    between atoms: C_28  and  C_29
REMARK                            x       y       z     vdW  Elec       q    Type
REMARK                         _______ _______ _______ _____ _____    ______ ____
ROOT
ATOM      1  C   UNL     1       2.521   4.916  18.636  0.00  0.00    +0.000 A 
ATOM      2  C   UNL     1       3.595   4.931  17.765  0.00  0.00    +0.000 A 
ATOM      3  C   UNL     1       4.097   6.148  17.327  0.00  0.00    +0.000 A 
ATOM      4  C   UNL     1       3.478   7.311  17.791  0.00  0.00    +0.000 A 
ATOM      5  C   UNL     1       2.414   7.228  18.696  0.00  0.00    +0.000 A 
ATOM      6  N   UNL     1       1.951   6.035  19.124  0.00  0.00    +0.000 NA
ENDROOT
BRANCH   5   7
ATOM      7  N   UNL     1       1.815   8.408  19.181  0.00  0.00    +0.000 N 
ATOM      8  C   UNL     1       1.186   8.486  20.485  0.00  0.00    +0.000 C 
ATOM      9  C   UNL     1       0.656   9.879  20.535  0.00  0.00    +0.000 A 
ATOM     10  C   UNL     1       0.975  10.536  19.348  0.00  0.00    +0.000 A 
ATOM     11  C   UNL     1       0.590  11.838  19.095  0.00  0.00    +0.000 A 
ATOM     12  C   UNL     1      -0.149  12.493  20.080  0.00  0.00    +0.000 A 
ATOM     13  C   UNL     1      -0.472  11.843  21.287  0.00  0.00    +0.000 A 
ATOM     14  C   UNL     1      -0.066  10.520  21.540  0.00  0.00    +0.000 A 
ATOM     15  C   UNL     1       1.725   9.609  18.483  0.00  0.00    +0.000 C 
ATOM     16  O   UNL     1       2.127   9.938  17.382  0.00  0.00    +0.000 OA
BRANCH  14  17
ATOM     17  C   UNL     1      -0.413   9.854  22.846  0.00  0.00    +0.000 C 
ATOM     18  F   UNL     1       0.661   9.655  23.661  0.00  0.00    +0.000 F 
ATOM     19  F   UNL     1      -1.299  10.583  23.579  0.00  0.00    +0.000 F 
ATOM     20  F   UNL     1      -0.981   8.630  22.674  0.00  0.00    +0.000 F 
ENDBRANCH  14  17
ENDBRANCH   5   7
BRANCH   1  26
ATOM     21  C   UNL     1       2.290   3.595  21.654  0.00  0.00    +0.000 C 
ATOM     22  C   UNL     1       1.804   3.091  20.346  0.00  0.00    +0.000 A 
ATOM     23  C   UNL     1       1.131   1.872  20.103  0.00  0.00    +0.000 A 
ATOM     24  N   UNL     1       0.855   1.683  18.814  0.00  0.00    +0.000 NA
ATOM     25  N   UNL     1       1.412   2.752  18.212  0.00  0.00    +0.000 N 
ATOM     26  C   UNL     1       1.935   3.666  19.089  0.00  0.00    +0.000 A 
ATOM     27  H   UNL     1       1.395   2.821  17.197  0.00  0.00    +0.000 HD
ENDBRANCH   1  26
BRANCH   3  28
ATOM     28  C   UNL     1       5.299   6.218  16.403  0.00  0.00    +0.000 C 
ATOM     29  C   UNL     1       4.998   7.160  15.230  0.00  0.00    +0.000 C 
BRANCH  28  30
ATOM     30  C   UNL     1       5.724   4.826  15.881  0.00  0.00    +0.000 C 
BRANCH  30  31
ATOM     31  C   UNL     1       6.632   4.920  14.699  0.00  0.00    +0.000 A 
ATOM     32  N   UNL     1       7.785   5.556  14.660  0.00  0.00    +0.000 NA
ATOM     33  N   UNL     1       8.344   5.359  13.418  0.00  0.00    +0.000 NA
ATOM     34  C   UNL     1       7.517   4.614  12.725  0.00  0.00    +0.000 A 
ATOM     35  N   UNL     1       6.422   4.324  13.481  0.00  0.00    +0.000 N 
ATOM     36  C   UNL     1       5.293   3.540  13.056  0.00  0.00    +0.000 C 
ENDBRANCH  30  31
ENDBRANCH  28  30
ENDBRANCH   3  28
TORSDOF 6
ENDMDL
MODEL 6
REMARK VINA RESULT:      -9.0      1.226      1.575
REMARK  Name = 
REMARK  9 active torsions:
REMARK  status: ('A' for Active; 'I' for Inactive)
REMARK    1  A    between atoms: C_1  and  C_2
REMARK    2  A    between atoms: C_6  and  C_7
REMARK    3  A    between atoms: C_9  and  C_10
REMARK    4  A    between atoms: C_10  and  C_11
REMARK    5  A    between atoms: C_10  and  C_12
REMARK    6  A    between atoms: C_12  and  C_13
REMARK    7  A    between atoms: N_17  and  C_18
REMARK    8  A    between atoms: C_20  and  N_21
REMARK    9  A    between atoms: C_28  and  C_29
REMARK                            x       y       z     vdW  Elec       q    Type
REMARK                         _______ _______ _______ _____ _____    ______ ____
ROOT
ATOM      1  C   UNL     1       2.880   4.792  19.498  0.00  0.00    +0.000 A 
ATOM      2  C   UNL     1       3.646   4.637  18.357  0.00  0.00    +0.000 A 
ATOM      3  C   UNL     1       3.807   5.714  17.495  0.00  0.00    +0.000 A 
ATOM      4  C   UNL     1       3.172   6.913  17.829  0.00  0.00    +0.000 A 
ATOM      5  C   UNL     1       2.437   7.013  19.015  0.00  0.00    +0.000 A 
ATOM      6  N   UNL     1       2.306   5.960  19.848  0.00  0.00    +0.000 NA
ENDROOT
BRANCH   5   7
ATOM      7  N   UNL     1       1.825   8.236  19.356  0.00  0.00    +0.000 N 
ATOM      8  C   UNL     1       1.182   8.456  20.637  0.00  0.00    +0.000 C 
ATOM      9  C   UNL     1       0.641   9.841  20.524  0.00  0.00    +0.000 A 
ATOM     10  C   UNL     1       0.968  10.361  19.272  0.00  0.00    +0.000 A 
ATOM     11  C   UNL     1       0.576  11.623  18.869  0.00  0.00    +0.000 A 
ATOM     12  C   UNL     1      -0.178  12.380  19.766  0.00  0.00    +0.000 A 
ATOM     13  C   UNL     1      -0.508  11.869  21.037  0.00  0.00    +0.000 A 
ATOM     14  C   UNL     1      -0.095  10.587  21.443  0.00  0.00    +0.000 A 
ATOM     15  C   UNL     1       1.733   9.349  18.526  0.00  0.00    +0.000 C 
ATOM     16  O   UNL     1       2.144   9.554  17.398  0.00  0.00    +0.000 OA
BRANCH  14  17
ATOM     17  C   UNL     1      -0.450  10.071  22.813  0.00  0.00    +0.000 C 
ATOM     18  F   UNL     1       0.632   9.843  23.609  0.00  0.00    +0.000 F 
ATOM     19  F   UNL     1      -1.238  10.940  23.504  0.00  0.00    +0.000 F 
ATOM     20  F   UNL     1      -1.133   8.896  22.768  0.00  0.00    +0.000 F 
ENDBRANCH  14  17
ENDBRANCH   5   7
BRANCH   1  26
ATOM     21  C   UNL     1       4.625   2.045  20.056  0.00  0.00    +0.000 C 
ATOM     22  C   UNL     1       3.370   2.528  20.681  0.00  0.00    +0.000 A 
ATOM     23  C   UNL     1       2.609   1.870  21.674  0.00  0.00    +0.000 A 
ATOM     24  N   UNL     1       1.507   2.541  22.008  0.00  0.00    +0.000 NA
ATOM     25  N   UNL     1       1.520   3.603  21.179  0.00  0.00    +0.000 N 
ATOM     26  C   UNL     1       2.651   3.684  20.407  0.00  0.00    +0.000 A 
ATOM     27  H   UNL     1       0.740   4.255  21.188  0.00  0.00    +0.000 HD
ENDBRANCH   1  26
BRANCH   3  28
ATOM     28  C   UNL     1       4.669   5.606  16.251  0.00  0.00    +0.000 C 
ATOM     29  C   UNL     1       5.083   4.145  16.031  0.00  0.00    +0.000 C 
BRANCH  28  30
ATOM     30  C   UNL     1       5.918   6.515  16.319  0.00  0.00    +0.000 C 
BRANCH  30  31
ATOM     31  C   UNL     1       6.783   6.199  17.495  0.00  0.00    +0.000 A 
ATOM     32  N   UNL     1       6.879   5.027  18.089  0.00  0.00    +0.000 NA
ATOM     33  N   UNL     1       7.819   5.128  19.089  0.00  0.00    +0.000 NA
ATOM     34  C   UNL     1       8.270   6.359  19.087  0.00  0.00    +0.000 A 
ATOM     35  N   UNL     1       7.640   7.073  18.113  0.00  0.00    +0.000 N 
ATOM     36  C   UNL     1       7.861   8.463  17.817  0.00  0.00    +0.000 C 
ENDBRANCH  30  31
ENDBRANCH  28  30
ENDBRANCH   3  28
TORSDOF 6
ENDMDL
MODEL 7
REMARK VINA RESULT:      -8.9      1.570      4.762
REMARK  Name = 
REMARK  9 active torsions:
REMARK  status: ('A' for Active; 'I' for Inactive)
REMARK    1  A    between atoms: C_1  and  C_2
REMARK    2  A    between atoms: C_6  and  C_7
REMARK    3  A    between atoms: C_9  and  C_10
REMARK    4  A    between atoms: C_10  and  C_11
REMARK    5  A    between atoms: C_10  and  C_12
REMARK    6  A    between atoms: C_12  and  C_13
REMARK    7  A    between atoms: N_17  and  C_18
REMARK    8  A    between atoms: C_20  and  N_21
REMARK    9  A    between atoms: C_28  and  C_29
REMARK                            x       y       z     vdW  Elec       q    Type
REMARK                         _______ _______ _______ _____ _____    ______ ____
ROOT
ATOM      1  C   UNL     1       4.795   5.804  18.595  0.00  0.00    +0.000 A 
ATOM      2  C   UNL     1       4.183   4.684  18.062  0.00  0.00    +0.000 A 
ATOM      3  C   UNL     1       2.804   4.672  17.906  0.00  0.00    +0.000 A 
ATOM      4  C   UNL     1       2.096   5.807  18.306  0.00  0.00    +0.000 A 
ATOM      5  C   UNL     1       2.778   6.921  18.809  0.00  0.00    +0.000 A 
ATOM      6  N   UNL     1       4.121   6.919  18.938  0.00  0.00    +0.000 NA
ENDROOT
BRANCH   5   7
ATOM      7  N   UNL     1       2.056   8.072  19.184  0.00  0.00    +0.000 N 
ATOM      8  C   UNL     1       1.417   8.206  20.478  0.00  0.00    +0.000 C 
ATOM      9  C   UNL     1       0.743   9.534  20.400  0.00  0.00    +0.000 A 
ATOM     10  C   UNL     1       0.996  10.106  19.154  0.00  0.00    +0.000 A 
ATOM     11  C   UNL     1       0.477  11.330  18.782  0.00  0.00    +0.000 A 
ATOM     12  C   UNL     1      -0.330  11.995  19.705  0.00  0.00    +0.000 A 
ATOM     13  C   UNL     1      -0.588  11.432  20.970  0.00  0.00    +0.000 A 
ATOM     14  C   UNL     1      -0.046  10.188  21.345  0.00  0.00    +0.000 A 
ATOM     15  C   UNL     1       1.843   9.185  18.376  0.00  0.00    +0.000 C 
ATOM     16  O   UNL     1       2.212   9.449  17.247  0.00  0.00    +0.000 OA
BRANCH  14  17
ATOM     17  C   UNL     1      -0.326   9.617  22.710  0.00  0.00    +0.000 C 
ATOM     18  F   UNL     1      -0.923   8.392  22.678  0.00  0.00    +0.000 F 
ATOM     19  F   UNL     1       0.809   9.453  23.444  0.00  0.00    +0.000 F 
ATOM     20  F   UNL     1      -1.145  10.410  23.451  0.00  0.00    +0.000 F 
ENDBRANCH  14  17
ENDBRANCH   5   7
BRANCH   1  26
ATOM     21  C   UNL     1       7.150   7.658  17.210  0.00  0.00    +0.000 C 
ATOM     22  C   UNL     1       7.242   6.623  18.267  0.00  0.00    +0.000 A 
ATOM     23  C   UNL     1       8.415   6.174  18.915  0.00  0.00    +0.000 A 
ATOM     24  N   UNL     1       8.179   5.204  19.797  0.00  0.00    +0.000 NA
ATOM     25  N   UNL     1       6.857   4.976  19.669  0.00  0.00    +0.000 N 
ATOM     26  C   UNL     1       6.229   5.846  18.815  0.00  0.00    +0.000 A 
ATOM     27  H   UNL     1       6.424   4.224  20.199  0.00  0.00    +0.000 HD
ENDBRANCH   1  26
BRANCH   3  28
ATOM     28  C   UNL     1       2.090   3.483  17.289  0.00  0.00    +0.000 C 
ATOM     29  C   UNL     1       0.601   3.804  17.115  0.00  0.00    +0.000 C 
BRANCH  28  30
ATOM     30  C   UNL     1       2.270   2.192  18.121  0.00  0.00    +0.000 C 
BRANCH  30  31
ATOM     31  C   UNL     1       2.103   2.437  19.585  0.00  0.00    +0.000 A 
ATOM     32  N   UNL     1       0.969   2.715  20.197  0.00  0.00    +0.000 NA
ATOM     33  N   UNL     1       1.221   2.811  21.546  0.00  0.00    +0.000 NA
ATOM     34  C   UNL     1       2.502   2.597  21.728  0.00  0.00    +0.000 A 
ATOM     35  N   UNL     1       3.100   2.370  20.525  0.00  0.00    +0.000 N 
ATOM     36  C   UNL     1       4.500   2.111  20.320  0.00  0.00    +0.000 C 
ENDBRANCH  30  31
ENDBRANCH  28  30
ENDBRANCH   3  28
TORSDOF 6
ENDMDL
MODEL 8
REMARK VINA RESULT:      -8.9      1.527      2.004
REMARK  Name = 
REMARK  9 active torsions:
REMARK  status: ('A' for Active; 'I' for Inactive)
REMARK    1  A    between atoms: C_1  and  C_2
REMARK    2  A    between atoms: C_6  and  C_7
REMARK    3  A    between atoms: C_9  and  C_10
REMARK    4  A    between atoms: C_10  and  C_11
REMARK    5  A    between atoms: C_10  and  C_12
REMARK    6  A    between atoms: C_12  and  C_13
REMARK    7  A    between atoms: N_17  and  C_18
REMARK    8  A    between atoms: C_20  and  N_21
REMARK    9  A    between atoms: C_28  and  C_29
REMARK                            x       y       z     vdW  Elec       q    Type
REMARK                         _______ _______ _______ _____ _____    ______ ____
ROOT
ATOM      1  C   UNL     1       3.900   4.557  18.941  0.00  0.00    +0.000 A 
ATOM      2  C   UNL     1       4.583   4.500  17.740  0.00  0.00    +0.000 A 
ATOM      3  C   UNL     1       4.517   5.578  16.869  0.00  0.00    +0.000 A 
ATOM      4  C   UNL     1       3.748   6.679  17.255  0.00  0.00    +0.000 A 
ATOM      5  C   UNL     1       3.107   6.687  18.499  0.00  0.00    +0.000 A 
ATOM      6  N   UNL     1       3.196   5.635  19.339  0.00  0.00    +0.000 NA
ENDROOT
BRANCH   5   7
ATOM      7  N   UNL     1       2.357   7.814  18.891  0.00  0.00    +0.000 N 
ATOM      8  C   UNL     1       1.721   7.915  20.190  0.00  0.00    +0.000 C 
ATOM      9  C   UNL     1       1.012   9.226  20.132  0.00  0.00    +0.000 A 
ATOM     10  C   UNL     1       1.244   9.819  18.892  0.00  0.00    +0.000 A 
ATOM     11  C   UNL     1       0.691  11.034  18.538  0.00  0.00    +0.000 A 
ATOM     12  C   UNL     1      -0.129  11.666  19.473  0.00  0.00    +0.000 A 
ATOM     13  C   UNL     1      -0.366  11.081  20.732  0.00  0.00    +0.000 A 
ATOM     14  C   UNL     1       0.211   9.847  21.088  0.00  0.00    +0.000 A 
ATOM     15  C   UNL     1       2.111   8.932  18.099  0.00  0.00    +0.000 C 
ATOM     16  O   UNL     1       2.467   9.219  16.971  0.00  0.00    +0.000 OA
BRANCH  14  17
ATOM     17  C   UNL     1      -0.047   9.251  22.447  0.00  0.00    +0.000 C 
ATOM     18  F   UNL     1      -0.730   8.073  22.407  0.00  0.00    +0.000 F 
ATOM     19  F   UNL     1       1.105   8.986  23.123  0.00  0.00    +0.000 F 
ATOM     20  F   UNL     1      -0.775  10.074  23.249  0.00  0.00    +0.000 F 
ENDBRANCH  14  17
ENDBRANCH   5   7
BRANCH   1  26
ATOM     21  C   UNL     1       1.610   3.480  21.063  0.00  0.00    +0.000 C 
ATOM     22  C   UNL     1       2.958   2.946  20.754  0.00  0.00    +0.000 A 
ATOM     23  C   UNL     1       3.585   1.827  21.349  0.00  0.00    +0.000 A 
ATOM     24  N   UNL     1       4.816   1.618  20.885  0.00  0.00    +0.000 NA
ATOM     25  N   UNL     1       5.013   2.646  20.037  0.00  0.00    +0.000 N 
ATOM     26  C   UNL     1       3.906   3.437  19.866  0.00  0.00    +0.000 A 
ATOM     27  H   UNL     1       5.917   2.758  19.586  0.00  0.00    +0.000 HD
ENDBRANCH   1  26
BRANCH   3  28
ATOM     28  C   UNL     1       5.280   5.580  15.557  0.00  0.00    +0.000 C 
ATOM     29  C   UNL     1       5.220   4.186  14.919  0.00  0.00    +0.000 C 
BRANCH  28  30
ATOM     30  C   UNL     1       6.749   6.030  15.731  0.00  0.00    +0.000 C 
BRANCH  30  31
ATOM     31  C   UNL     1       7.240   5.829  17.127  0.00  0.00    +0.000 A 
ATOM     32  N   UNL     1       7.451   4.667  17.711  0.00  0.00    +0.000 NA
ATOM     33  N   UNL     1       7.954   4.903  18.969  0.00  0.00    +0.000 NA
ATOM     34  C   UNL     1       8.033   6.202  19.129  0.00  0.00    +0.000 A 
ATOM     35  N   UNL     1       7.583   6.826  18.005  0.00  0.00    +0.000 N 
ATOM     36  C   UNL     1       7.504   8.249  17.810  0.00  0.00    +0.000 C 
ENDBRANCH  30  31
ENDBRANCH  28  30
ENDBRANCH   3  28
TORSDOF 6
ENDMDL
MODEL 9
REMARK VINA RESULT:      -8.9      1.011      1.459
REMARK  Name = 
REMARK  9 active torsions:
REMARK  status: ('A' for Active; 'I' for Inactive)
REMARK    1  A    between atoms: C_1  and  C_2
REMARK    2  A    between atoms: C_6  and  C_7
REMARK    3  A    between atoms: C_9  and  C_10
REMARK    4  A    between atoms: C_10  and  C_11
REMARK    5  A    between atoms: C_10  and  C_12
REMARK    6  A    between atoms: C_12  and  C_13
REMARK    7  A    between atoms: N_17  and  C_18
REMARK    8  A    between atoms: C_20  and  N_21
REMARK    9  A    between atoms: C_28  and  C_29
REMARK                            x       y       z     vdW  Elec       q    Type
REMARK                         _______ _______ _______ _____ _____    ______ ____
ROOT
ATOM      1  C   UNL     1       2.881   5.097  18.806  0.00  0.00    +0.000 A 
ATOM      2  C   UNL     1       3.911   5.177  17.887  0.00  0.00    +0.000 A 
ATOM      3  C   UNL     1       4.257   6.414  17.362  0.00  0.00    +0.000 A 
ATOM      4  C   UNL     1       3.533   7.528  17.792  0.00  0.00    +0.000 A 
ATOM      5  C   UNL     1       2.523   7.384  18.749  0.00  0.00    +0.000 A 
ATOM      6  N   UNL     1       2.211   6.174  19.260  0.00  0.00    +0.000 NA
ENDROOT
BRANCH   5   7
ATOM      7  N   UNL     1       1.817   8.519  19.197  0.00  0.00    +0.000 N 
ATOM      8  C   UNL     1       1.176   8.576  20.497  0.00  0.00    +0.000 C 
ATOM      9  C   UNL     1       0.523   9.917  20.505  0.00  0.00    +0.000 A 
ATOM     10  C   UNL     1       0.788  10.566  19.301  0.00  0.00    +0.000 A 
ATOM     11  C   UNL     1       0.289  11.820  19.009  0.00  0.00    +0.000 A 
ATOM     12  C   UNL     1      -0.512  12.434  19.973  0.00  0.00    +0.000 A 
ATOM     13  C   UNL     1      -0.782  11.792  21.197  0.00  0.00    +0.000 A 
ATOM     14  C   UNL     1      -0.260  10.519  21.489  0.00  0.00    +0.000 A 
ATOM     15  C   UNL     1       1.623   9.686  18.465  0.00  0.00    +0.000 C 
ATOM     16  O   UNL     1       2.000  10.019  17.356  0.00  0.00    +0.000 OA
BRANCH  14  17
ATOM     17  C   UNL     1      -0.553   9.862  22.813  0.00  0.00    +0.000 C 
ATOM     18  F   UNL     1       0.547   9.707  23.602  0.00  0.00    +0.000 F 
ATOM     19  F   UNL     1      -1.442  10.574  23.558  0.00  0.00    +0.000 F 
ATOM     20  F   UNL     1      -1.087   8.619  22.673  0.00  0.00    +0.000 F 
ENDBRANCH  14  17
ENDBRANCH   5   7
BRANCH   1  26
ATOM     21  C   UNL     1       2.614   2.118  17.406  0.00  0.00    +0.000 C 
ATOM     22  C   UNL     1       2.351   2.550  18.801  0.00  0.00    +0.000 A 
ATOM     23  C   UNL     1       1.884   1.745  19.865  0.00  0.00    +0.000 A 
ATOM     24  N   UNL     1       1.710   2.432  20.993  0.00  0.00    +0.000 NA
ATOM     25  N   UNL     1       1.998   3.699  20.639  0.00  0.00    +0.000 N 
ATOM     26  C   UNL     1       2.456   3.820  19.352  0.00  0.00    +0.000 A 
ATOM     27  H   UNL     1       1.881   4.447  21.317  0.00  0.00    +0.000 HD
ENDBRANCH   1  26
BRANCH   3  28
ATOM     28  C   UNL     1       5.406   6.560  16.380  0.00  0.00    +0.000 C 
ATOM     29  C   UNL     1       4.876   6.470  14.944  0.00  0.00    +0.000 C 
BRANCH  28  30
ATOM     30  C   UNL     1       6.516   5.509  16.612  0.00  0.00    +0.000 C 
BRANCH  30  31
ATOM     31  C   UNL     1       7.164   5.659  17.949  0.00  0.00    +0.000 A 
ATOM     32  N   UNL     1       7.242   4.728  18.878  0.00  0.00    +0.000 NA
ATOM     33  N   UNL     1       7.963   5.233  19.934  0.00  0.00    +0.000 NA
ATOM     34  C   UNL     1       8.303   6.463  19.632  0.00  0.00    +0.000 A 
ATOM     35  N   UNL     1       7.813   6.780  18.401  0.00  0.00    +0.000 N 
ATOM     36  C   UNL     1       7.970   8.046  17.736  0.00  0.00    +0.000 C 
ENDBRANCH  30  31
ENDBRANCH  28  30
ENDBRANCH   3  28
TORSDOF 6
ENDMDL
