MODEL 1
REMARK VINA RESULT:      -7.9      0.000      0.000
REMARK  Name = 
REMARK  7 active torsions:
REMARK  status: ('A' for Active; 'I' for Inactive)
REMARK    1  A    between atoms: C_1  and  C_2
REMARK    2  A    between atoms: C_2  and  S_3
REMARK    3  A    between atoms: C_2  and  C_10
REMARK    4  A    between atoms: S_3  and  C_4
REMARK    5  A    between atoms: N_8  and  C_9
REMARK    6  A    between atoms: C_14  and  N_15
REMARK    7  A    between atoms: C_21  and  C_22
REMARK                            x       y       z     vdW  Elec       q    Type
REMARK                         _______ _______ _______ _____ _____    ______ ____
ROOT
ATOM      1  C   UNL     1       4.300   5.584  17.139  0.00  0.00    +0.000 A 
ATOM      2  C   UNL     1       4.887   4.562  16.372  0.00  0.00    +0.000 A 
ATOM      3  C   UNL     1       6.210   4.660  15.944  0.00  0.00    +0.000 A 
ATOM      4  C   UNL     1       6.960   5.797  16.239  0.00  0.00    +0.000 A 
ATOM      5  C   UNL     1       6.391   6.853  16.942  0.00  0.00    +0.000 A 
ATOM      6  C   UNL     1       5.067   6.737  17.393  0.00  0.00    +0.000 A 
ENDROOT
BRANCH   5   7
ATOM      7  N   UNL     1       7.076   8.047  17.263  0.00  0.00    +0.000 N 
ATOM      8  C   UNL     1       8.039   8.220  18.226  0.00  0.00    +0.000 C 
ATOM      9  O   UNL     1       8.482   7.332  18.950  0.00  0.00    +0.000 OA
ATOM     10  N   UNL     1       8.528   9.507  18.340  0.00  0.00    +0.000 N 
ATOM     11  C   UNL     1       8.112  10.724  17.673  0.00  0.00    +0.000 C 
ATOM     12  C   UNL     1       9.351  11.600  17.755  0.00  0.00    +0.000 C 
ATOM     13  C   UNL     1       9.988  11.229  19.100  0.00  0.00    +0.000 C 
ATOM     14  C   UNL     1       9.532   9.794  19.352  0.00  0.00    +0.000 C 
ATOM     15  H   UNL     1       6.905   8.826  16.654  0.00  0.00    +0.000 HD
BRANCH  13  16
ATOM     16  C   UNL     1       9.562  12.157  20.221  0.00  0.00    +0.000 C 
ATOM     17  F   UNL     1       8.816  11.460  21.117  0.00  0.00    +0.000 F 
ATOM     18  F   UNL     1      10.640  12.624  20.897  0.00  0.00    +0.000 F 
ENDBRANCH  13  16
ENDBRANCH   5   7
BRANCH   1  20
ATOM     19  C   UNL     1       2.728   5.887  19.155  0.00  0.00    +0.000 C 
ATOM     20  C   UNL     1       2.900   5.366  17.720  0.00  0.00    +0.000 C 
BRANCH  20  21
ATOM     21  S   UNL     1       2.555   3.553  17.668  0.00  0.00    +0.000 S 
BRANCH  21  22
ATOM     22  C   UNL     1       2.154   3.185  19.298  0.00  0.00    +0.000 A 
ATOM     23  N   UNL     1       0.992   3.312  19.895  0.00  0.00    +0.000 NA
ATOM     24  N   UNL     1       1.162   2.952  21.217  0.00  0.00    +0.000 NA
ATOM     25  C   UNL     1       2.421   2.606  21.375  0.00  0.00    +0.000 A 
ATOM     26  N   UNL     1       3.077   2.721  20.189  0.00  0.00    +0.000 N 
ATOM     27  C   UNL     1       4.466   2.432  19.947  0.00  0.00    +0.000 C 
ENDBRANCH  21  22
ENDBRANCH  20  21
ENDBRANCH   1  20
TORSDOF 5
ENDMDL
MODEL 2
REMARK VINA RESULT:      -7.8      4.240      7.085
REMARK  Name = 
REMARK  7 active torsions:
REMARK  status: ('A' for Active; 'I' for Inactive)
REMARK    1  A    between atoms: C_1  and  C_2
REMARK    2  A    between atoms: C_2  and  S_3
REMARK    3  A    between atoms: C_2  and  C_10
REMARK    4  A    between atoms: S_3  and  C_4
REMARK    5  A    between atoms: N_8  and  C_9
REMARK    6  A    between atoms: C_14  and  N_15
REMARK    7  A    between atoms: C_21  and  C_22
REMARK                            x       y       z     vdW  Elec       q    Type
REMARK                         _______ _______ _______ _____ _____    ______ ____
ROOT
ATOM      1  C   UNL     1       4.431   4.713  16.665  0.00  0.00    +0.000 A 
ATOM      2  C   UNL     1       3.767   3.474  16.700  0.00  0.00    +0.000 A 
ATOM      3  C   UNL     1       2.529   3.345  17.327  0.00  0.00    +0.000 A 
ATOM      4  C   UNL     1       1.950   4.439  17.966  0.00  0.00    +0.000 A 
ATOM      5  C   UNL     1       2.608   5.664  18.004  0.00  0.00    +0.000 A 
ATOM      6  C   UNL     1       3.842   5.793  17.347  0.00  0.00    +0.000 A 
ENDROOT
BRANCH   5   7
ATOM      7  N   UNL     1       2.099   6.814  18.647  0.00  0.00    +0.000 N 
ATOM      8  C   UNL     1       1.999   7.034  20.000  0.00  0.00    +0.000 C 
ATOM      9  O   UNL     1       2.375   6.256  20.872  0.00  0.00    +0.000 OA
ATOM     10  N   UNL     1       1.441   8.246  20.355  0.00  0.00    +0.000 N 
ATOM     11  C   UNL     1       0.849   9.278  19.527  0.00  0.00    +0.000 C 
ATOM     12  C   UNL     1       0.981  10.524  20.387  0.00  0.00    +0.000 C 
ATOM     13  C   UNL     1       0.807  10.013  21.823  0.00  0.00    +0.000 C 
ATOM     14  C   UNL     1       1.268   8.558  21.765  0.00  0.00    +0.000 C 
ATOM     15  H   UNL     1       1.877   7.588  18.049  0.00  0.00    +0.000 HD
BRANCH  13  16
ATOM     16  C   UNL     1      -0.624  10.128  22.313  0.00  0.00    +0.000 C 
ATOM     17  F   UNL     1      -1.115   8.884  22.549  0.00  0.00    +0.000 F 
ATOM     18  F   UNL     1      -0.678  10.795  23.491  0.00  0.00    +0.000 F 
ENDBRANCH  13  16
ENDBRANCH   5   7
BRANCH   1  20
ATOM     19  C   UNL     1       5.804   3.857  14.662  0.00  0.00    +0.000 C 
ATOM     20  C   UNL     1       5.710   4.847  15.832  0.00  0.00    +0.000 C 
BRANCH  20  21
ATOM     21  S   UNL     1       7.141   4.604  16.974  0.00  0.00    +0.000 S 
BRANCH  21  22
ATOM     22  C   UNL     1       7.569   6.210  17.411  0.00  0.00    +0.000 A 
ATOM     23  N   UNL     1       7.616   7.273  16.643  0.00  0.00    +0.000 NA
ATOM     24  N   UNL     1       8.070   8.324  17.414  0.00  0.00    +0.000 NA
ATOM     25  C   UNL     1       8.272   7.865  18.629  0.00  0.00    +0.000 A 
ATOM     26  N   UNL     1       7.953   6.543  18.676  0.00  0.00    +0.000 N 
ATOM     27  C   UNL     1       8.034   5.684  19.827  0.00  0.00    +0.000 C 
ENDBRANCH  21  22
ENDBRANCH  20  21
ENDBRANCH   1  20
TORSDOF 5
ENDMDL
MODEL 3
REMARK VINA RESULT:      -7.7      0.784      1.369
REMARK  Name = 
REMARK  7 active torsions:
REMARK  status: ('A' for Active; 'I' for Inactive)
REMARK    1  A    between atoms: C_1  and  C_2
REMARK    2  A    between atoms: C_2  and  S_3
REMARK    3  A    between atoms: C_2  and  C_10
REMARK    4  A    between atoms: S_3  and  C_4
REMARK    5  A    between atoms: N_8  and  C_9
REMARK    6  A    between atoms: C_14  and  N_15
REMARK    7  A    between atoms: C_21  and  C_22
REMARK                            x       y       z     vdW  Elec       q    Type
REMARK                         _______ _______ _______ _____ _____    ______ ____
ROOT
ATOM      1  C   UNL     1       4.414   5.634  17.082  0.00  0.00    +0.000 A 
ATOM      2  C   UNL     1       5.006   4.646  16.277  0.00  0.00    +0.000 A 
ATOM      3  C   UNL     1       6.320   4.780  15.831  0.00  0.00    +0.000 A 
ATOM      4  C   UNL     1       7.054   5.921  16.148  0.00  0.00    +0.000 A 
ATOM      5  C   UNL     1       6.479   6.946  16.891  0.00  0.00    +0.000 A 
ATOM      6  C   UNL     1       5.163   6.792  17.359  0.00  0.00    +0.000 A 
ENDROOT
BRANCH   5   7
ATOM      7  N   UNL     1       7.147   8.142  17.236  0.00  0.00    +0.000 N 
ATOM      8  C   UNL     1       8.096   8.312  18.215  0.00  0.00    +0.000 C 
ATOM      9  O   UNL     1       8.538   7.419  18.932  0.00  0.00    +0.000 OA
ATOM     10  N   UNL     1       8.570   9.602  18.351  0.00  0.00    +0.000 N 
ATOM     11  C   UNL     1       8.151  10.824  17.696  0.00  0.00    +0.000 C 
ATOM     12  C   UNL     1       9.379  11.710  17.805  0.00  0.00    +0.000 C 
ATOM     13  C   UNL     1      10.003  11.328  19.154  0.00  0.00    +0.000 C 
ATOM     14  C   UNL     1       9.559   9.886  19.380  0.00  0.00    +0.000 C 
ATOM     15  H   UNL     1       6.975   8.928  16.636  0.00  0.00    +0.000 HD
BRANCH  13  16
ATOM     16  C   UNL     1       9.553  12.236  20.282  0.00  0.00    +0.000 C 
ATOM     17  F   UNL     1      10.490  12.223  21.265  0.00  0.00    +0.000 F 
ATOM     18  F   UNL     1       9.456  13.520  19.858  0.00  0.00    +0.000 F 
ENDBRANCH  13  16
ENDBRANCH   5   7
BRANCH   1  20
ATOM     19  C   UNL     1       2.862   5.869  19.123  0.00  0.00    +0.000 C 
ATOM     20  C   UNL     1       3.026   5.374  17.679  0.00  0.00    +0.000 C 
BRANCH  20  21
ATOM     21  S   UNL     1       2.724   3.554  17.602  0.00  0.00    +0.000 S 
BRANCH  21  22
ATOM     22  C   UNL     1       3.400   2.984  19.077  0.00  0.00    +0.000 A 
ATOM     23  N   UNL     1       4.661   2.753  19.354  0.00  0.00    +0.000 NA
ATOM     24  N   UNL     1       4.720   2.248  20.637  0.00  0.00    +0.000 NA
ATOM     25  C   UNL     1       3.491   2.203  21.102  0.00  0.00    +0.000 A 
ATOM     26  N   UNL     1       2.629   2.672  20.158  0.00  0.00    +0.000 N 
ATOM     27  C   UNL     1       1.201   2.787  20.285  0.00  0.00    +0.000 C 
ENDBRANCH  21  22
ENDBRANCH  20  21
ENDBRANCH   1  20
TORSDOF 5
ENDMDL
MODEL 4
REMARK VINA RESULT:      -7.6      6.192      8.348
REMARK  Name = 
REMARK  7 active torsions:
REMARK  status: ('A' for Active; 'I' for Inactive)
REMARK    1  A    between atoms: C_1  and  C_2
REMARK    2  A    between atoms: C_2  and  S_3
REMARK    3  A    between atoms: C_2  and  C_10
REMARK    4  A    between atoms: S_3  and  C_4
REMARK    5  A    between atoms: N_8  and  C_9
REMARK    6  A    between atoms: C_14  and  N_15
REMARK    7  A    between atoms: C_21  and  C_22
REMARK                            x       y       z     vdW  Elec       q    Type
REMARK                         _______ _______ _______ _____ _____    ______ ____
ROOT
ATOM      1  C   UNL     1       0.187  10.286  19.275  0.00  0.00    +0.000 A 
ATOM      2  C   UNL     1      -0.108   9.872  20.586  0.00  0.00    +0.000 A 
ATOM      3  C   UNL     1       0.572   8.803  21.168  0.00  0.00    +0.000 A 
ATOM      4  C   UNL     1       1.530   8.102  20.438  0.00  0.00    +0.000 A 
ATOM      5  C   UNL     1       1.803   8.446  19.118  0.00  0.00    +0.000 A 
ATOM      6  C   UNL     1       1.133   9.540  18.548  0.00  0.00    +0.000 A 
ENDROOT
BRANCH   5   7
ATOM      7  N   UNL     1       2.742   7.774  18.305  0.00  0.00    +0.000 N 
ATOM      8  C   UNL     1       2.891   6.416  18.154  0.00  0.00    +0.000 C 
ATOM      9  O   UNL     1       2.190   5.565  18.694  0.00  0.00    +0.000 OA
ATOM     10  N   UNL     1       3.910   6.031  17.306  0.00  0.00    +0.000 N 
ATOM     11  C   UNL     1       4.913   6.829  16.631  0.00  0.00    +0.000 C 
ATOM     12  C   UNL     1       5.312   5.954  15.454  0.00  0.00    +0.000 C 
ATOM     13  C   UNL     1       5.207   4.522  15.994  0.00  0.00    +0.000 C 
ATOM     14  C   UNL     1       4.162   4.612  17.104  0.00  0.00    +0.000 C 
ATOM     15  H   UNL     1       3.294   8.355  17.702  0.00  0.00    +0.000 HD
BRANCH  13  16
ATOM     16  C   UNL     1       6.531   3.997  16.514  0.00  0.00    +0.000 C 
ATOM     17  F   UNL     1       7.543   4.564  15.808  0.00  0.00    +0.000 F 
ATOM     18  F   UNL     1       6.717   4.352  17.808  0.00  0.00    +0.000 F 
ENDBRANCH  13  16
ENDBRANCH   5   7
BRANCH   1  20
ATOM     19  C   UNL     1      -0.059  12.841  19.472  0.00  0.00    +0.000 C 
ATOM     20  C   UNL     1      -0.470  11.560  18.733  0.00  0.00    +0.000 C 
BRANCH  20  21
ATOM     21  S   UNL     1      -2.299  11.330  18.847  0.00  0.00    +0.000 S 
BRANCH  21  22
ATOM     22  C   UNL     1      -2.734  10.865  17.251  0.00  0.00    +0.000 A 
ATOM     23  N   UNL     1      -1.996  10.253  16.355  0.00  0.00    +0.000 NA
ATOM     24  N   UNL     1      -2.746  10.143  15.201  0.00  0.00    +0.000 NA
ATOM     25  C   UNL     1      -3.921  10.682  15.440  0.00  0.00    +0.000 A 
ATOM     26  N   UNL     1      -3.963  11.135  16.723  0.00  0.00    +0.000 N 
ATOM     27  C   UNL     1      -5.075  11.782  17.366  0.00  0.00    +0.000 C 
ENDBRANCH  21  22
ENDBRANCH  20  21
ENDBRANCH   1  20
TORSDOF 5
ENDMDL
MODEL 5
REMARK VINA RESULT:      -7.6      4.907      7.485
REMARK  Name = 
REMARK  7 active torsions:
REMARK  status: ('A' for Active; 'I' for Inactive)
REMARK    1  A    between atoms: C_1  and  C_2
REMARK    2  A    between atoms: C_2  and  S_3
REMARK    3  A    between atoms: C_2  and  C_10
REMARK    4  A    between atoms: S_3  and  C_4
REMARK    5  A    between atoms: N_8  and  C_9
REMARK    6  A    between atoms: C_14  and  N_15
REMARK    7  A    between atoms: C_21  and  C_22
REMARK                            x       y       z     vdW  Elec       q    Type
REMARK                         _______ _______ _______ _____ _____    ______ ____
ROOT
ATOM      1  C   UNL     1       4.708   5.293  17.785  0.00  0.00    +0.000 A 
ATOM      2  C   UNL     1       4.565   3.938  18.131  0.00  0.00    +0.000 A 
ATOM      3  C   UNL     1       3.650   3.543  19.106  0.00  0.00    +0.000 A 
ATOM      4  C   UNL     1       2.890   4.495  19.782  0.00  0.00    +0.000 A 
ATOM      5  C   UNL     1       3.051   5.849  19.508  0.00  0.00    +0.000 A 
ATOM      6  C   UNL     1       3.956   6.239  18.506  0.00  0.00    +0.000 A 
ENDROOT
BRANCH   5   7
ATOM      7  N   UNL     1       2.336   6.877  20.162  0.00  0.00    +0.000 N 
ATOM      8  C   UNL     1       1.722   7.962  19.583  0.00  0.00    +0.000 C 
ATOM      9  O   UNL     1       1.676   8.186  18.377  0.00  0.00    +0.000 OA
ATOM     10  N   UNL     1       1.109   8.827  20.467  0.00  0.00    +0.000 N 
ATOM     11  C   UNL     1       1.099   8.827  21.916  0.00  0.00    +0.000 C 
ATOM     12  C   UNL     1      -0.164   9.604  22.249  0.00  0.00    +0.000 C 
ATOM     13  C   UNL     1      -0.268  10.653  21.136  0.00  0.00    +0.000 C 
ATOM     14  C   UNL     1       0.455  10.019  19.950  0.00  0.00    +0.000 C 
ATOM     15  H   UNL     1       2.182   6.746  21.144  0.00  0.00    +0.000 HD
BRANCH  13  16
ATOM     16  C   UNL     1       0.353  11.980  21.526  0.00  0.00    +0.000 C 
ATOM     17  F   UNL     1       0.267  12.839  20.477  0.00  0.00    +0.000 F 
ATOM     18  F   UNL     1      -0.328  12.550  22.549  0.00  0.00    +0.000 F 
ENDBRANCH  13  16
ENDBRANCH   5   7
BRANCH   1  20
ATOM     19  C   UNL     1       5.006   6.726  15.667  0.00  0.00    +0.000 C 
ATOM     20  C   UNL     1       5.608   5.668  16.603  0.00  0.00    +0.000 C 
BRANCH  20  21
ATOM     21  S   UNL     1       5.951   4.119  15.658  0.00  0.00    +0.000 S 
BRANCH  21  22
ATOM     22  C   UNL     1       6.919   4.668  14.347  0.00  0.00    +0.000 A 
ATOM     23  N   UNL     1       7.909   5.529  14.376  0.00  0.00    +0.000 NA
ATOM     24  N   UNL     1       8.345   5.706  13.079  0.00  0.00    +0.000 NA
ATOM     25  C   UNL     1       7.613   4.935  12.306  0.00  0.00    +0.000 A 
ATOM     26  N   UNL     1       6.713   4.251  13.065  0.00  0.00    +0.000 N 
ATOM     27  C   UNL     1       5.738   3.306  12.592  0.00  0.00    +0.000 C 
ENDBRANCH  21  22
ENDBRANCH  20  21
ENDBRANCH   1  20
TORSDOF 5
ENDMDL
MODEL 6
REMARK VINA RESULT:      -7.5      4.077      6.712
REMARK  Name = 
REMARK  7 active torsions:
REMARK  status: ('A' for Active; 'I' for Inactive)
REMARK    1  A    between atoms: C_1  and  C_2
REMARK    2  A    between atoms: C_2  and  S_3
REMARK    3  A    between atoms: C_2  and  C_10
REMARK    4  A    between atoms: S_3  and  C_4
REMARK    5  A    between atoms: N_8  and  C_9
REMARK    6  A    between atoms: C_14  and  N_15
REMARK    7  A    between atoms: C_21  and  C_22
REMARK                            x       y       z     vdW  Elec       q    Type
REMARK                         _______ _______ _______ _____ _____    ______ ____
ROOT
ATOM      1  C   UNL     1       4.298   4.901  16.863  0.00  0.00    +0.000 A 
ATOM      2  C   UNL     1       3.701   3.640  17.036  0.00  0.00    +0.000 A 
ATOM      3  C   UNL     1       2.515   3.504  17.757  0.00  0.00    +0.000 A 
ATOM      4  C   UNL     1       1.925   4.617  18.352  0.00  0.00    +0.000 A 
ATOM      5  C   UNL     1       2.521   5.869  18.252  0.00  0.00    +0.000 A 
ATOM      6  C   UNL     1       3.701   6.003  17.503  0.00  0.00    +0.000 A 
ENDROOT
BRANCH   5   7
ATOM      7  N   UNL     1       1.999   7.042  18.843  0.00  0.00    +0.000 N 
ATOM      8  C   UNL     1       1.958   8.301  18.295  0.00  0.00    +0.000 C 
ATOM      9  O   UNL     1       2.352   8.595  17.170  0.00  0.00    +0.000 OA
ATOM     10  N   UNL     1       1.407   9.273  19.107  0.00  0.00    +0.000 N 
ATOM     11  C   UNL     1       0.960   9.196  20.482  0.00  0.00    +0.000 C 
ATOM     12  C   UNL     1      -0.036  10.338  20.584  0.00  0.00    +0.000 C 
ATOM     13  C   UNL     1       0.533  11.420  19.658  0.00  0.00    +0.000 C 
ATOM     14  C   UNL     1       1.345  10.644  18.624  0.00  0.00    +0.000 C 
ATOM     15  H   UNL     1       1.523   6.916  19.716  0.00  0.00    +0.000 HD
BRANCH  13  16
ATOM     16  C   UNL     1       1.388  12.430  20.398  0.00  0.00    +0.000 C 
ATOM     17  F   UNL     1       1.477  13.566  19.660  0.00  0.00    +0.000 F 
ATOM     18  F   UNL     1       0.812  12.778  21.575  0.00  0.00    +0.000 F 
ENDBRANCH  13  16
ENDBRANCH   5   7
BRANCH   1  20
ATOM     19  C   UNL     1       5.488   4.065  14.739  0.00  0.00    +0.000 C 
ATOM     20  C   UNL     1       5.510   5.028  15.935  0.00  0.00    +0.000 C 
BRANCH  20  21
ATOM     21  S   UNL     1       7.020   4.727  16.954  0.00  0.00    +0.000 S 
BRANCH  21  22
ATOM     22  C   UNL     1       7.482   6.308  17.444  0.00  0.00    +0.000 A 
ATOM     23  N   UNL     1       7.465   7.413  16.736  0.00  0.00    +0.000 NA
ATOM     24  N   UNL     1       7.981   8.421  17.525  0.00  0.00    +0.000 NA
ATOM     25  C   UNL     1       8.283   7.895  18.692  0.00  0.00    +0.000 A 
ATOM     26  N   UNL     1       7.970   6.571  18.690  0.00  0.00    +0.000 N 
ATOM     27  C   UNL     1       8.146   5.649  19.780  0.00  0.00    +0.000 C 
ENDBRANCH  21  22
ENDBRANCH  20  21
ENDBRANCH   1  20
TORSDOF 5
ENDMDL
MODEL 7
REMARK VINA RESULT:      -7.3      1.019      1.094
REMARK  Name = 
REMARK  7 active torsions:
REMARK  status: ('A' for Active; 'I' for Inactive)
REMARK    1  A    between atoms: C_1  and  C_2
REMARK    2  A    between atoms: C_2  and  S_3
REMARK    3  A    between atoms: C_2  and  C_10
REMARK    4  A    between atoms: S_3  and  C_4
REMARK    5  A    between atoms: N_8  and  C_9
REMARK    6  A    between atoms: C_14  and  N_15
REMARK    7  A    between atoms: C_21  and  C_22
REMARK                            x       y       z     vdW  Elec       q    Type
REMARK                         _______ _______ _______ _____ _____    ______ ____
ROOT
ATOM      1  C   UNL     1       4.608   4.904  17.070  0.00  0.00    +0.000 A 
ATOM      2  C   UNL     1       5.046   4.171  15.953  0.00  0.00    +0.000 A 
ATOM      3  C   UNL     1       6.172   4.569  15.235  0.00  0.00    +0.000 A 
ATOM      4  C   UNL     1       6.858   5.728  15.592  0.00  0.00    +0.000 A 
ATOM      5  C   UNL     1       6.415   6.511  16.653  0.00  0.00    +0.000 A 
ATOM      6  C   UNL     1       5.296   6.090  17.389  0.00  0.00    +0.000 A 
ENDROOT
BRANCH   5   7
ATOM      7  N   UNL     1       7.040   7.709  17.065  0.00  0.00    +0.000 N 
ATOM      8  C   UNL     1       7.937   7.869  18.094  0.00  0.00    +0.000 C 
ATOM      9  O   UNL     1       8.361   6.963  18.807  0.00  0.00    +0.000 OA
ATOM     10  N   UNL     1       8.377   9.162  18.290  0.00  0.00    +0.000 N 
ATOM     11  C   UNL     1       7.965  10.395  17.650  0.00  0.00    +0.000 C 
ATOM     12  C   UNL     1       9.168  11.301  17.846  0.00  0.00    +0.000 C 
ATOM     13  C   UNL     1       9.732  10.892  19.212  0.00  0.00    +0.000 C 
ATOM     14  C   UNL     1       9.307   9.435  19.375  0.00  0.00    +0.000 C 
ATOM     15  H   UNL     1       6.883   8.508  16.479  0.00  0.00    +0.000 HD
BRANCH  13  16
ATOM     16  C   UNL     1       9.208  11.758  20.342  0.00  0.00    +0.000 C 
ATOM     17  F   UNL     1      10.191  11.932  21.262  0.00  0.00    +0.000 F 
ATOM     18  F   UNL     1       8.879  12.992  19.890  0.00  0.00    +0.000 F 
ENDBRANCH  13  16
ENDBRANCH   5   7
BRANCH   1  20
ATOM     19  C   UNL     1       2.063   4.696  17.399  0.00  0.00    +0.000 C 
ATOM     20  C   UNL     1       3.464   4.347  17.923  0.00  0.00    +0.000 C 
BRANCH  20  21
ATOM     21  S   UNL     1       3.675   5.011  19.633  0.00  0.00    +0.000 S 
BRANCH  21  22
ATOM     22  C   UNL     1       2.782   3.902  20.596  0.00  0.00    +0.000 A 
ATOM     23  N   UNL     1       1.627   4.092  21.188  0.00  0.00    +0.000 NA
ATOM     24  N   UNL     1       1.329   2.946  21.897  0.00  0.00    +0.000 NA
ATOM     25  C   UNL     1       2.311   2.093  21.701  0.00  0.00    +0.000 A 
ATOM     26  N   UNL     1       3.239   2.647  20.875  0.00  0.00    +0.000 N 
ATOM     27  C   UNL     1       4.456   2.031  20.419  0.00  0.00    +0.000 C 
ENDBRANCH  21  22
ENDBRANCH  20  21
ENDBRANCH   1  20
TORSDOF 5
ENDMDL
MODEL 8
REMARK VINA RESULT:      -7.3      4.565      6.983
REMARK  Name = 
REMARK  7 active torsions:
REMARK  status: ('A' for Active; 'I' for Inactive)
REMARK    1  A    between atoms: C_1  and  C_2
REMARK    2  A    between atoms: C_2  and  S_3
REMARK    3  A    between atoms: C_2  and  C_10
REMARK    4  A    between atoms: S_3  and  C_4
REMARK    5  A    between atoms: N_8  and  C_9
REMARK    6  A    between atoms: C_14  and  N_15
REMARK    7  A    between atoms: C_21  and  C_22
REMARK                            x       y       z     vdW  Elec       q    Type
REMARK                         _______ _______ _______ _____ _____    ______ ____
ROOT
ATOM      1  C   UNL     1       4.413   5.030  16.854  0.00  0.00    +0.000 A 
ATOM      2  C   UNL     1       3.721   3.871  17.245  0.00  0.00    +0.000 A 
ATOM      3  C   UNL     1       2.516   3.958  17.940  0.00  0.00    +0.000 A 
ATOM      4  C   UNL     1       1.999   5.203  18.293  0.00  0.00    +0.000 A 
ATOM      5  C   UNL     1       2.689   6.369  17.976  0.00  0.00    +0.000 A 
ATOM      6  C   UNL     1       3.890   6.274  17.253  0.00  0.00    +0.000 A 
ENDROOT
BRANCH   5   7
ATOM      7  N   UNL     1       2.245   7.666  18.316  0.00  0.00    +0.000 N 
ATOM      8  C   UNL     1       1.782   8.094  19.537  0.00  0.00    +0.000 C 
ATOM      9  O   UNL     1       1.712   7.400  20.547  0.00  0.00    +0.000 OA
ATOM     10  N   UNL     1       1.392   9.417  19.583  0.00  0.00    +0.000 N 
ATOM     11  C   UNL     1       1.298  10.399  18.521  0.00  0.00    +0.000 C 
ATOM     12  C   UNL     1       1.403  11.719  19.266  0.00  0.00    +0.000 C 
ATOM     13  C   UNL     1       0.701  11.456  20.604  0.00  0.00    +0.000 C 
ATOM     14  C   UNL     1       0.861   9.954  20.826  0.00  0.00    +0.000 C 
ATOM     15  H   UNL     1       2.374   8.370  17.613  0.00  0.00    +0.000 HD
BRANCH  13  16
ATOM     16  C   UNL     1      -0.759  11.867  20.587  0.00  0.00    +0.000 C 
ATOM     17  F   UNL     1      -0.900  12.980  19.823  0.00  0.00    +0.000 F 
ATOM     18  F   UNL     1      -1.523  10.906  20.015  0.00  0.00    +0.000 F 
ENDBRANCH  13  16
ENDBRANCH   5   7
BRANCH   1  20
ATOM     19  C   UNL     1       5.567   3.735  14.952  0.00  0.00    +0.000 C 
ATOM     20  C   UNL     1       5.649   4.892  15.959  0.00  0.00    +0.000 C 
BRANCH  20  21
ATOM     21  S   UNL     1       7.109   4.657  17.064  0.00  0.00    +0.000 S 
BRANCH  21  22
ATOM     22  C   UNL     1       7.531   6.266  17.500  0.00  0.00    +0.000 A 
ATOM     23  N   UNL     1       7.499   7.343  16.752  0.00  0.00    +0.000 NA
ATOM     24  N   UNL     1       7.982   8.391  17.509  0.00  0.00    +0.000 NA
ATOM     25  C   UNL     1       8.279   7.916  18.699  0.00  0.00    +0.000 A 
ATOM     26  N   UNL     1       7.995   6.586  18.742  0.00  0.00    +0.000 N 
ATOM     27  C   UNL     1       8.176   5.708  19.868  0.00  0.00    +0.000 C 
ENDBRANCH  21  22
ENDBRANCH  20  21
ENDBRANCH   1  20
TORSDOF 5
ENDMDL
MODEL 9
REMARK VINA RESULT:      -7.3      5.361      7.280
REMARK  Name = 
REMARK  7 active torsions:
REMARK  status: ('A' for Active; 'I' for Inactive)
REMARK    1  A    between atoms: C_1  and  C_2
REMARK    2  A    between atoms: C_2  and  S_3
REMARK    3  A    between atoms: C_2  and  C_10
REMARK    4  A    between atoms: S_3  and  C_4
REMARK    5  A    between atoms: N_8  and  C_9
REMARK    6  A    between atoms: C_14  and  N_15
REMARK    7  A    between atoms: C_21  and  C_22
REMARK                            x       y       z     vdW  Elec       q    Type
REMARK                         _______ _______ _______ _____ _____    ______ ____
ROOT
ATOM      1  C   UNL     1       4.986   4.566  17.286  0.00  0.00    +0.000 A 
ATOM      2  C   UNL     1       4.185   3.414  17.370  0.00  0.00    +0.000 A 
ATOM      3  C   UNL     1       2.820   3.510  17.636  0.00  0.00    +0.000 A 
ATOM      4  C   UNL     1       2.237   4.756  17.864  0.00  0.00    +0.000 A 
ATOM      5  C   UNL     1       3.013   5.910  17.850  0.00  0.00    +0.000 A 
ATOM      6  C   UNL     1       4.382   5.808  17.555  0.00  0.00    +0.000 A 
ENDROOT
BRANCH   5   7
ATOM      7  N   UNL     1       2.504   7.206  18.092  0.00  0.00    +0.000 N 
ATOM      8  C   UNL     1       1.988   7.691  19.270  0.00  0.00    +0.000 C 
ATOM      9  O   UNL     1       1.921   7.062  20.323  0.00  0.00    +0.000 OA
ATOM     10  N   UNL     1       1.540   8.995  19.219  0.00  0.00    +0.000 N 
ATOM     11  C   UNL     1       1.433   9.901  18.093  0.00  0.00    +0.000 C 
ATOM     12  C   UNL     1       1.460  11.270  18.750  0.00  0.00    +0.000 C 
ATOM     13  C   UNL     1       0.734  11.063  20.085  0.00  0.00    +0.000 C 
ATOM     14  C   UNL     1       0.953   9.588  20.410  0.00  0.00    +0.000 C 
ATOM     15  H   UNL     1       2.621   7.868  17.348  0.00  0.00    +0.000 HD
BRANCH  13  16
ATOM     16  C   UNL     1      -0.741  11.406  20.005  0.00  0.00    +0.000 C 
ATOM     17  F   UNL     1      -1.411  10.364  19.448  0.00  0.00    +0.000 F 
ATOM     18  F   UNL     1      -1.263  11.583  21.243  0.00  0.00    +0.000 F 
ENDBRANCH  13  16
ENDBRANCH   5   7
BRANCH   1  20
ATOM     19  C   UNL     1       7.470   4.640  17.960  0.00  0.00    +0.000 C 
ATOM     20  C   UNL     1       6.445   4.426  16.837  0.00  0.00    +0.000 C 
BRANCH  20  21
ATOM     21  S   UNL     1       6.727   5.656  15.489  0.00  0.00    +0.000 S 
BRANCH  21  22
ATOM     22  C   UNL     1       6.547   4.717  14.060  0.00  0.00    +0.000 A 
ATOM     23  N   UNL     1       5.671   3.770  13.818  0.00  0.00    +0.000 NA
ATOM     24  N   UNL     1       5.946   3.259  12.565  0.00  0.00    +0.000 NA
ATOM     25  C   UNL     1       6.972   3.924  12.083  0.00  0.00    +0.000 A 
ATOM     26  N   UNL     1       7.372   4.862  12.983  0.00  0.00    +0.000 N 
ATOM     27  C   UNL     1       8.458   5.792  12.825  0.00  0.00    +0.000 C 
ENDBRANCH  21  22
ENDBRANCH  20  21
ENDBRANCH   1  20
TORSDOF 5
ENDMDL
