MODEL 1
REMARK VINA RESULT:     -10.2      0.000      0.000
REMARK  Name = 
REMARK  9 active torsions:
REMARK  status: ('A' for Active; 'I' for Inactive)
REMARK    1  A    between atoms: C_1  and  N_2
REMARK    2  A    between atoms: N_8  and  C_9
REMARK    3  A    between atoms: C_13  and  C_14
REMARK    4  A    between atoms: N_20  and  C_21
REMARK    5  A    between atoms: C_25  and  C_26
REMARK    6  A    between atoms: C_26  and  C_27
REMARK    7  A    between atoms: C_26  and  C_29
REMARK    8  A    between atoms: C_29  and  C_32
REMARK    9  A    between atoms: N_36  and  C_37
REMARK                            x       y       z     vdW  Elec       q    Type
REMARK                         _______ _______ _______ _____ _____    ______ ____
ROOT
ATOM      1  C   UNL     1       3.715   5.726  17.782  0.00  0.00    +0.000 A 
ATOM      2  C   UNL     1       3.248   7.039  17.919  0.00  0.00    +0.000 A 
ATOM      3  C   UNL     1       2.407   7.343  18.982  0.00  0.00    +0.000 A 
ATOM      4  C   UNL     1       2.023   6.424  19.945  0.00  0.00    +0.000 A 
ATOM      5  C   UNL     1       2.444   5.109  19.846  0.00  0.00    +0.000 A 
ATOM      6  C   UNL     1       3.287   4.787  18.758  0.00  0.00    +0.000 A 
ATOM      7  C   UNL     1       1.191   7.102  20.988  0.00  0.00    +0.000 C 
ATOM      8  N   UNL     1       1.074   8.470  20.483  0.00  0.00    +0.000 N 
ATOM      9  C   UNL     1       1.797   8.638  19.299  0.00  0.00    +0.000 C 
ATOM     10  O   UNL     1       1.955   9.612  18.592  0.00  0.00    +0.000 OA
ENDROOT
BRANCH   1  18
ATOM     11  C   UNL     1       6.175   3.963  13.730  0.00  0.00    +0.000 C 
ATOM     12  N   UNL     1       6.773   4.466  14.944  0.00  0.00    +0.000 NA
ATOM     13  C   UNL     1       6.392   3.745  16.167  0.00  0.00    +0.000 C 
ATOM     14  C   UNL     1       7.356   4.467  17.116  0.00  0.00    +0.000 C 
ATOM     15  C   UNL     1       7.407   5.915  16.593  0.00  0.00    +0.000 C 
ATOM     16  C   UNL     1       6.540   5.881  15.318  0.00  0.00    +0.000 C 
ATOM     17  C   UNL     1       5.073   6.274  15.733  0.00  0.00    +0.000 C 
ATOM     18  N   UNL     1       4.577   5.347  16.772  0.00  0.00    +0.000 N 
ATOM     19  C   UNL     1       4.886   3.932  16.524  0.00  0.00    +0.000 C 
ENDBRANCH   1  18
BRANCH   8  20
ATOM     20  C   UNL     1       0.308   9.459  21.152  0.00  0.00    +0.000 A 
ATOM     21  C   UNL     1       0.086   9.381  22.530  0.00  0.00    +0.000 A 
ATOM     22  C   UNL     1      -0.653  10.355  23.198  0.00  0.00    +0.000 A 
ATOM     23  C   UNL     1      -1.208  11.420  22.495  0.00  0.00    +0.000 A 
ATOM     24  C   UNL     1      -1.028  11.523  21.108  0.00  0.00    +0.000 A 
ATOM     25  C   UNL     1      -0.248  10.546  20.455  0.00  0.00    +0.000 A 
BRANCH  24  26
ATOM     26  C   UNL     1      -1.673  12.650  20.295  0.00  0.00    +0.000 C 
ATOM     27  C   UNL     1      -2.510  12.035  19.163  0.00  0.00    +0.000 C 
ATOM     28  F   UNL     1      -2.581  13.362  21.051  0.00  0.00    +0.000 F 
BRANCH  26  29
ATOM     29  C   UNL     1      -0.644  13.653  19.701  0.00  0.00    +0.000 C 
ATOM     30  F   UNL     1      -0.280  13.252  18.442  0.00  0.00    +0.000 F 
ATOM     31  F   UNL     1      -1.268  14.857  19.494  0.00  0.00    +0.000 F 
BRANCH  29  32
ATOM     32  C   UNL     1       0.578  13.885  20.530  0.00  0.00    +0.000 A 
ATOM     33  N   UNL     1       0.675  14.431  21.728  0.00  0.00    +0.000 NA
ATOM     34  N   UNL     1       2.001  14.456  22.088  0.00  0.00    +0.000 NA
ATOM     35  C   UNL     1       2.691  13.935  21.103  0.00  0.00    +0.000 A 
ATOM     36  N   UNL     1       1.844  13.563  20.104  0.00  0.00    +0.000 N 
ATOM     37  C   UNL     1       2.221  12.968  18.851  0.00  0.00    +0.000 C 
ENDBRANCH  29  32
ENDBRANCH  26  29
ENDBRANCH  24  26
ENDBRANCH   8  20
BRANCH   5  38
ATOM     38  C   UNL     1       2.053   4.040  20.828  0.00  0.00    +0.000 C 
ATOM     39  F   UNL     1       2.586   2.819  20.550  0.00  0.00    +0.000 F 
ATOM     40  F   UNL     1       2.449   4.336  22.097  0.00  0.00    +0.000 F 
ATOM     41  F   UNL     1       0.708   3.855  20.890  0.00  0.00    +0.000 F 
ENDBRANCH   5  38
TORSDOF 6
ENDMDL
MODEL 2
REMARK VINA RESULT:     -10.1      2.820      9.402
REMARK  Name = 
REMARK  9 active torsions:
REMARK  status: ('A' for Active; 'I' for Inactive)
REMARK    1  A    between atoms: C_1  and  N_2
REMARK    2  A    between atoms: N_8  and  C_9
REMARK    3  A    between atoms: C_13  and  C_14
REMARK    4  A    between atoms: N_20  and  C_21
REMARK    5  A    between atoms: C_25  and  C_26
REMARK    6  A    between atoms: C_26  and  C_27
REMARK    7  A    between atoms: C_26  and  C_29
REMARK    8  A    between atoms: C_29  and  C_32
REMARK    9  A    between atoms: N_36  and  C_37
REMARK                            x       y       z     vdW  Elec       q    Type
REMARK                         _______ _______ _______ _____ _____    ______ ____
ROOT
ATOM      1  C   UNL     1       0.665  12.025  19.779  0.00  0.00    +0.000 A 
ATOM      2  C   UNL     1       1.238  11.207  18.797  0.00  0.00    +0.000 A 
ATOM      3  C   UNL     1       1.461   9.868  19.088  0.00  0.00    +0.000 A 
ATOM      4  C   UNL     1       1.117   9.275  20.292  0.00  0.00    +0.000 A 
ATOM      5  C   UNL     1       0.562  10.044  21.301  0.00  0.00    +0.000 A 
ATOM      6  C   UNL     1       0.347  11.412  21.020  0.00  0.00    +0.000 A 
ATOM      7  C   UNL     1       1.414   7.809  20.237  0.00  0.00    +0.000 C 
ATOM      8  N   UNL     1       2.030   7.643  18.921  0.00  0.00    +0.000 N 
ATOM      9  C   UNL     1       2.058   8.850  18.217  0.00  0.00    +0.000 C 
ATOM     10  O   UNL     1       2.473   9.117  17.108  0.00  0.00    +0.000 OA
ENDROOT
BRANCH   1  18
ATOM     11  C   UNL     1      -0.239  16.725  18.147  0.00  0.00    +0.000 C 
ATOM     12  N   UNL     1       0.018  16.326  19.510  0.00  0.00    +0.000 NA
ATOM     13  C   UNL     1       1.314  15.668  19.728  0.00  0.00    +0.000 C 
ATOM     14  C   UNL     1       1.231  15.599  21.259  0.00  0.00    +0.000 C 
ATOM     15  C   UNL     1      -0.259  15.351  21.558  0.00  0.00    +0.000 C 
ATOM     16  C   UNL     1      -0.930  15.398  20.169  0.00  0.00    +0.000 C 
ATOM     17  C   UNL     1      -0.982  13.924  19.618  0.00  0.00    +0.000 C 
ATOM     18  N   UNL     1       0.383  13.359  19.562  0.00  0.00    +0.000 N 
ATOM     19  C   UNL     1       1.401  14.277  19.031  0.00  0.00    +0.000 C 
ENDBRANCH   1  18
BRANCH   8  20
ATOM     20  C   UNL     1       2.522   6.392  18.470  0.00  0.00    +0.000 A 
ATOM     21  C   UNL     1       1.915   5.198  18.871  0.00  0.00    +0.000 A 
ATOM     22  C   UNL     1       2.381   3.964  18.422  0.00  0.00    +0.000 A 
ATOM     23  C   UNL     1       3.484   3.897  17.577  0.00  0.00    +0.000 A 
ATOM     24  C   UNL     1       4.135   5.070  17.168  0.00  0.00    +0.000 A 
ATOM     25  C   UNL     1       3.627   6.311  17.606  0.00  0.00    +0.000 A 
BRANCH  24  26
ATOM     26  C   UNL     1       5.387   5.028  16.284  0.00  0.00    +0.000 C 
ATOM     27  C   UNL     1       5.315   3.794  15.372  0.00  0.00    +0.000 C 
ATOM     28  F   UNL     1       5.426   6.100  15.416  0.00  0.00    +0.000 F 
BRANCH  26  29
ATOM     29  C   UNL     1       6.715   5.008  17.091  0.00  0.00    +0.000 C 
ATOM     30  F   UNL     1       6.559   4.250  18.222  0.00  0.00    +0.000 F 
ATOM     31  F   UNL     1       7.662   4.328  16.368  0.00  0.00    +0.000 F 
BRANCH  29  32
ATOM     32  C   UNL     1       7.265   6.349  17.455  0.00  0.00    +0.000 A 
ATOM     33  N   UNL     1       7.255   7.467  16.752  0.00  0.00    +0.000 NA
ATOM     34  N   UNL     1       7.896   8.443  17.479  0.00  0.00    +0.000 NA
ATOM     35  C   UNL     1       8.292   7.904  18.606  0.00  0.00    +0.000 A 
ATOM     36  N   UNL     1       7.922   6.595  18.637  0.00  0.00    +0.000 N 
ATOM     37  C   UNL     1       8.189   5.663  19.699  0.00  0.00    +0.000 C 
ENDBRANCH  29  32
ENDBRANCH  26  29
ENDBRANCH  24  26
ENDBRANCH   8  20
BRANCH   5  38
ATOM     38  C   UNL     1       0.186   9.491  22.648  0.00  0.00    +0.000 C 
ATOM     39  F   UNL     1      -0.413  10.399  23.465  0.00  0.00    +0.000 F 
ATOM     40  F   UNL     1      -0.684   8.448  22.552  0.00  0.00    +0.000 F 
ATOM     41  F   UNL     1       1.259   9.020  23.337  0.00  0.00    +0.000 F 
ENDBRANCH   5  38
TORSDOF 6
ENDMDL
MODEL 3
REMARK VINA RESULT:     -10.1      1.868      3.041
REMARK  Name = 
REMARK  9 active torsions:
REMARK  status: ('A' for Active; 'I' for Inactive)
REMARK    1  A    between atoms: C_1  and  N_2
REMARK    2  A    between atoms: N_8  and  C_9
REMARK    3  A    between atoms: C_13  and  C_14
REMARK    4  A    between atoms: N_20  and  C_21
REMARK    5  A    between atoms: C_25  and  C_26
REMARK    6  A    between atoms: C_26  and  C_27
REMARK    7  A    between atoms: C_26  and  C_29
REMARK    8  A    between atoms: C_29  and  C_32
REMARK    9  A    between atoms: N_36  and  C_37
REMARK                            x       y       z     vdW  Elec       q    Type
REMARK                         _______ _______ _______ _____ _____    ______ ____
ROOT
ATOM      1  C   UNL     1       3.687   5.737  17.827  0.00  0.00    +0.000 A 
ATOM      2  C   UNL     1       3.223   7.048  17.990  0.00  0.00    +0.000 A 
ATOM      3  C   UNL     1       2.383   7.334  19.058  0.00  0.00    +0.000 A 
ATOM      4  C   UNL     1       1.996   6.398  20.004  0.00  0.00    +0.000 A 
ATOM      5  C   UNL     1       2.414   5.084  19.879  0.00  0.00    +0.000 A 
ATOM      6  C   UNL     1       3.256   4.781  18.785  0.00  0.00    +0.000 A 
ATOM      7  C   UNL     1       1.166   7.058  21.060  0.00  0.00    +0.000 C 
ATOM      8  N   UNL     1       1.054   8.435  20.581  0.00  0.00    +0.000 N 
ATOM      9  C   UNL     1       1.777   8.625  19.401  0.00  0.00    +0.000 C 
ATOM     10  O   UNL     1       1.936   9.612  18.713  0.00  0.00    +0.000 OA
ENDROOT
BRANCH   1  18
ATOM     11  C   UNL     1       6.142   4.040  13.746  0.00  0.00    +0.000 C 
ATOM     12  N   UNL     1       6.742   4.528  14.964  0.00  0.00    +0.000 NA
ATOM     13  C   UNL     1       6.366   3.789  16.178  0.00  0.00    +0.000 C 
ATOM     14  C   UNL     1       7.331   4.502  17.135  0.00  0.00    +0.000 C 
ATOM     15  C   UNL     1       7.375   5.956  16.632  0.00  0.00    +0.000 C 
ATOM     16  C   UNL     1       6.504   5.937  15.358  0.00  0.00    +0.000 C 
ATOM     17  C   UNL     1       5.037   6.319  15.782  0.00  0.00    +0.000 C 
ATOM     18  N   UNL     1       4.547   5.376  16.810  0.00  0.00    +0.000 N 
ATOM     19  C   UNL     1       4.861   3.965  16.541  0.00  0.00    +0.000 C 
ENDBRANCH   1  18
BRANCH   8  20
ATOM     20  C   UNL     1       0.290   9.413  21.269  0.00  0.00    +0.000 A 
ATOM     21  C   UNL     1      -0.042   9.244  22.616  0.00  0.00    +0.000 A 
ATOM     22  C   UNL     1      -0.779  10.206  23.305  0.00  0.00    +0.000 A 
ATOM     23  C   UNL     1      -1.222  11.351  22.651  0.00  0.00    +0.000 A 
ATOM     24  C   UNL     1      -0.929  11.548  21.293  0.00  0.00    +0.000 A 
ATOM     25  C   UNL     1      -0.153  10.580  20.623  0.00  0.00    +0.000 A 
BRANCH  24  26
ATOM     26  C   UNL     1      -1.450  12.770  20.528  0.00  0.00    +0.000 C 
ATOM     27  C   UNL     1      -1.064  14.043  21.296  0.00  0.00    +0.000 C 
ATOM     28  F   UNL     1      -0.827  12.901  19.304  0.00  0.00    +0.000 F 
BRANCH  26  29
ATOM     29  C   UNL     1      -2.986  12.745  20.291  0.00  0.00    +0.000 C 
ATOM     30  F   UNL     1      -3.618  12.250  21.402  0.00  0.00    +0.000 F 
ATOM     31  F   UNL     1      -3.441  14.036  20.203  0.00  0.00    +0.000 F 
BRANCH  29  32
ATOM     32  C   UNL     1      -3.436  11.997  19.078  0.00  0.00    +0.000 A 
ATOM     33  N   UNL     1      -2.705  11.416  18.145  0.00  0.00    +0.000 NA
ATOM     34  N   UNL     1      -3.550  10.866  17.210  0.00  0.00    +0.000 NA
ATOM     35  C   UNL     1      -4.779  11.127  17.583  0.00  0.00    +0.000 A 
ATOM     36  N   UNL     1      -4.759  11.833  18.746  0.00  0.00    +0.000 N 
ATOM     37  C   UNL     1      -5.907  12.319  19.463  0.00  0.00    +0.000 C 
ENDBRANCH  29  32
ENDBRANCH  26  29
ENDBRANCH  24  26
ENDBRANCH   8  20
BRANCH   5  38
ATOM     38  C   UNL     1       2.020   3.997  20.841  0.00  0.00    +0.000 C 
ATOM     39  F   UNL     1       2.397   4.239  22.126  0.00  0.00    +0.000 F 
ATOM     40  F   UNL     1       0.672   3.807  20.880  0.00  0.00    +0.000 F 
ATOM     41  F   UNL     1       2.558   2.792  20.515  0.00  0.00    +0.000 F 
ENDBRANCH   5  38
TORSDOF 6
ENDMDL
MODEL 4
REMARK VINA RESULT:     -10.0      0.667      1.012
REMARK  Name = 
REMARK  9 active torsions:
REMARK  status: ('A' for Active; 'I' for Inactive)
REMARK    1  A    between atoms: C_1  and  N_2
REMARK    2  A    between atoms: N_8  and  C_9
REMARK    3  A    between atoms: C_13  and  C_14
REMARK    4  A    between atoms: N_20  and  C_21
REMARK    5  A    between atoms: C_25  and  C_26
REMARK    6  A    between atoms: C_26  and  C_27
REMARK    7  A    between atoms: C_26  and  C_29
REMARK    8  A    between atoms: C_29  and  C_32
REMARK    9  A    between atoms: N_36  and  C_37
REMARK                            x       y       z     vdW  Elec       q    Type
REMARK                         _______ _______ _______ _____ _____    ______ ____
ROOT
ATOM      1  C   UNL     1       3.702   5.709  17.813  0.00  0.00    +0.000 A 
ATOM      2  C   UNL     1       3.237   7.021  17.965  0.00  0.00    +0.000 A 
ATOM      3  C   UNL     1       2.396   7.315  19.030  0.00  0.00    +0.000 A 
ATOM      4  C   UNL     1       2.009   6.386  19.983  0.00  0.00    +0.000 A 
ATOM      5  C   UNL     1       2.428   5.071  19.869  0.00  0.00    +0.000 A 
ATOM      6  C   UNL     1       3.271   4.760  18.778  0.00  0.00    +0.000 A 
ATOM      7  C   UNL     1       1.177   7.054  21.033  0.00  0.00    +0.000 C 
ATOM      8  N   UNL     1       1.064   8.428  20.543  0.00  0.00    +0.000 N 
ATOM      9  C   UNL     1       1.788   8.608  19.361  0.00  0.00    +0.000 C 
ATOM     10  O   UNL     1       1.948   9.590  18.666  0.00  0.00    +0.000 OA
ENDROOT
BRANCH   1  18
ATOM     11  C   UNL     1       6.163   3.982  13.747  0.00  0.00    +0.000 C 
ATOM     12  N   UNL     1       6.761   4.480  14.963  0.00  0.00    +0.000 NA
ATOM     13  C   UNL     1       6.384   3.750  16.182  0.00  0.00    +0.000 C 
ATOM     14  C   UNL     1       7.347   4.471  17.134  0.00  0.00    +0.000 C 
ATOM     15  C   UNL     1       7.391   5.921  16.620  0.00  0.00    +0.000 C 
ATOM     16  C   UNL     1       6.522   5.891  15.346  0.00  0.00    +0.000 C 
ATOM     17  C   UNL     1       5.054   6.276  15.765  0.00  0.00    +0.000 C 
ATOM     18  N   UNL     1       4.563   5.340  16.800  0.00  0.00    +0.000 N 
ATOM     19  C   UNL     1       4.879   3.928  16.542  0.00  0.00    +0.000 C 
ENDBRANCH   1  18
BRANCH   8  20
ATOM     20  C   UNL     1       0.299   9.410  21.222  0.00  0.00    +0.000 A 
ATOM     21  C   UNL     1      -0.030   9.254  22.572  0.00  0.00    +0.000 A 
ATOM     22  C   UNL     1      -0.768  10.221  23.252  0.00  0.00    +0.000 A 
ATOM     23  C   UNL     1      -1.215  11.358  22.587  0.00  0.00    +0.000 A 
ATOM     24  C   UNL     1      -0.926  11.542  21.227  0.00  0.00    +0.000 A 
ATOM     25  C   UNL     1      -0.148  10.570  20.565  0.00  0.00    +0.000 A 
BRANCH  24  26
ATOM     26  C   UNL     1      -1.451  12.755  20.450  0.00  0.00    +0.000 C 
ATOM     27  C   UNL     1      -2.396  12.267  19.342  0.00  0.00    +0.000 C 
ATOM     28  F   UNL     1      -2.237  13.562  21.246  0.00  0.00    +0.000 F 
BRANCH  26  29
ATOM     29  C   UNL     1      -0.325  13.630  19.833  0.00  0.00    +0.000 C 
ATOM     30  F   UNL     1       0.362  12.907  18.893  0.00  0.00    +0.000 F 
ATOM     31  F   UNL     1      -0.899  14.645  19.110  0.00  0.00    +0.000 F 
BRANCH  29  32
ATOM     32  C   UNL     1       0.634  14.226  20.811  0.00  0.00    +0.000 A 
ATOM     33  N   UNL     1       1.752  13.714  21.293  0.00  0.00    +0.000 NA
ATOM     34  N   UNL     1       2.295  14.611  22.181  0.00  0.00    +0.000 NA
ATOM     35  C   UNL     1       1.498  15.651  22.234  0.00  0.00    +0.000 A 
ATOM     36  N   UNL     1       0.444  15.456  21.394  0.00  0.00    +0.000 N 
ATOM     37  C   UNL     1      -0.652  16.363  21.185  0.00  0.00    +0.000 C 
ENDBRANCH  29  32
ENDBRANCH  26  29
ENDBRANCH  24  26
ENDBRANCH   8  20
BRANCH   5  38
ATOM     38  C   UNL     1       2.034   3.992  20.839  0.00  0.00    +0.000 C 
ATOM     39  F   UNL     1       2.560   2.772  20.544  0.00  0.00    +0.000 F 
ATOM     40  F   UNL     1       2.434   4.270  22.110  0.00  0.00    +0.000 F 
ATOM     41  F   UNL     1       0.688   3.813  20.901  0.00  0.00    +0.000 F 
ENDBRANCH   5  38
TORSDOF 6
ENDMDL
MODEL 5
REMARK VINA RESULT:     -10.0      0.779      1.082
REMARK  Name = 
REMARK  9 active torsions:
REMARK  status: ('A' for Active; 'I' for Inactive)
REMARK    1  A    between atoms: C_1  and  N_2
REMARK    2  A    between atoms: N_8  and  C_9
REMARK    3  A    between atoms: C_13  and  C_14
REMARK    4  A    between atoms: N_20  and  C_21
REMARK    5  A    between atoms: C_25  and  C_26
REMARK    6  A    between atoms: C_26  and  C_27
REMARK    7  A    between atoms: C_26  and  C_29
REMARK    8  A    between atoms: C_29  and  C_32
REMARK    9  A    between atoms: N_36  and  C_37
REMARK                            x       y       z     vdW  Elec       q    Type
REMARK                         _______ _______ _______ _____ _____    ______ ____
ROOT
ATOM      1  C   UNL     1       3.700   5.765  17.828  0.00  0.00    +0.000 A 
ATOM      2  C   UNL     1       3.219   7.073  17.965  0.00  0.00    +0.000 A 
ATOM      3  C   UNL     1       2.369   7.366  19.023  0.00  0.00    +0.000 A 
ATOM      4  C   UNL     1       1.987   6.442  19.981  0.00  0.00    +0.000 A 
ATOM      5  C   UNL     1       2.422   5.131  19.881  0.00  0.00    +0.000 A 
ATOM      6  C   UNL     1       3.275   4.820  18.798  0.00  0.00    +0.000 A 
ATOM      7  C   UNL     1       1.142   7.109  21.021  0.00  0.00    +0.000 C 
ATOM      8  N   UNL     1       1.017   8.477  20.518  0.00  0.00    +0.000 N 
ATOM      9  C   UNL     1       1.746   8.655  19.339  0.00  0.00    +0.000 C 
ATOM     10  O   UNL     1       1.898   9.633  18.636  0.00  0.00    +0.000 OA
ENDROOT
BRANCH   1  18
ATOM     11  C   UNL     1       6.199   4.047  13.781  0.00  0.00    +0.000 C 
ATOM     12  N   UNL     1       6.785   4.534  15.007  0.00  0.00    +0.000 NA
ATOM     13  C   UNL     1       6.389   3.798  16.216  0.00  0.00    +0.000 C 
ATOM     14  C   UNL     1       7.346   4.507  17.185  0.00  0.00    +0.000 C 
ATOM     15  C   UNL     1       7.405   5.960  16.680  0.00  0.00    +0.000 C 
ATOM     16  C   UNL     1       6.551   5.944  15.396  0.00  0.00    +0.000 C 
ATOM     17  C   UNL     1       5.081   6.336  15.800  0.00  0.00    +0.000 C 
ATOM     18  N   UNL     1       4.572   5.397  16.822  0.00  0.00    +0.000 N 
ATOM     19  C   UNL     1       4.881   3.984  16.559  0.00  0.00    +0.000 C 
ENDBRANCH   1  18
BRANCH   8  20
ATOM     20  C   UNL     1       0.237   9.457  21.185  0.00  0.00    +0.000 A 
ATOM     21  C   UNL     1      -0.084   9.317  22.538  0.00  0.00    +0.000 A 
ATOM     22  C   UNL     1      -0.837  10.281  23.205  0.00  0.00    +0.000 A 
ATOM     23  C   UNL     1      -1.307  11.400  22.523  0.00  0.00    +0.000 A 
ATOM     24  C   UNL     1      -1.026  11.567  21.160  0.00  0.00    +0.000 A 
ATOM     25  C   UNL     1      -0.233  10.597  20.511  0.00  0.00    +0.000 A 
BRANCH  24  26
ATOM     26  C   UNL     1      -1.576  12.757  20.365  0.00  0.00    +0.000 C 
ATOM     27  C   UNL     1      -1.199  12.587  18.886  0.00  0.00    +0.000 C 
ATOM     28  F   UNL     1      -2.955  12.774  20.372  0.00  0.00    +0.000 F 
BRANCH  26  29
ATOM     29  C   UNL     1      -1.071  14.133  20.882  0.00  0.00    +0.000 C 
ATOM     30  F   UNL     1      -1.565  15.135  20.087  0.00  0.00    +0.000 F 
ATOM     31  F   UNL     1      -1.634  14.379  22.108  0.00  0.00    +0.000 F 
BRANCH  29  32
ATOM     32  C   UNL     1       0.412  14.269  21.001  0.00  0.00    +0.000 A 
ATOM     33  N   UNL     1       1.205  13.865  21.976  0.00  0.00    +0.000 NA
ATOM     34  N   UNL     1       2.495  14.225  21.666  0.00  0.00    +0.000 NA
ATOM     35  C   UNL     1       2.467  14.848  20.513  0.00  0.00    +0.000 A 
ATOM     36  N   UNL     1       1.186  14.902  20.058  0.00  0.00    +0.000 N 
ATOM     37  C   UNL     1       0.745  15.519  18.836  0.00  0.00    +0.000 C 
ENDBRANCH  29  32
ENDBRANCH  26  29
ENDBRANCH  24  26
ENDBRANCH   8  20
BRANCH   5  38
ATOM     38  C   UNL     1       2.034   4.055  20.859  0.00  0.00    +0.000 C 
ATOM     39  F   UNL     1       2.413   4.316  22.139  0.00  0.00    +0.000 F 
ATOM     40  F   UNL     1       0.687   3.861  20.904  0.00  0.00    +0.000 F 
ATOM     41  F   UNL     1       2.576   2.848  20.548  0.00  0.00    +0.000 F 
ENDBRANCH   5  38
TORSDOF 6
ENDMDL
MODEL 6
REMARK VINA RESULT:     -10.0      2.545      9.945
REMARK  Name = 
REMARK  9 active torsions:
REMARK  status: ('A' for Active; 'I' for Inactive)
REMARK    1  A    between atoms: C_1  and  N_2
REMARK    2  A    between atoms: N_8  and  C_9
REMARK    3  A    between atoms: C_13  and  C_14
REMARK    4  A    between atoms: N_20  and  C_21
REMARK    5  A    between atoms: C_25  and  C_26
REMARK    6  A    between atoms: C_26  and  C_27
REMARK    7  A    between atoms: C_26  and  C_29
REMARK    8  A    between atoms: C_29  and  C_32
REMARK    9  A    between atoms: N_36  and  C_37
REMARK                            x       y       z     vdW  Elec       q    Type
REMARK                         _______ _______ _______ _____ _____    ______ ____
ROOT
ATOM      1  C   UNL     1       0.552  12.050  19.826  0.00  0.00    +0.000 A 
ATOM      2  C   UNL     1       1.161  11.233  18.866  0.00  0.00    +0.000 A 
ATOM      3  C   UNL     1       1.400   9.901  19.175  0.00  0.00    +0.000 A 
ATOM      4  C   UNL     1       1.039   9.314  20.378  0.00  0.00    +0.000 A 
ATOM      5  C   UNL     1       0.449  10.083  21.366  0.00  0.00    +0.000 A 
ATOM      6  C   UNL     1       0.217  11.444  21.066  0.00  0.00    +0.000 A 
ATOM      7  C   UNL     1       1.362   7.852  20.345  0.00  0.00    +0.000 C 
ATOM      8  N   UNL     1       2.010   7.685  19.045  0.00  0.00    +0.000 N 
ATOM      9  C   UNL     1       2.034   8.885  18.329  0.00  0.00    +0.000 C 
ATOM     10  O   UNL     1       2.469   9.147  17.226  0.00  0.00    +0.000 OA
ENDROOT
BRANCH   1  18
ATOM     11  C   UNL     1      -0.412  16.714  18.124  0.00  0.00    +0.000 C 
ATOM     12  N   UNL     1      -0.153  16.338  19.494  0.00  0.00    +0.000 NA
ATOM     13  C   UNL     1       1.152  15.701  19.724  0.00  0.00    +0.000 C 
ATOM     14  C   UNL     1       1.067  15.653  21.255  0.00  0.00    +0.000 C 
ATOM     15  C   UNL     1      -0.420  15.390  21.555  0.00  0.00    +0.000 C 
ATOM     16  C   UNL     1      -1.089  15.407  20.165  0.00  0.00    +0.000 C 
ATOM     17  C   UNL     1      -1.120  13.925  19.636  0.00  0.00    +0.000 C 
ATOM     18  N   UNL     1       0.253  13.377  19.589  0.00  0.00    +0.000 N 
ATOM     19  C   UNL     1       1.259  14.301  19.047  0.00  0.00    +0.000 C 
ENDBRANCH   1  18
BRANCH   8  20
ATOM     20  C   UNL     1       2.533   6.437  18.618  0.00  0.00    +0.000 A 
ATOM     21  C   UNL     1       1.828   5.251  18.840  0.00  0.00    +0.000 A 
ATOM     22  C   UNL     1       2.325   4.023  18.412  0.00  0.00    +0.000 A 
ATOM     23  C   UNL     1       3.558   3.951  17.769  0.00  0.00    +0.000 A 
ATOM     24  C   UNL     1       4.308   5.115  17.546  0.00  0.00    +0.000 A 
ATOM     25  C   UNL     1       3.771   6.353  17.957  0.00  0.00    +0.000 A 
BRANCH  24  26
ATOM     26  C   UNL     1       5.693   5.065  16.893  0.00  0.00    +0.000 C 
ATOM     27  C   UNL     1       6.189   6.501  16.661  0.00  0.00    +0.000 C 
ATOM     28  F   UNL     1       6.630   4.507  17.738  0.00  0.00    +0.000 F 
BRANCH  26  29
ATOM     29  C   UNL     1       5.720   4.278  15.553  0.00  0.00    +0.000 C 
ATOM     30  F   UNL     1       5.888   2.941  15.805  0.00  0.00    +0.000 F 
ATOM     31  F   UNL     1       4.478   4.348  14.974  0.00  0.00    +0.000 F 
BRANCH  29  32
ATOM     32  C   UNL     1       6.736   4.737  14.559  0.00  0.00    +0.000 A 
ATOM     33  N   UNL     1       7.754   5.559  14.735  0.00  0.00    +0.000 NA
ATOM     34  N   UNL     1       8.406   5.707  13.533  0.00  0.00    +0.000 NA
ATOM     35  C   UNL     1       7.772   4.981  12.645  0.00  0.00    +0.000 A 
ATOM     36  N   UNL     1       6.719   4.356  13.239  0.00  0.00    +0.000 N 
ATOM     37  C   UNL     1       5.776   3.485  12.592  0.00  0.00    +0.000 C 
ENDBRANCH  29  32
ENDBRANCH  26  29
ENDBRANCH  24  26
ENDBRANCH   8  20
BRANCH   5  38
ATOM     38  C   UNL     1       0.052   9.537  22.710  0.00  0.00    +0.000 C 
ATOM     39  F   UNL     1      -0.752   8.442  22.641  0.00  0.00    +0.000 F 
ATOM     40  F   UNL     1       1.130   9.158  23.451  0.00  0.00    +0.000 F 
ATOM     41  F   UNL     1      -0.620  10.446  23.465  0.00  0.00    +0.000 F 
ENDBRANCH   5  38
TORSDOF 6
ENDMDL
MODEL 7
REMARK VINA RESULT:      -9.9      1.367      1.931
REMARK  Name = 
REMARK  9 active torsions:
REMARK  status: ('A' for Active; 'I' for Inactive)
REMARK    1  A    between atoms: C_1  and  N_2
REMARK    2  A    between atoms: N_8  and  C_9
REMARK    3  A    between atoms: C_13  and  C_14
REMARK    4  A    between atoms: N_20  and  C_21
REMARK    5  A    between atoms: C_25  and  C_26
REMARK    6  A    between atoms: C_26  and  C_27
REMARK    7  A    between atoms: C_26  and  C_29
REMARK    8  A    between atoms: C_29  and  C_32
REMARK    9  A    between atoms: N_36  and  C_37
REMARK                            x       y       z     vdW  Elec       q    Type
REMARK                         _______ _______ _______ _____ _____    ______ ____
ROOT
ATOM      1  C   UNL     1       3.713   5.733  17.831  0.00  0.00    +0.000 A 
ATOM      2  C   UNL     1       3.229   7.039  17.980  0.00  0.00    +0.000 A 
ATOM      3  C   UNL     1       2.382   7.322  19.043  0.00  0.00    +0.000 A 
ATOM      4  C   UNL     1       2.006   6.389  19.996  0.00  0.00    +0.000 A 
ATOM      5  C   UNL     1       2.444   5.080  19.885  0.00  0.00    +0.000 A 
ATOM      6  C   UNL     1       3.294   4.779  18.796  0.00  0.00    +0.000 A 
ATOM      7  C   UNL     1       1.163   7.046  21.044  0.00  0.00    +0.000 C 
ATOM      8  N   UNL     1       1.031   8.417  20.551  0.00  0.00    +0.000 N 
ATOM      9  C   UNL     1       1.755   8.606  19.371  0.00  0.00    +0.000 C 
ATOM     10  O   UNL     1       1.902   9.590  18.675  0.00  0.00    +0.000 OA
ENDROOT
BRANCH   1  18
ATOM     11  C   UNL     1       6.201   4.054  13.761  0.00  0.00    +0.000 C 
ATOM     12  N   UNL     1       6.791   4.531  14.990  0.00  0.00    +0.000 NA
ATOM     13  C   UNL     1       6.399   3.784  16.194  0.00  0.00    +0.000 C 
ATOM     14  C   UNL     1       7.358   4.485  17.166  0.00  0.00    +0.000 C 
ATOM     15  C   UNL     1       7.414   5.943  16.674  0.00  0.00    +0.000 C 
ATOM     16  C   UNL     1       6.556   5.937  15.392  0.00  0.00    +0.000 C 
ATOM     17  C   UNL     1       5.086   6.323  15.804  0.00  0.00    +0.000 C 
ATOM     18  N   UNL     1       4.582   5.375  16.820  0.00  0.00    +0.000 N 
ATOM     19  C   UNL     1       4.891   3.965  16.543  0.00  0.00    +0.000 C 
ENDBRANCH   1  18
BRANCH   8  20
ATOM     20  C   UNL     1       0.251   9.390  21.228  0.00  0.00    +0.000 A 
ATOM     21  C   UNL     1      -0.006   9.276  22.597  0.00  0.00    +0.000 A 
ATOM     22  C   UNL     1      -0.758  10.234  23.273  0.00  0.00    +0.000 A 
ATOM     23  C   UNL     1      -1.293  11.319  22.586  0.00  0.00    +0.000 A 
ATOM     24  C   UNL     1      -1.078  11.459  21.207  0.00  0.00    +0.000 A 
ATOM     25  C   UNL     1      -0.284  10.498  20.547  0.00  0.00    +0.000 A 
BRANCH  24  26
ATOM     26  C   UNL     1      -1.699  12.611  20.409  0.00  0.00    +0.000 C 
ATOM     27  C   UNL     1      -2.008  12.123  18.986  0.00  0.00    +0.000 C 
ATOM     28  F   UNL     1      -2.926  12.977  20.924  0.00  0.00    +0.000 F 
BRANCH  26  29
ATOM     29  C   UNL     1      -0.801  13.878  20.348  0.00  0.00    +0.000 C 
ATOM     30  F   UNL     1       0.375  13.645  21.012  0.00  0.00    +0.000 F 
ATOM     31  F   UNL     1      -0.410  14.080  19.048  0.00  0.00    +0.000 F 
BRANCH  29  32
ATOM     32  C   UNL     1      -1.429  15.134  20.858  0.00  0.00    +0.000 A 
ATOM     33  N   UNL     1      -2.012  16.104  20.178  0.00  0.00    +0.000 NA
ATOM     34  N   UNL     1      -2.424  17.070  21.064  0.00  0.00    +0.000 NA
ATOM     35  C   UNL     1      -2.079  16.680  22.267  0.00  0.00    +0.000 A 
ATOM     36  N   UNL     1      -1.452  15.474  22.189  0.00  0.00    +0.000 N 
ATOM     37  C   UNL     1      -0.912  14.726  23.292  0.00  0.00    +0.000 C 
ENDBRANCH  29  32
ENDBRANCH  26  29
ENDBRANCH  24  26
ENDBRANCH   8  20
BRANCH   5  38
ATOM     38  C   UNL     1       2.063   3.996  20.855  0.00  0.00    +0.000 C 
ATOM     39  F   UNL     1       2.443   4.250  22.137  0.00  0.00    +0.000 F 
ATOM     40  F   UNL     1       0.717   3.796  20.902  0.00  0.00    +0.000 F 
ATOM     41  F   UNL     1       2.609   2.794  20.535  0.00  0.00    +0.000 F 
ENDBRANCH   5  38
TORSDOF 6
ENDMDL
MODEL 8
REMARK VINA RESULT:      -9.8      1.526      2.433
REMARK  Name = 
REMARK  9 active torsions:
REMARK  status: ('A' for Active; 'I' for Inactive)
REMARK    1  A    between atoms: C_1  and  N_2
REMARK    2  A    between atoms: N_8  and  C_9
REMARK    3  A    between atoms: C_13  and  C_14
REMARK    4  A    between atoms: N_20  and  C_21
REMARK    5  A    between atoms: C_25  and  C_26
REMARK    6  A    between atoms: C_26  and  C_27
REMARK    7  A    between atoms: C_26  and  C_29
REMARK    8  A    between atoms: C_29  and  C_32
REMARK    9  A    between atoms: N_36  and  C_37
REMARK                            x       y       z     vdW  Elec       q    Type
REMARK                         _______ _______ _______ _____ _____    ______ ____
ROOT
ATOM      1  C   UNL     1       3.677   5.781  17.736  0.00  0.00    +0.000 A 
ATOM      2  C   UNL     1       3.272   7.113  17.891  0.00  0.00    +0.000 A 
ATOM      3  C   UNL     1       2.468   7.446  18.972  0.00  0.00    +0.000 A 
ATOM      4  C   UNL     1       2.062   6.539  19.937  0.00  0.00    +0.000 A 
ATOM      5  C   UNL     1       2.422   5.207  19.821  0.00  0.00    +0.000 A 
ATOM      6  C   UNL     1       3.227   4.855  18.714  0.00  0.00    +0.000 A 
ATOM      7  C   UNL     1       1.282   7.246  21.002  0.00  0.00    +0.000 C 
ATOM      8  N   UNL     1       1.218   8.621  20.508  0.00  0.00    +0.000 N 
ATOM      9  C   UNL     1       1.924   8.765  19.310  0.00  0.00    +0.000 C 
ATOM     10  O   UNL     1       2.111   9.737  18.607  0.00  0.00    +0.000 OA
ENDROOT
BRANCH   1  18
ATOM     11  C   UNL     1       5.975   3.928  13.629  0.00  0.00    +0.000 C 
ATOM     12  N   UNL     1       6.620   4.413  14.827  0.00  0.00    +0.000 NA
ATOM     13  C   UNL     1       6.244   3.707  16.060  0.00  0.00    +0.000 C 
ATOM     14  C   UNL     1       7.256   4.397  16.984  0.00  0.00    +0.000 C 
ATOM     15  C   UNL     1       7.343   5.841  16.456  0.00  0.00    +0.000 C 
ATOM     16  C   UNL     1       6.444   5.835  15.202  0.00  0.00    +0.000 C 
ATOM     17  C   UNL     1       5.002   6.279  15.652  0.00  0.00    +0.000 C 
ATOM     18  N   UNL     1       4.500   5.371  16.706  0.00  0.00    +0.000 N 
ATOM     19  C   UNL     1       4.755   3.946  16.453  0.00  0.00    +0.000 C 
ENDBRANCH   1  18
BRANCH   8  20
ATOM     20  C   UNL     1       0.511   9.638  21.198  0.00  0.00    +0.000 A 
ATOM     21  C   UNL     1      -0.334   9.324  22.266  0.00  0.00    +0.000 A 
ATOM     22  C   UNL     1      -1.022  10.317  22.961  0.00  0.00    +0.000 A 
ATOM     23  C   UNL     1      -0.896  11.651  22.584  0.00  0.00    +0.000 A 
ATOM     24  C   UNL     1      -0.076  12.007  21.504  0.00  0.00    +0.000 A 
ATOM     25  C   UNL     1       0.639  10.991  20.836  0.00  0.00    +0.000 A 
BRANCH  24  26
ATOM     26  C   UNL     1       0.040  13.459  21.027  0.00  0.00    +0.000 C 
ATOM     27  C   UNL     1       0.159  14.379  22.251  0.00  0.00    +0.000 C 
ATOM     28  F   UNL     1       1.208  13.666  20.322  0.00  0.00    +0.000 F 
BRANCH  26  29
ATOM     29  C   UNL     1      -1.150  13.917  20.139  0.00  0.00    +0.000 C 
ATOM     30  F   UNL     1      -2.157  14.406  20.930  0.00  0.00    +0.000 F 
ATOM     31  F   UNL     1      -0.758  15.003  19.398  0.00  0.00    +0.000 F 
BRANCH  29  32
ATOM     32  C   UNL     1      -1.696  12.879  19.212  0.00  0.00    +0.000 A 
ATOM     33  N   UNL     1      -1.163  12.395  18.105  0.00  0.00    +0.000 NA
ATOM     34  N   UNL     1      -2.033  11.474  17.571  0.00  0.00    +0.000 NA
ATOM     35  C   UNL     1      -3.083  11.417  18.354  0.00  0.00    +0.000 A 
ATOM     36  N   UNL     1      -2.919  12.280  19.394  0.00  0.00    +0.000 N 
ATOM     37  C   UNL     1      -3.859  12.516  20.456  0.00  0.00    +0.000 C 
ENDBRANCH  29  32
ENDBRANCH  26  29
ENDBRANCH  24  26
ENDBRANCH   8  20
BRANCH   5  38
ATOM     38  C   UNL     1       2.002   4.149  20.804  0.00  0.00    +0.000 C 
ATOM     39  F   UNL     1       2.488   2.911  20.518  0.00  0.00    +0.000 F 
ATOM     40  F   UNL     1       2.421   4.427  22.070  0.00  0.00    +0.000 F 
ATOM     41  F   UNL     1       0.652   4.012  20.878  0.00  0.00    +0.000 F 
ENDBRANCH   5  38
TORSDOF 6
ENDMDL
MODEL 9
REMARK VINA RESULT:      -9.7      1.348      1.712
REMARK  Name = 
REMARK  9 active torsions:
REMARK  status: ('A' for Active; 'I' for Inactive)
REMARK    1  A    between atoms: C_1  and  N_2
REMARK    2  A    between atoms: N_8  and  C_9
REMARK    3  A    between atoms: C_13  and  C_14
REMARK    4  A    between atoms: N_20  and  C_21
REMARK    5  A    between atoms: C_25  and  C_26
REMARK    6  A    between atoms: C_26  and  C_27
REMARK    7  A    between atoms: C_26  and  C_29
REMARK    8  A    between atoms: C_29  and  C_32
REMARK    9  A    between atoms: N_36  and  C_37
REMARK                            x       y       z     vdW  Elec       q    Type
REMARK                         _______ _______ _______ _____ _____    ______ ____
ROOT
ATOM      1  C   UNL     1       3.705   5.762  17.812  0.00  0.00    +0.000 A 
ATOM      2  C   UNL     1       3.237   7.074  17.955  0.00  0.00    +0.000 A 
ATOM      3  C   UNL     1       2.396   7.372  19.019  0.00  0.00    +0.000 A 
ATOM      4  C   UNL     1       2.010   6.448  19.977  0.00  0.00    +0.000 A 
ATOM      5  C   UNL     1       2.432   5.134  19.871  0.00  0.00    +0.000 A 
ATOM      6  C   UNL     1       3.276   4.818  18.782  0.00  0.00    +0.000 A 
ATOM      7  C   UNL     1       1.177   7.121  21.023  0.00  0.00    +0.000 C 
ATOM      8  N   UNL     1       1.062   8.491  20.525  0.00  0.00    +0.000 N 
ATOM      9  C   UNL     1       1.786   8.666  19.342  0.00  0.00    +0.000 C 
ATOM     10  O   UNL     1       1.943   9.644  18.641  0.00  0.00    +0.000 OA
ENDROOT
BRANCH   1  18
ATOM     11  C   UNL     1       6.165   4.035  13.745  0.00  0.00    +0.000 C 
ATOM     12  N   UNL     1       6.763   4.509  14.970  0.00  0.00    +0.000 NA
ATOM     13  C   UNL     1       6.364   3.772  16.178  0.00  0.00    +0.000 C 
ATOM     14  C   UNL     1       7.332   4.464  17.146  0.00  0.00    +0.000 C 
ATOM     15  C   UNL     1       7.407   5.919  16.648  0.00  0.00    +0.000 C 
ATOM     16  C   UNL     1       6.546   5.920  15.367  0.00  0.00    +0.000 C 
ATOM     17  C   UNL     1       5.083   6.326  15.780  0.00  0.00    +0.000 C 
ATOM     18  N   UNL     1       4.567   5.389  16.801  0.00  0.00    +0.000 N 
ATOM     19  C   UNL     1       4.859   3.974  16.529  0.00  0.00    +0.000 C 
ENDBRANCH   1  18
BRANCH   8  20
ATOM     20  C   UNL     1       0.295   9.476  21.198  0.00  0.00    +0.000 A 
ATOM     21  C   UNL     1      -0.145   9.269  22.509  0.00  0.00    +0.000 A 
ATOM     22  C   UNL     1      -0.886  10.237  23.184  0.00  0.00    +0.000 A 
ATOM     23  C   UNL     1      -1.225  11.428  22.551  0.00  0.00    +0.000 A 
ATOM     24  C   UNL     1      -0.823  11.666  21.229  0.00  0.00    +0.000 A 
ATOM     25  C   UNL     1      -0.044  10.689  20.574  0.00  0.00    +0.000 A 
BRANCH  24  26
ATOM     26  C   UNL     1      -1.228  12.942  20.483  0.00  0.00    +0.000 C 
ATOM     27  C   UNL     1      -1.056  12.715  18.973  0.00  0.00    +0.000 C 
ATOM     28  F   UNL     1      -2.571  13.215  20.642  0.00  0.00    +0.000 F 
BRANCH  26  29
ATOM     29  C   UNL     1      -0.423  14.198  20.920  0.00  0.00    +0.000 C 
ATOM     30  F   UNL     1      -0.802  14.575  22.182  0.00  0.00    +0.000 F 
ATOM     31  F   UNL     1       0.896  13.850  21.064  0.00  0.00    +0.000 F 
BRANCH  29  32
ATOM     32  C   UNL     1      -0.508  15.369  19.995  0.00  0.00    +0.000 A 
ATOM     33  N   UNL     1      -1.478  16.256  19.870  0.00  0.00    +0.000 NA
ATOM     34  N   UNL     1      -1.131  17.142  18.878  0.00  0.00    +0.000 NA
ATOM     35  C   UNL     1       0.037  16.777  18.409  0.00  0.00    +0.000 A 
ATOM     36  N   UNL     1       0.467  15.671  19.076  0.00  0.00    +0.000 N 
ATOM     37  C   UNL     1       1.696  14.964  18.840  0.00  0.00    +0.000 C 
ENDBRANCH  29  32
ENDBRANCH  26  29
ENDBRANCH  24  26
ENDBRANCH   8  20
BRANCH   5  38
ATOM     38  C   UNL     1       2.040   4.059  20.847  0.00  0.00    +0.000 C 
ATOM     39  F   UNL     1       2.411   4.323  22.130  0.00  0.00    +0.000 F 
ATOM     40  F   UNL     1       0.693   3.864  20.884  0.00  0.00    +0.000 F 
ATOM     41  F   UNL     1       2.585   2.852  20.541  0.00  0.00    +0.000 F 
ENDBRANCH   5  38
TORSDOF 6
ENDMDL
