MODEL 1
REMARK VINA RESULT:     -10.0      0.000      0.000
REMARK  Name = 
REMARK  9 active torsions:
REMARK  status: ('A' for Active; 'I' for Inactive)
REMARK    1  A    between atoms: C_1  and  N_2
REMARK    2  A    between atoms: C_6  and  C_7
REMARK    3  A    between atoms: C_7  and  C_10
REMARK    4  A    between atoms: C_10  and  C_11
REMARK    5  A    between atoms: C_10  and  C_13
REMARK    6  A    between atoms: C_17  and  N_18
REMARK    7  A    between atoms: C_23  and  C_24
REMARK    8  A    between atoms: C_24  and  N_25
REMARK    9  A    between atoms: C_32  and  C_33
REMARK                            x       y       z     vdW  Elec       q    Type
REMARK                         _______ _______ _______ _____ _____    ______ ____
ROOT
ATOM      1  N   UNL     1       2.060   7.805  19.360  0.00  0.00    +0.000 N 
ATOM      2  C   UNL     1       1.437   8.142  20.608  0.00  0.00    +0.000 C 
ATOM      3  C   UNL     1       0.772   9.434  20.374  0.00  0.00    +0.000 A 
ATOM      4  C   UNL     1       1.071   9.927  19.109  0.00  0.00    +0.000 A 
ATOM      5  C   UNL     1       0.597  11.191  18.740  0.00  0.00    +0.000 A 
ATOM      6  C   UNL     1      -0.249  11.901  19.644  0.00  0.00    +0.000 A 
ATOM      7  C   UNL     1      -0.615  11.283  20.861  0.00  0.00    +0.000 A 
ATOM      8  C   UNL     1      -0.041  10.090  21.283  0.00  0.00    +0.000 A 
ATOM      9  C   UNL     1       1.916   8.858  18.429  0.00  0.00    +0.000 C 
ATOM     10  O   UNL     1       2.342   8.967  17.300  0.00  0.00    +0.000 OA
ENDROOT
BRANCH   1  15
ATOM     11  C   UNL     1       4.403   5.161  18.021  0.00  0.00    +0.000 A 
ATOM     12  C   UNL     1       4.130   4.104  18.886  0.00  0.00    +0.000 A 
ATOM     13  C   UNL     1       3.210   4.268  19.942  0.00  0.00    +0.000 A 
ATOM     14  C   UNL     1       2.505   5.475  20.134  0.00  0.00    +0.000 A 
ATOM     15  C   UNL     1       2.756   6.555  19.302  0.00  0.00    +0.000 A 
ATOM     16  C   UNL     1       3.752   6.380  18.297  0.00  0.00    +0.000 A 
BRANCH  11  17
ATOM     17  C   UNL     1       5.165   5.027  16.674  0.00  0.00    +0.000 C 
ATOM     18  C   UNL     1       4.555   3.795  15.980  0.00  0.00    +0.000 C 
ATOM     19  F   UNL     1       4.856   6.096  15.847  0.00  0.00    +0.000 F 
BRANCH  17  20
ATOM     20  C   UNL     1       6.730   4.977  16.751  0.00  0.00    +0.000 C 
ATOM     21  F   UNL     1       7.249   4.728  15.513  0.00  0.00    +0.000 F 
ATOM     22  F   UNL     1       7.102   3.905  17.517  0.00  0.00    +0.000 F 
BRANCH  20  28
ATOM     23  C   UNL     1       7.896   5.615  19.700  0.00  0.00    +0.000 C 
ATOM     24  N   UNL     1       7.769   6.504  18.576  0.00  0.00    +0.000 N 
ATOM     25  C   UNL     1       8.147   7.816  18.600  0.00  0.00    +0.000 A 
ATOM     26  N   UNL     1       8.063   8.321  17.396  0.00  0.00    +0.000 NA
ATOM     27  N   UNL     1       7.601   7.332  16.571  0.00  0.00    +0.000 NA
ATOM     28  C   UNL     1       7.343   6.250  17.291  0.00  0.00    +0.000 A 
ENDBRANCH  20  28
ENDBRANCH  17  20
ENDBRANCH  11  17
ENDBRANCH   1  15
BRANCH   8  29
ATOM     29  C   UNL     1      -0.292   9.577  22.674  0.00  0.00    +0.000 C 
ATOM     30  F   UNL     1      -1.069  10.402  23.434  0.00  0.00    +0.000 F 
ATOM     31  F   UNL     1      -0.938   8.379  22.674  0.00  0.00    +0.000 F 
ATOM     32  F   UNL     1       0.852   9.396  23.384  0.00  0.00    +0.000 F 
ENDBRANCH   8  29
BRANCH   6  33
ATOM     33  C   UNL     1      -0.821  13.302  19.359  0.00  0.00    +0.000 C 
BRANCH  33  34
ATOM     34  N   UNL     1       0.026  14.400  19.893  0.00  0.00    +0.000 NA
ATOM     35  C   UNL     1       1.114  13.955  20.778  0.00  0.00    +0.000 C 
ATOM     36  C   UNL     1       2.449  14.253  20.109  0.00  0.00    +0.000 C 
ATOM     37  C   UNL     1       2.101  14.830  18.758  0.00  0.00    +0.000 C 
ATOM     38  F   UNL     1       2.217  13.854  17.818  0.00  0.00    +0.000 F 
ATOM     39  C   UNL     1       0.645  15.250  18.867  0.00  0.00    +0.000 C 
ENDBRANCH  33  34
ENDBRANCH   6  33
TORSDOF 7
ENDMDL
MODEL 2
REMARK VINA RESULT:      -9.9      0.819      1.170
REMARK  Name = 
REMARK  9 active torsions:
REMARK  status: ('A' for Active; 'I' for Inactive)
REMARK    1  A    between atoms: C_1  and  N_2
REMARK    2  A    between atoms: C_6  and  C_7
REMARK    3  A    between atoms: C_7  and  C_10
REMARK    4  A    between atoms: C_10  and  C_11
REMARK    5  A    between atoms: C_10  and  C_13
REMARK    6  A    between atoms: C_17  and  N_18
REMARK    7  A    between atoms: C_23  and  C_24
REMARK    8  A    between atoms: C_24  and  N_25
REMARK    9  A    between atoms: C_32  and  C_33
REMARK                            x       y       z     vdW  Elec       q    Type
REMARK                         _______ _______ _______ _____ _____    ______ ____
ROOT
ATOM      1  N   UNL     1       1.967   7.845  19.455  0.00  0.00    +0.000 N 
ATOM      2  C   UNL     1       1.364   8.235  20.697  0.00  0.00    +0.000 C 
ATOM      3  C   UNL     1       0.740   9.541  20.433  0.00  0.00    +0.000 A 
ATOM      4  C   UNL     1       1.047   9.991  19.154  0.00  0.00    +0.000 A 
ATOM      5  C   UNL     1       0.613  11.259  18.755  0.00  0.00    +0.000 A 
ATOM      6  C   UNL     1      -0.204  12.020  19.644  0.00  0.00    +0.000 A 
ATOM      7  C   UNL     1      -0.582  11.447  20.880  0.00  0.00    +0.000 A 
ATOM      8  C   UNL     1      -0.044  10.247  21.329  0.00  0.00    +0.000 A 
ATOM      9  C   UNL     1       1.852   8.876  18.497  0.00  0.00    +0.000 C 
ATOM     10  O   UNL     1       2.274   8.942  17.363  0.00  0.00    +0.000 OA
ENDROOT
BRANCH   1  15
ATOM     11  C   UNL     1       4.246   5.107  18.195  0.00  0.00    +0.000 A 
ATOM     12  C   UNL     1       3.919   4.070  19.067  0.00  0.00    +0.000 A 
ATOM     13  C   UNL     1       2.984   4.278  20.101  0.00  0.00    +0.000 A 
ATOM     14  C   UNL     1       2.317   5.510  20.265  0.00  0.00    +0.000 A 
ATOM     15  C   UNL     1       2.622   6.571  19.426  0.00  0.00    +0.000 A 
ATOM     16  C   UNL     1       3.631   6.350  18.444  0.00  0.00    +0.000 A 
BRANCH  11  17
ATOM     17  C   UNL     1       5.030   4.931  16.866  0.00  0.00    +0.000 C 
ATOM     18  C   UNL     1       4.390   3.715  16.171  0.00  0.00    +0.000 C 
ATOM     19  F   UNL     1       4.779   6.002  16.022  0.00  0.00    +0.000 F 
BRANCH  17  20
ATOM     20  C   UNL     1       6.590   4.823  16.976  0.00  0.00    +0.000 C 
ATOM     21  F   UNL     1       7.114   4.407  15.787  0.00  0.00    +0.000 F 
ATOM     22  F   UNL     1       6.904   3.834  17.870  0.00  0.00    +0.000 F 
BRANCH  20  28
ATOM     23  C   UNL     1       7.943   5.675  19.789  0.00  0.00    +0.000 C 
ATOM     24  N   UNL     1       7.759   6.473  18.606  0.00  0.00    +0.000 N 
ATOM     25  C   UNL     1       8.157   7.775  18.501  0.00  0.00    +0.000 A 
ATOM     26  N   UNL     1       8.006   8.182  17.266  0.00  0.00    +0.000 NA
ATOM     27  N   UNL     1       7.481   7.139  16.553  0.00  0.00    +0.000 NA
ATOM     28  C   UNL     1       7.253   6.124  17.374  0.00  0.00    +0.000 A 
ENDBRANCH  20  28
ENDBRANCH  17  20
ENDBRANCH  11  17
ENDBRANCH   1  15
BRANCH   8  29
ATOM     29  C   UNL     1      -0.303   9.779  22.735  0.00  0.00    +0.000 C 
ATOM     30  F   UNL     1       0.832   9.537  23.452  0.00  0.00    +0.000 F 
ATOM     31  F   UNL     1      -0.998  10.694  23.464  0.00  0.00    +0.000 F 
ATOM     32  F   UNL     1      -1.018   8.625  22.783  0.00  0.00    +0.000 F 
ENDBRANCH   8  29
BRANCH   6  33
ATOM     33  C   UNL     1      -0.731  13.432  19.326  0.00  0.00    +0.000 C 
BRANCH  33  34
ATOM     34  N   UNL     1       0.039  14.511  19.998  0.00  0.00    +0.000 NA
ATOM     35  C   UNL     1       1.354  14.784  19.399  0.00  0.00    +0.000 C 
ATOM     36  C   UNL     1       1.344  16.185  18.801  0.00  0.00    +0.000 C 
ATOM     37  C   UNL     1      -0.060  16.700  19.011  0.00  0.00    +0.000 C 
ATOM     38  F   UNL     1      -0.762  16.553  17.856  0.00  0.00    +0.000 F 
ATOM     39  C   UNL     1      -0.659  15.801  20.079  0.00  0.00    +0.000 C 
ENDBRANCH  33  34
ENDBRANCH   6  33
TORSDOF 7
ENDMDL
MODEL 3
REMARK VINA RESULT:      -9.7      1.549      2.441
REMARK  Name = 
REMARK  9 active torsions:
REMARK  status: ('A' for Active; 'I' for Inactive)
REMARK    1  A    between atoms: C_1  and  N_2
REMARK    2  A    between atoms: C_6  and  C_7
REMARK    3  A    between atoms: C_7  and  C_10
REMARK    4  A    between atoms: C_10  and  C_11
REMARK    5  A    between atoms: C_10  and  C_13
REMARK    6  A    between atoms: C_17  and  N_18
REMARK    7  A    between atoms: C_23  and  C_24
REMARK    8  A    between atoms: C_24  and  N_25
REMARK    9  A    between atoms: C_32  and  C_33
REMARK                            x       y       z     vdW  Elec       q    Type
REMARK                         _______ _______ _______ _____ _____    ______ ____
ROOT
ATOM      1  N   UNL     1       2.016   7.669  19.531  0.00  0.00    +0.000 N 
ATOM      2  C   UNL     1       1.398   8.088  20.755  0.00  0.00    +0.000 C 
ATOM      3  C   UNL     1       0.796   9.398  20.458  0.00  0.00    +0.000 A 
ATOM      4  C   UNL     1       1.130   9.821  19.177  0.00  0.00    +0.000 A 
ATOM      5  C   UNL     1       0.720  11.088  18.749  0.00  0.00    +0.000 A 
ATOM      6  C   UNL     1      -0.102  11.875  19.611  0.00  0.00    +0.000 A 
ATOM      7  C   UNL     1      -0.508  11.328  20.850  0.00  0.00    +0.000 A 
ATOM      8  C   UNL     1       0.006  10.129  21.329  0.00  0.00    +0.000 A 
ATOM      9  C   UNL     1       1.931   8.685  18.553  0.00  0.00    +0.000 C 
ATOM     10  O   UNL     1       2.372   8.725  17.426  0.00  0.00    +0.000 OA
ENDROOT
BRANCH   1  15
ATOM     11  C   UNL     1       4.574   5.028  18.661  0.00  0.00    +0.000 A 
ATOM     12  C   UNL     1       4.007   3.904  19.260  0.00  0.00    +0.000 A 
ATOM     13  C   UNL     1       2.807   4.017  19.990  0.00  0.00    +0.000 A 
ATOM     14  C   UNL     1       2.117   5.242  20.105  0.00  0.00    +0.000 A 
ATOM     15  C   UNL     1       2.654   6.386  19.534  0.00  0.00    +0.000 A 
ATOM     16  C   UNL     1       3.910   6.252  18.873  0.00  0.00    +0.000 A 
BRANCH  11  17
ATOM     17  C   UNL     1       5.718   4.988  17.611  0.00  0.00    +0.000 C 
ATOM     18  C   UNL     1       6.199   6.444  17.474  0.00  0.00    +0.000 C 
ATOM     19  F   UNL     1       6.806   4.296  18.122  0.00  0.00    +0.000 F 
BRANCH  17  20
ATOM     20  C   UNL     1       5.387   4.318  16.233  0.00  0.00    +0.000 C 
ATOM     21  F   UNL     1       4.122   4.651  15.845  0.00  0.00    +0.000 F 
ATOM     22  F   UNL     1       5.366   2.959  16.394  0.00  0.00    +0.000 F 
BRANCH  20  28
ATOM     23  C   UNL     1       5.334   3.577  13.084  0.00  0.00    +0.000 C 
ATOM     24  N   UNL     1       6.332   4.311  13.814  0.00  0.00    +0.000 N 
ATOM     25  C   UNL     1       7.460   4.829  13.243  0.00  0.00    +0.000 A 
ATOM     26  N   UNL     1       8.089   5.577  14.113  0.00  0.00    +0.000 NA
ATOM     27  N   UNL     1       7.377   5.532  15.281  0.00  0.00    +0.000 NA
ATOM     28  C   UNL     1       6.353   4.703  15.134  0.00  0.00    +0.000 A 
ENDBRANCH  20  28
ENDBRANCH  17  20
ENDBRANCH  11  17
ENDBRANCH   1  15
BRANCH   8  29
ATOM     29  C   UNL     1      -0.282   9.689  22.738  0.00  0.00    +0.000 C 
ATOM     30  F   UNL     1      -1.031  10.580  23.450  0.00  0.00    +0.000 F 
ATOM     31  F   UNL     1      -0.979   8.521  22.781  0.00  0.00    +0.000 F 
ATOM     32  F   UNL     1       0.845   9.492  23.470  0.00  0.00    +0.000 F 
ENDBRANCH   8  29
BRANCH   6  33
ATOM     33  C   UNL     1      -0.604  13.287  19.260  0.00  0.00    +0.000 C 
BRANCH  33  34
ATOM     34  N   UNL     1       0.129  14.365  19.974  0.00  0.00    +0.000 NA
ATOM     35  C   UNL     1       1.453  14.676  19.413  0.00  0.00    +0.000 C 
ATOM     36  C   UNL     1       1.430  16.089  18.845  0.00  0.00    +0.000 C 
ATOM     37  C   UNL     1       0.012  16.574  19.032  0.00  0.00    +0.000 C 
ATOM     38  F   UNL     1      -0.659  16.439  17.857  0.00  0.00    +0.000 F 
ATOM     39  C   UNL     1      -0.595  15.641  20.065  0.00  0.00    +0.000 C 
ENDBRANCH  33  34
ENDBRANCH   6  33
TORSDOF 7
ENDMDL
MODEL 4
REMARK VINA RESULT:      -9.6      1.141      1.724
REMARK  Name = 
REMARK  9 active torsions:
REMARK  status: ('A' for Active; 'I' for Inactive)
REMARK    1  A    between atoms: C_1  and  N_2
REMARK    2  A    between atoms: C_6  and  C_7
REMARK    3  A    between atoms: C_7  and  C_10
REMARK    4  A    between atoms: C_10  and  C_11
REMARK    5  A    between atoms: C_10  and  C_13
REMARK    6  A    between atoms: C_17  and  N_18
REMARK    7  A    between atoms: C_23  and  C_24
REMARK    8  A    between atoms: C_24  and  N_25
REMARK    9  A    between atoms: C_32  and  C_33
REMARK                            x       y       z     vdW  Elec       q    Type
REMARK                         _______ _______ _______ _____ _____    ______ ____
ROOT
ATOM      1  N   UNL     1       2.039   7.928  19.180  0.00  0.00    +0.000 N 
ATOM      2  C   UNL     1       1.433   8.214  20.448  0.00  0.00    +0.000 C 
ATOM      3  C   UNL     1       0.767   9.515  20.277  0.00  0.00    +0.000 A 
ATOM      4  C   UNL     1       1.052  10.060  19.029  0.00  0.00    +0.000 A 
ATOM      5  C   UNL     1       0.576  11.338  18.720  0.00  0.00    +0.000 A 
ATOM      6  C   UNL     1      -0.258  12.012  19.663  0.00  0.00    +0.000 A 
ATOM      7  C   UNL     1      -0.610  11.344  20.858  0.00  0.00    +0.000 A 
ATOM      8  C   UNL     1      -0.032  10.134  21.223  0.00  0.00    +0.000 A 
ATOM      9  C   UNL     1       1.886   9.018  18.295  0.00  0.00    +0.000 C 
ATOM     10  O   UNL     1       2.298   9.174  17.166  0.00  0.00    +0.000 OA
ENDROOT
BRANCH   1  15
ATOM     11  C   UNL     1       4.350   5.334  17.694  0.00  0.00    +0.000 A 
ATOM     12  C   UNL     1       4.094   4.245  18.526  0.00  0.00    +0.000 A 
ATOM     13  C   UNL     1       3.197   4.371  19.606  0.00  0.00    +0.000 A 
ATOM     14  C   UNL     1       2.498   5.571  19.858  0.00  0.00    +0.000 A 
ATOM     15  C   UNL     1       2.733   6.680  19.061  0.00  0.00    +0.000 A 
ATOM     16  C   UNL     1       3.707   6.542  18.029  0.00  0.00    +0.000 A 
BRANCH  11  17
ATOM     17  C   UNL     1       5.083   5.249  16.327  0.00  0.00    +0.000 C 
ATOM     18  C   UNL     1       4.319   4.184  15.519  0.00  0.00    +0.000 C 
ATOM     19  F   UNL     1       4.908   6.430  15.622  0.00  0.00    +0.000 F 
BRANCH  17  20
ATOM     20  C   UNL     1       6.629   4.995  16.370  0.00  0.00    +0.000 C 
ATOM     21  F   UNL     1       7.239   5.657  15.344  0.00  0.00    +0.000 F 
ATOM     22  F   UNL     1       6.867   3.668  16.131  0.00  0.00    +0.000 F 
BRANCH  20  28
ATOM     23  C   UNL     1       7.320   7.961  17.463  0.00  0.00    +0.000 C 
ATOM     24  N   UNL     1       7.609   6.691  18.075  0.00  0.00    +0.000 N 
ATOM     25  C   UNL     1       8.249   6.556  19.274  0.00  0.00    +0.000 A 
ATOM     26  N   UNL     1       8.223   5.302  19.647  0.00  0.00    +0.000 NA
ATOM     27  N   UNL     1       7.575   4.598  18.669  0.00  0.00    +0.000 NA
ATOM     28  C   UNL     1       7.269   5.419  17.674  0.00  0.00    +0.000 A 
ENDBRANCH  20  28
ENDBRANCH  17  20
ENDBRANCH  11  17
ENDBRANCH   1  15
BRANCH   8  29
ATOM     29  C   UNL     1      -0.267   9.563  22.594  0.00  0.00    +0.000 C 
ATOM     30  F   UNL     1      -0.893   8.351  22.587  0.00  0.00    +0.000 F 
ATOM     31  F   UNL     1       0.894   9.362  23.275  0.00  0.00    +0.000 F 
ATOM     32  F   UNL     1      -1.036  10.366  23.375  0.00  0.00    +0.000 F 
ENDBRANCH   8  29
BRANCH   6  33
ATOM     33  C   UNL     1      -0.830  13.424  19.444  0.00  0.00    +0.000 C 
BRANCH  33  34
ATOM     34  N   UNL     1       0.218  14.451  19.205  0.00  0.00    +0.000 NA
ATOM     35  C   UNL     1      -0.301  15.808  18.976  0.00  0.00    +0.000 C 
ATOM     36  C   UNL     1       0.134  16.704  20.128  0.00  0.00    +0.000 C 
ATOM     37  C   UNL     1       0.874  15.799  21.084  0.00  0.00    +0.000 C 
ATOM     38  F   UNL     1       0.037  15.451  22.098  0.00  0.00    +0.000 F 
ATOM     39  C   UNL     1       1.220  14.562  20.274  0.00  0.00    +0.000 C 
ENDBRANCH  33  34
ENDBRANCH   6  33
TORSDOF 7
ENDMDL
MODEL 5
REMARK VINA RESULT:      -9.6      1.470      2.478
REMARK  Name = 
REMARK  9 active torsions:
REMARK  status: ('A' for Active; 'I' for Inactive)
REMARK    1  A    between atoms: C_1  and  N_2
REMARK    2  A    between atoms: C_6  and  C_7
REMARK    3  A    between atoms: C_7  and  C_10
REMARK    4  A    between atoms: C_10  and  C_11
REMARK    5  A    between atoms: C_10  and  C_13
REMARK    6  A    between atoms: C_17  and  N_18
REMARK    7  A    between atoms: C_23  and  C_24
REMARK    8  A    between atoms: C_24  and  N_25
REMARK    9  A    between atoms: C_32  and  C_33
REMARK                            x       y       z     vdW  Elec       q    Type
REMARK                         _______ _______ _______ _____ _____    ______ ____
ROOT
ATOM      1  N   UNL     1       2.212   7.554  19.441  0.00  0.00    +0.000 N 
ATOM      2  C   UNL     1       1.562   7.967  20.651  0.00  0.00    +0.000 C 
ATOM      3  C   UNL     1       0.905   9.243  20.324  0.00  0.00    +0.000 A 
ATOM      4  C   UNL     1       1.233   9.658  19.039  0.00  0.00    +0.000 A 
ATOM      5  C   UNL     1       0.770  10.897  18.583  0.00  0.00    +0.000 A 
ATOM      6  C   UNL     1      -0.094  11.661  19.423  0.00  0.00    +0.000 A 
ATOM      7  C   UNL     1      -0.488  11.119  20.668  0.00  0.00    +0.000 A 
ATOM      8  C   UNL     1       0.074   9.954  21.174  0.00  0.00    +0.000 A 
ATOM      9  C   UNL     1       2.091   8.548  18.444  0.00  0.00    +0.000 C 
ATOM     10  O   UNL     1       2.541   8.588  17.320  0.00  0.00    +0.000 OA
ENDROOT
BRANCH   1  15
ATOM     11  C   UNL     1       5.088   5.135  19.059  0.00  0.00    +0.000 A 
ATOM     12  C   UNL     1       4.448   3.923  19.309  0.00  0.00    +0.000 A 
ATOM     13  C   UNL     1       3.081   3.897  19.648  0.00  0.00    +0.000 A 
ATOM     14  C   UNL     1       2.305   5.075  19.704  0.00  0.00    +0.000 A 
ATOM     15  C   UNL     1       2.907   6.302  19.474  0.00  0.00    +0.000 A 
ATOM     16  C   UNL     1       4.308   6.298  19.214  0.00  0.00    +0.000 A 
BRANCH  11  17
ATOM     17  C   UNL     1       6.492   5.276  18.410  0.00  0.00    +0.000 C 
ATOM     18  C   UNL     1       7.429   5.717  19.551  0.00  0.00    +0.000 C 
ATOM     19  F   UNL     1       6.961   4.031  18.020  0.00  0.00    +0.000 F 
BRANCH  17  20
ATOM     20  C   UNL     1       6.595   6.194  17.143  0.00  0.00    +0.000 C 
ATOM     21  F   UNL     1       7.732   6.946  17.203  0.00  0.00    +0.000 F 
ATOM     22  F   UNL     1       5.566   7.097  17.166  0.00  0.00    +0.000 F 
BRANCH  20  28
ATOM     23  C   UNL     1       4.323   4.249  15.909  0.00  0.00    +0.000 C 
ATOM     24  N   UNL     1       5.628   4.548  15.382  0.00  0.00    +0.000 N 
ATOM     25  C   UNL     1       6.114   4.024  14.218  0.00  0.00    +0.000 A 
ATOM     26  N   UNL     1       7.250   4.600  13.917  0.00  0.00    +0.000 NA
ATOM     27  N   UNL     1       7.525   5.502  14.909  0.00  0.00    +0.000 NA
ATOM     28  C   UNL     1       6.588   5.421  15.842  0.00  0.00    +0.000 A 
ENDBRANCH  20  28
ENDBRANCH  17  20
ENDBRANCH  11  17
ENDBRANCH   1  15
BRANCH   8  29
ATOM     29  C   UNL     1      -0.209   9.526  22.588  0.00  0.00    +0.000 C 
ATOM     30  F   UNL     1      -0.907   8.358  22.681  0.00  0.00    +0.000 F 
ATOM     31  F   UNL     1       0.931   9.319  23.302  0.00  0.00    +0.000 F 
ATOM     32  F   UNL     1      -0.936  10.442  23.280  0.00  0.00    +0.000 F 
ENDBRANCH   8  29
BRANCH   6  33
ATOM     33  C   UNL     1      -0.656  13.043  19.041  0.00  0.00    +0.000 C 
BRANCH  33  34
ATOM     34  N   UNL     1      -0.388  14.088  20.062  0.00  0.00    +0.000 NA
ATOM     35  C   UNL     1       1.002  14.568  20.092  0.00  0.00    +0.000 C 
ATOM     36  C   UNL     1       1.030  16.030  19.665  0.00  0.00    +0.000 C 
ATOM     37  C   UNL     1      -0.398  16.373  19.314  0.00  0.00    +0.000 C 
ATOM     38  F   UNL     1      -0.546  16.319  17.964  0.00  0.00    +0.000 F 
ATOM     39  C   UNL     1      -1.238  15.282  19.955  0.00  0.00    +0.000 C 
ENDBRANCH  33  34
ENDBRANCH   6  33
TORSDOF 7
ENDMDL
MODEL 6
REMARK VINA RESULT:      -9.5      2.203      8.742
REMARK  Name = 
REMARK  9 active torsions:
REMARK  status: ('A' for Active; 'I' for Inactive)
REMARK    1  A    between atoms: C_1  and  N_2
REMARK    2  A    between atoms: C_6  and  C_7
REMARK    3  A    between atoms: C_7  and  C_10
REMARK    4  A    between atoms: C_10  and  C_11
REMARK    5  A    between atoms: C_10  and  C_13
REMARK    6  A    between atoms: C_17  and  N_18
REMARK    7  A    between atoms: C_23  and  C_24
REMARK    8  A    between atoms: C_24  and  N_25
REMARK    9  A    between atoms: C_32  and  C_33
REMARK                            x       y       z     vdW  Elec       q    Type
REMARK                         _______ _______ _______ _____ _____    ______ ____
ROOT
ATOM      1  N   UNL     1       1.563   8.002  20.023  0.00  0.00    +0.000 N 
ATOM      2  C   UNL     1       1.598   6.652  20.506  0.00  0.00    +0.000 C 
ATOM      3  C   UNL     1       2.534   5.945  19.617  0.00  0.00    +0.000 A 
ATOM      4  C   UNL     1       2.949   6.768  18.575  0.00  0.00    +0.000 A 
ATOM      5  C   UNL     1       3.774   6.239  17.577  0.00  0.00    +0.000 A 
ATOM      6  C   UNL     1       4.234   4.893  17.703  0.00  0.00    +0.000 A 
ATOM      7  C   UNL     1       3.874   4.156  18.855  0.00  0.00    +0.000 A 
ATOM      8  C   UNL     1       2.951   4.635  19.776  0.00  0.00    +0.000 A 
ATOM      9  C   UNL     1       2.318   8.130  18.836  0.00  0.00    +0.000 C 
ATOM     10  O   UNL     1       2.486   9.088  18.114  0.00  0.00    +0.000 OA
ENDROOT
BRANCH   1  15
ATOM     11  C   UNL     1      -0.673  10.994  20.597  0.00  0.00    +0.000 A 
ATOM     12  C   UNL     1      -0.794  10.970  21.985  0.00  0.00    +0.000 A 
ATOM     13  C   UNL     1      -0.181   9.946  22.735  0.00  0.00    +0.000 A 
ATOM     14  C   UNL     1       0.606   8.945  22.126  0.00  0.00    +0.000 A 
ATOM     15  C   UNL     1       0.741   8.927  20.746  0.00  0.00    +0.000 A 
ATOM     16  C   UNL     1       0.041   9.929  20.013  0.00  0.00    +0.000 A 
BRANCH  11  17
ATOM     17  C   UNL     1      -1.053  12.201  19.697  0.00  0.00    +0.000 C 
ATOM     18  C   UNL     1      -1.835  11.601  18.515  0.00  0.00    +0.000 C 
ATOM     19  F   UNL     1      -1.963  13.014  20.355  0.00  0.00    +0.000 F 
BRANCH  17  20
ATOM     20  C   UNL     1       0.118  13.140  19.245  0.00  0.00    +0.000 C 
ATOM     21  F   UNL     1      -0.333  14.037  18.320  0.00  0.00    +0.000 F 
ATOM     22  F   UNL     1       1.058  12.391  18.588  0.00  0.00    +0.000 F 
BRANCH  20  28
ATOM     23  C   UNL     1      -0.679  16.003  20.523  0.00  0.00    +0.000 C 
ATOM     24  N   UNL     1       0.427  15.149  20.863  0.00  0.00    +0.000 N 
ATOM     25  C   UNL     1       1.344  15.444  21.830  0.00  0.00    +0.000 A 
ATOM     26  N   UNL     1       2.127  14.414  22.023  0.00  0.00    +0.000 NA
ATOM     27  N   UNL     1       1.734  13.434  21.153  0.00  0.00    +0.000 NA
ATOM     28  C   UNL     1       0.755  13.897  20.390  0.00  0.00    +0.000 A 
ENDBRANCH  20  28
ENDBRANCH  17  20
ENDBRANCH  11  17
ENDBRANCH   1  15
BRANCH   8  29
ATOM     29  C   UNL     1       2.433   3.738  20.867  0.00  0.00    +0.000 C 
ATOM     30  F   UNL     1       3.063   2.530  20.932  0.00  0.00    +0.000 F 
ATOM     31  F   UNL     1       2.586   4.288  22.103  0.00  0.00    +0.000 F 
ATOM     32  F   UNL     1       1.111   3.455  20.733  0.00  0.00    +0.000 F 
ENDBRANCH   8  29
BRANCH   6  33
ATOM     33  C   UNL     1       5.132   4.196  16.666  0.00  0.00    +0.000 C 
BRANCH  33  34
ATOM     34  N   UNL     1       6.475   4.820  16.538  0.00  0.00    +0.000 NA
ATOM     35  C   UNL     1       6.461   6.291  16.499  0.00  0.00    +0.000 C 
ATOM     36  C   UNL     1       7.150   6.825  17.747  0.00  0.00    +0.000 C 
ATOM     37  C   UNL     1       7.510   5.605  18.561  0.00  0.00    +0.000 C 
ATOM     38  F   UNL     1       6.582   5.437  19.540  0.00  0.00    +0.000 F 
ATOM     39  C   UNL     1       7.429   4.440  17.589  0.00  0.00    +0.000 C 
ENDBRANCH  33  34
ENDBRANCH   6  33
TORSDOF 7
ENDMDL
MODEL 7
REMARK VINA RESULT:      -9.4      2.254      8.625
REMARK  Name = 
REMARK  9 active torsions:
REMARK  status: ('A' for Active; 'I' for Inactive)
REMARK    1  A    between atoms: C_1  and  N_2
REMARK    2  A    between atoms: C_6  and  C_7
REMARK    3  A    between atoms: C_7  and  C_10
REMARK    4  A    between atoms: C_10  and  C_11
REMARK    5  A    between atoms: C_10  and  C_13
REMARK    6  A    between atoms: C_17  and  N_18
REMARK    7  A    between atoms: C_23  and  C_24
REMARK    8  A    between atoms: C_24  and  N_25
REMARK    9  A    between atoms: C_32  and  C_33
REMARK                            x       y       z     vdW  Elec       q    Type
REMARK                         _______ _______ _______ _____ _____    ______ ____
ROOT
ATOM      1  N   UNL     1       1.505   8.214  20.001  0.00  0.00    +0.000 N 
ATOM      2  C   UNL     1       1.539   6.861  20.474  0.00  0.00    +0.000 C 
ATOM      3  C   UNL     1       2.470   6.158  19.577  0.00  0.00    +0.000 A 
ATOM      4  C   UNL     1       2.884   6.986  18.540  0.00  0.00    +0.000 A 
ATOM      5  C   UNL     1       3.705   6.462  17.536  0.00  0.00    +0.000 A 
ATOM      6  C   UNL     1       4.162   5.115  17.652  0.00  0.00    +0.000 A 
ATOM      7  C   UNL     1       3.804   4.371  18.799  0.00  0.00    +0.000 A 
ATOM      8  C   UNL     1       2.885   4.845  19.727  0.00  0.00    +0.000 A 
ATOM      9  C   UNL     1       2.257   8.348  18.812  0.00  0.00    +0.000 C 
ATOM     10  O   UNL     1       2.425   9.311  18.097  0.00  0.00    +0.000 OA
ENDROOT
BRANCH   1  15
ATOM     11  C   UNL     1      -0.869  11.097  20.576  0.00  0.00    +0.000 A 
ATOM     12  C   UNL     1      -0.870  11.164  21.968  0.00  0.00    +0.000 A 
ATOM     13  C   UNL     1      -0.129  10.235  22.725  0.00  0.00    +0.000 A 
ATOM     14  C   UNL     1       0.669   9.243  22.115  0.00  0.00    +0.000 A 
ATOM     15  C   UNL     1       0.688   9.136  20.733  0.00  0.00    +0.000 A 
ATOM     16  C   UNL     1      -0.137  10.039  20.001  0.00  0.00    +0.000 A 
BRANCH  11  17
ATOM     17  C   UNL     1      -1.404  12.212  19.637  0.00  0.00    +0.000 C 
ATOM     18  C   UNL     1      -1.165  11.693  18.207  0.00  0.00    +0.000 C 
ATOM     19  F   UNL     1      -2.781  12.314  19.758  0.00  0.00    +0.000 F 
BRANCH  17  20
ATOM     20  C   UNL     1      -0.842  13.658  19.867  0.00  0.00    +0.000 C 
ATOM     21  F   UNL     1      -1.643  14.336  20.739  0.00  0.00    +0.000 F 
ATOM     22  F   UNL     1      -0.921  14.356  18.691  0.00  0.00    +0.000 F 
BRANCH  20  28
ATOM     23  C   UNL     1       1.944  13.135  18.307  0.00  0.00    +0.000 C 
ATOM     24  N   UNL     1       1.735  13.378  19.710  0.00  0.00    +0.000 N 
ATOM     25  C   UNL     1       2.744  13.426  20.629  0.00  0.00    +0.000 A 
ATOM     26  N   UNL     1       2.269  13.822  21.783  0.00  0.00    +0.000 NA
ATOM     27  N   UNL     1       0.924  14.015  21.625  0.00  0.00    +0.000 NA
ATOM     28  C   UNL     1       0.577  13.672  20.393  0.00  0.00    +0.000 A 
ENDBRANCH  20  28
ENDBRANCH  17  20
ENDBRANCH  11  17
ENDBRANCH   1  15
BRANCH   8  29
ATOM     29  C   UNL     1       2.368   3.943  20.813  0.00  0.00    +0.000 C 
ATOM     30  F   UNL     1       1.023   3.719  20.749  0.00  0.00    +0.000 F 
ATOM     31  F   UNL     1       2.938   2.708  20.773  0.00  0.00    +0.000 F 
ATOM     32  F   UNL     1       2.598   4.432  22.059  0.00  0.00    +0.000 F 
ENDBRANCH   8  29
BRANCH   6  33
ATOM     33  C   UNL     1       5.056   4.422  16.607  0.00  0.00    +0.000 C 
BRANCH  33  34
ATOM     34  N   UNL     1       6.410   5.026  16.502  0.00  0.00    +0.000 NA
ATOM     35  C   UNL     1       6.438   6.488  16.651  0.00  0.00    +0.000 C 
ATOM     36  C   UNL     1       7.193   6.841  17.926  0.00  0.00    +0.000 C 
ATOM     37  C   UNL     1       7.549   5.518  18.561  0.00  0.00    +0.000 C 
ATOM     38  F   UNL     1       6.655   5.249  19.551  0.00  0.00    +0.000 F 
ATOM     39  C   UNL     1       7.394   4.491  17.454  0.00  0.00    +0.000 C 
ENDBRANCH  33  34
ENDBRANCH   6  33
TORSDOF 7
ENDMDL
MODEL 8
REMARK VINA RESULT:      -9.4      1.391      1.912
REMARK  Name = 
REMARK  9 active torsions:
REMARK  status: ('A' for Active; 'I' for Inactive)
REMARK    1  A    between atoms: C_1  and  N_2
REMARK    2  A    between atoms: C_6  and  C_7
REMARK    3  A    between atoms: C_7  and  C_10
REMARK    4  A    between atoms: C_10  and  C_11
REMARK    5  A    between atoms: C_10  and  C_13
REMARK    6  A    between atoms: C_17  and  N_18
REMARK    7  A    between atoms: C_23  and  C_24
REMARK    8  A    between atoms: C_24  and  N_25
REMARK    9  A    between atoms: C_32  and  C_33
REMARK                            x       y       z     vdW  Elec       q    Type
REMARK                         _______ _______ _______ _____ _____    ______ ____
ROOT
ATOM      1  N   UNL     1       2.074   7.907  19.085  0.00  0.00    +0.000 N 
ATOM      2  C   UNL     1       1.491   8.163  20.370  0.00  0.00    +0.000 C 
ATOM      3  C   UNL     1       0.859   9.487  20.253  0.00  0.00    +0.000 A 
ATOM      4  C   UNL     1       1.143  10.068  19.023  0.00  0.00    +0.000 A 
ATOM      5  C   UNL     1       0.698  11.369  18.765  0.00  0.00    +0.000 A 
ATOM      6  C   UNL     1      -0.106  12.030  19.742  0.00  0.00    +0.000 A 
ATOM      7  C   UNL     1      -0.462  11.330  20.917  0.00  0.00    +0.000 A 
ATOM      8  C   UNL     1       0.087  10.092  21.231  0.00  0.00    +0.000 A 
ATOM      9  C   UNL     1       1.940   9.032  18.241  0.00  0.00    +0.000 C 
ATOM     10  O   UNL     1       2.342   9.217  17.114  0.00  0.00    +0.000 OA
ENDROOT
BRANCH   1  15
ATOM     11  C   UNL     1       4.383   5.343  17.545  0.00  0.00    +0.000 A 
ATOM     12  C   UNL     1       4.042   4.208  18.277  0.00  0.00    +0.000 A 
ATOM     13  C   UNL     1       3.087   4.288  19.310  0.00  0.00    +0.000 A 
ATOM     14  C   UNL     1       2.414   5.491  19.610  0.00  0.00    +0.000 A 
ATOM     15  C   UNL     1       2.733   6.646  18.913  0.00  0.00    +0.000 A 
ATOM     16  C   UNL     1       3.761   6.547  17.931  0.00  0.00    +0.000 A 
BRANCH  11  17
ATOM     17  C   UNL     1       5.193   5.331  16.220  0.00  0.00    +0.000 C 
ATOM     18  C   UNL     1       4.457   4.340  15.299  0.00  0.00    +0.000 C 
ATOM     19  F   UNL     1       5.085   6.559  15.586  0.00  0.00    +0.000 F 
BRANCH  17  20
ATOM     20  C   UNL     1       6.729   5.037  16.334  0.00  0.00    +0.000 C 
ATOM     21  F   UNL     1       7.403   5.690  15.343  0.00  0.00    +0.000 F 
ATOM     22  F   UNL     1       6.944   3.706  16.096  0.00  0.00    +0.000 F 
BRANCH  20  28
ATOM     23  C   UNL     1       7.459   7.975  17.474  0.00  0.00    +0.000 C 
ATOM     24  N   UNL     1       7.676   6.695  18.094  0.00  0.00    +0.000 N 
ATOM     25  C   UNL     1       8.252   6.536  19.322  0.00  0.00    +0.000 A 
ATOM     26  N   UNL     1       8.167   5.282  19.687  0.00  0.00    +0.000 NA
ATOM     27  N   UNL     1       7.547   4.603  18.675  0.00  0.00    +0.000 NA
ATOM     28  C   UNL     1       7.317   5.436  17.670  0.00  0.00    +0.000 A 
ENDBRANCH  20  28
ENDBRANCH  17  20
ENDBRANCH  11  17
ENDBRANCH   1  15
BRANCH   8  29
ATOM     29  C   UNL     1      -0.146   9.480  22.585  0.00  0.00    +0.000 C 
ATOM     30  F   UNL     1      -0.774   8.269  22.540  0.00  0.00    +0.000 F 
ATOM     31  F   UNL     1       1.015   9.255  23.257  0.00  0.00    +0.000 F 
ATOM     32  F   UNL     1      -0.913  10.259  23.391  0.00  0.00    +0.000 F 
ENDBRANCH   8  29
BRANCH   6  33
ATOM     33  C   UNL     1      -0.642  13.464  19.580  0.00  0.00    +0.000 C 
BRANCH  33  34
ATOM     34  N   UNL     1      -1.015  14.099  20.871  0.00  0.00    +0.000 NA
ATOM     35  C   UNL     1       0.018  14.979  21.438  0.00  0.00    +0.000 C 
ATOM     36  C   UNL     1      -0.497  16.413  21.436  0.00  0.00    +0.000 C 
ATOM     37  C   UNL     1      -1.855  16.351  20.777  0.00  0.00    +0.000 C 
ATOM     38  F   UNL     1      -1.734  16.736  19.479  0.00  0.00    +0.000 F 
ATOM     39  C   UNL     1      -2.256  14.886  20.830  0.00  0.00    +0.000 C 
ENDBRANCH  33  34
ENDBRANCH   6  33
TORSDOF 7
ENDMDL
MODEL 9
REMARK VINA RESULT:      -9.3      1.339      2.404
REMARK  Name = 
REMARK  9 active torsions:
REMARK  status: ('A' for Active; 'I' for Inactive)
REMARK    1  A    between atoms: C_1  and  N_2
REMARK    2  A    between atoms: C_6  and  C_7
REMARK    3  A    between atoms: C_7  and  C_10
REMARK    4  A    between atoms: C_10  and  C_11
REMARK    5  A    between atoms: C_10  and  C_13
REMARK    6  A    between atoms: C_17  and  N_18
REMARK    7  A    between atoms: C_23  and  C_24
REMARK    8  A    between atoms: C_24  and  N_25
REMARK    9  A    between atoms: C_32  and  C_33
REMARK                            x       y       z     vdW  Elec       q    Type
REMARK                         _______ _______ _______ _____ _____    ______ ____
ROOT
ATOM      1  N   UNL     1       2.083   7.692  19.479  0.00  0.00    +0.000 N 
ATOM      2  C   UNL     1       1.447   8.070  20.708  0.00  0.00    +0.000 C 
ATOM      3  C   UNL     1       0.776   9.348  20.421  0.00  0.00    +0.000 A 
ATOM      4  C   UNL     1       1.083   9.797  19.142  0.00  0.00    +0.000 A 
ATOM      5  C   UNL     1       0.605  11.043  18.724  0.00  0.00    +0.000 A 
ATOM      6  C   UNL     1      -0.254  11.780  19.594  0.00  0.00    +0.000 A 
ATOM      7  C   UNL     1      -0.627  11.204  20.829  0.00  0.00    +0.000 A 
ATOM      8  C   UNL     1      -0.049  10.031  21.299  0.00  0.00    +0.000 A 
ATOM      9  C   UNL     1       1.941   8.709  18.508  0.00  0.00    +0.000 C 
ATOM     10  O   UNL     1       2.377   8.780  17.381  0.00  0.00    +0.000 OA
ENDROOT
BRANCH   1  15
ATOM     11  C   UNL     1       4.712   5.161  18.501  0.00  0.00    +0.000 A 
ATOM     12  C   UNL     1       4.250   4.029  19.169  0.00  0.00    +0.000 A 
ATOM     13  C   UNL     1       3.100   4.103  19.981  0.00  0.00    +0.000 A 
ATOM     14  C   UNL     1       2.355   5.294  20.112  0.00  0.00    +0.000 A 
ATOM     15  C   UNL     1       2.788   6.445  19.472  0.00  0.00    +0.000 A 
ATOM     16  C   UNL     1       3.999   6.355  18.726  0.00  0.00    +0.000 A 
BRANCH  11  17
ATOM     17  C   UNL     1       5.779   5.147  17.372  0.00  0.00    +0.000 C 
ATOM     18  C   UNL     1       6.754   6.287  17.716  0.00  0.00    +0.000 C 
ATOM     19  F   UNL     1       6.537   3.988  17.451  0.00  0.00    +0.000 F 
BRANCH  17  20
ATOM     20  C   UNL     1       5.248   5.217  15.898  0.00  0.00    +0.000 C 
ATOM     21  F   UNL     1       4.574   6.388  15.701  0.00  0.00    +0.000 F 
ATOM     22  F   UNL     1       4.314   4.232  15.716  0.00  0.00    +0.000 F 
BRANCH  20  28
ATOM     23  C   UNL     1       5.245   3.681  13.051  0.00  0.00    +0.000 C 
ATOM     24  N   UNL     1       6.327   4.382  13.689  0.00  0.00    +0.000 N 
ATOM     25  C   UNL     1       7.574   4.505  13.146  0.00  0.00    +0.000 A 
ATOM     26  N   UNL     1       8.290   5.326  13.871  0.00  0.00    +0.000 NA
ATOM     27  N   UNL     1       7.509   5.732  14.919  0.00  0.00    +0.000 NA
ATOM     28  C   UNL     1       6.344   5.103  14.861  0.00  0.00    +0.000 A 
ENDBRANCH  20  28
ENDBRANCH  17  20
ENDBRANCH  11  17
ENDBRANCH   1  15
BRANCH   8  29
ATOM     29  C   UNL     1      -0.310   9.566  22.706  0.00  0.00    +0.000 C 
ATOM     30  F   UNL     1       0.819   9.433  23.460  0.00  0.00    +0.000 F 
ATOM     31  F   UNL     1      -1.101  10.432  23.397  0.00  0.00    +0.000 F 
ATOM     32  F   UNL     1      -0.928   8.357  22.755  0.00  0.00    +0.000 F 
ENDBRANCH   8  29
BRANCH   6  33
ATOM     33  C   UNL     1      -0.831  13.166  19.254  0.00  0.00    +0.000 C 
BRANCH  33  34
ATOM     34  N   UNL     1      -0.028  14.288  19.806  0.00  0.00    +0.000 NA
ATOM     35  C   UNL     1       1.024  13.877  20.749  0.00  0.00    +0.000 C 
ATOM     36  C   UNL     1       2.384  14.185  20.137  0.00  0.00    +0.000 C 
ATOM     37  C   UNL     1       2.091  14.732  18.760  0.00  0.00    +0.000 C 
ATOM     38  F   UNL     1       2.266  13.741  17.845  0.00  0.00    +0.000 F 
ATOM     39  C   UNL     1       0.625  15.130  18.794  0.00  0.00    +0.000 C 
ENDBRANCH  33  34
ENDBRANCH   6  33
TORSDOF 7
ENDMDL
