MODEL 1
REMARK VINA RESULT:      -7.6      0.000      0.000
REMARK  Name = 
REMARK  8 active torsions:
REMARK  status: ('A' for Active; 'I' for Inactive)
REMARK    1  A    between atoms: C_1  and  C_2
REMARK    2  A    between atoms: C_2  and  S_3
REMARK    3  A    between atoms: C_2  and  C_10
REMARK    4  A    between atoms: S_3  and  C_4
REMARK    5  A    between atoms: N_8  and  C_9
REMARK    6  A    between atoms: C_14  and  N_15
REMARK    7  A    between atoms: C_16  and  C_18
REMARK    8  A    between atoms: C_22  and  C_23
REMARK                            x       y       z     vdW  Elec       q    Type
REMARK                         _______ _______ _______ _____ _____    ______ ____
ROOT
ATOM      1  C   UNL     1       4.747   5.129  17.232  0.00  0.00    +0.000 A 
ATOM      2  C   UNL     1       5.375   4.250  16.337  0.00  0.00    +0.000 A 
ATOM      3  C   UNL     1       6.592   4.589  15.752  0.00  0.00    +0.000 A 
ATOM      4  C   UNL     1       7.196   5.812  16.042  0.00  0.00    +0.000 A 
ATOM      5  C   UNL     1       6.599   6.713  16.924  0.00  0.00    +0.000 A 
ATOM      6  C   UNL     1       5.387   6.354  17.532  0.00  0.00    +0.000 A 
ENDROOT
BRANCH   5   7
ATOM      7  N   UNL     1       7.168   7.969  17.239  0.00  0.00    +0.000 N 
ATOM      8  C   UNL     1       8.104   8.223  18.231  0.00  0.00    +0.000 C 
ATOM      9  O   UNL     1       8.620   7.396  18.977  0.00  0.00    +0.000 OA
ATOM     10  H   UNL     1       6.929   8.768  16.660  0.00  0.00    +0.000 HD
BRANCH   8  11
ATOM     11  C   UNL     1       8.527   9.654  18.348  0.00  0.00    +0.000 A 
ATOM     12  C   UNL     1       8.019  10.580  17.442  0.00  0.00    +0.000 A 
ATOM     13  C   UNL     1       8.407  11.907  17.565  0.00  0.00    +0.000 A 
ATOM     14  C   UNL     1       9.288  12.261  18.580  0.00  0.00    +0.000 A 
ATOM     15  C   UNL     1       9.756  11.279  19.453  0.00  0.00    +0.000 A 
ATOM     16  N   UNL     1       9.391   9.970  19.355  0.00  0.00    +0.000 NA
BRANCH  15  17
ATOM     17  C   UNL     1      10.703  11.650  20.567  0.00  0.00    +0.000 C 
ATOM     18  F   UNL     1      10.964  12.988  20.647  0.00  0.00    +0.000 F 
ENDBRANCH  15  17
ENDBRANCH   8  11
ENDBRANCH   5   7
BRANCH   1  20
ATOM     19  C   UNL     1       3.127   5.540  19.140  0.00  0.00    +0.000 C 
ATOM     20  C   UNL     1       3.435   4.707  17.892  0.00  0.00    +0.000 C 
BRANCH  20  21
ATOM     21  S   UNL     1       3.531   2.914  18.253  0.00  0.00    +0.000 S 
BRANCH  21  22
ATOM     22  C   UNL     1       2.882   2.776  19.844  0.00  0.00    +0.000 A 
ATOM     23  N   UNL     1       3.528   2.682  20.986  0.00  0.00    +0.000 NA
ATOM     24  N   UNL     1       2.582   2.554  21.985  0.00  0.00    +0.000 NA
ATOM     25  C   UNL     1       1.395   2.588  21.422  0.00  0.00    +0.000 A 
ATOM     26  N   UNL     1       1.538   2.740  20.079  0.00  0.00    +0.000 N 
ATOM     27  C   UNL     1       0.473   2.821  19.112  0.00  0.00    +0.000 C 
ENDBRANCH  21  22
ENDBRANCH  20  21
ENDBRANCH   1  20
TORSDOF 6
ENDMDL
MODEL 2
REMARK VINA RESULT:      -7.4      4.598      7.163
REMARK  Name = 
REMARK  8 active torsions:
REMARK  status: ('A' for Active; 'I' for Inactive)
REMARK    1  A    between atoms: C_1  and  C_2
REMARK    2  A    between atoms: C_2  and  S_3
REMARK    3  A    between atoms: C_2  and  C_10
REMARK    4  A    between atoms: S_3  and  C_4
REMARK    5  A    between atoms: N_8  and  C_9
REMARK    6  A    between atoms: C_14  and  N_15
REMARK    7  A    between atoms: C_16  and  C_18
REMARK    8  A    between atoms: C_22  and  C_23
REMARK                            x       y       z     vdW  Elec       q    Type
REMARK                         _______ _______ _______ _____ _____    ______ ____
ROOT
ATOM      1  C   UNL     1       4.253   5.019  16.894  0.00  0.00    +0.000 A 
ATOM      2  C   UNL     1       3.578   3.801  17.062  0.00  0.00    +0.000 A 
ATOM      3  C   UNL     1       2.417   3.736  17.828  0.00  0.00    +0.000 A 
ATOM      4  C   UNL     1       1.918   4.881  18.448  0.00  0.00    +0.000 A 
ATOM      5  C   UNL     1       2.564   6.110  18.307  0.00  0.00    +0.000 A 
ATOM      6  C   UNL     1       3.717   6.174  17.511  0.00  0.00    +0.000 A 
ENDROOT
BRANCH   5   7
ATOM      7  N   UNL     1       2.102   7.295  18.925  0.00  0.00    +0.000 N 
ATOM      8  C   UNL     1       1.908   8.522  18.309  0.00  0.00    +0.000 C 
ATOM      9  O   UNL     1       2.071   8.776  17.119  0.00  0.00    +0.000 OA
ATOM     10  H   UNL     1       1.823   7.255  19.901  0.00  0.00    +0.000 HD
BRANCH   8  11
ATOM     11  C   UNL     1       1.416   9.610  19.212  0.00  0.00    +0.000 A 
ATOM     12  C   UNL     1       1.614  10.935  18.837  0.00  0.00    +0.000 A 
ATOM     13  C   UNL     1       1.145  11.938  19.674  0.00  0.00    +0.000 A 
ATOM     14  C   UNL     1       0.500  11.584  20.854  0.00  0.00    +0.000 A 
ATOM     15  C   UNL     1       0.336  10.234  21.166  0.00  0.00    +0.000 A 
ATOM     16  N   UNL     1       0.786   9.231  20.361  0.00  0.00    +0.000 NA
BRANCH  15  17
ATOM     17  C   UNL     1      -0.371   9.836  22.437  0.00  0.00    +0.000 C 
ATOM     18  F   UNL     1      -0.779   8.533  22.458  0.00  0.00    +0.000 F 
ENDBRANCH  15  17
ENDBRANCH   8  11
ENDBRANCH   5   7
BRANCH   1  20
ATOM     19  C   UNL     1       5.410   4.072  14.845  0.00  0.00    +0.000 C 
ATOM     20  C   UNL     1       5.498   5.064  16.009  0.00  0.00    +0.000 C 
BRANCH  20  21
ATOM     21  S   UNL     1       6.961   4.773  17.071  0.00  0.00    +0.000 S 
BRANCH  21  22
ATOM     22  C   UNL     1       7.475   6.359  17.511  0.00  0.00    +0.000 A 
ATOM     23  N   UNL     1       7.422   7.463  16.798  0.00  0.00    +0.000 NA
ATOM     24  N   UNL     1       7.985   8.471  17.558  0.00  0.00    +0.000 NA
ATOM     25  C   UNL     1       8.348   7.952  18.709  0.00  0.00    +0.000 A 
ATOM     26  N   UNL     1       8.033   6.630  18.726  0.00  0.00    +0.000 N 
ATOM     27  C   UNL     1       8.271   5.711  19.810  0.00  0.00    +0.000 C 
ENDBRANCH  21  22
ENDBRANCH  20  21
ENDBRANCH   1  20
TORSDOF 6
ENDMDL
MODEL 3
REMARK VINA RESULT:      -7.4      5.195      9.641
REMARK  Name = 
REMARK  8 active torsions:
REMARK  status: ('A' for Active; 'I' for Inactive)
REMARK    1  A    between atoms: C_1  and  C_2
REMARK    2  A    between atoms: C_2  and  S_3
REMARK    3  A    between atoms: C_2  and  C_10
REMARK    4  A    between atoms: S_3  and  C_4
REMARK    5  A    between atoms: N_8  and  C_9
REMARK    6  A    between atoms: C_14  and  N_15
REMARK    7  A    between atoms: C_16  and  C_18
REMARK    8  A    between atoms: C_22  and  C_23
REMARK                            x       y       z     vdW  Elec       q    Type
REMARK                         _______ _______ _______ _____ _____    ______ ____
ROOT
ATOM      1  C   UNL     1       9.883  12.614  18.614  0.00  0.00    +0.000 A 
ATOM      2  C   UNL     1      10.077  12.956  19.960  0.00  0.00    +0.000 A 
ATOM      3  C   UNL     1       9.900  12.006  20.963  0.00  0.00    +0.000 A 
ATOM      4  C   UNL     1       9.518  10.704  20.639  0.00  0.00    +0.000 A 
ATOM      5  C   UNL     1       9.312  10.329  19.312  0.00  0.00    +0.000 A 
ATOM      6  C   UNL     1       9.519  11.282  18.304  0.00  0.00    +0.000 A 
ENDROOT
BRANCH   5   7
ATOM      7  N   UNL     1       8.913   9.025  18.937  0.00  0.00    +0.000 N 
ATOM      8  C   UNL     1       7.997   8.697  17.947  0.00  0.00    +0.000 C 
ATOM      9  O   UNL     1       7.407   9.481  17.209  0.00  0.00    +0.000 OA
ATOM     10  H   UNL     1       9.368   8.233  19.379  0.00  0.00    +0.000 HD
BRANCH   8  11
ATOM     11  C   UNL     1       7.759   7.230  17.769  0.00  0.00    +0.000 A 
ATOM     12  C   UNL     1       7.951   6.382  18.855  0.00  0.00    +0.000 A 
ATOM     13  C   UNL     1       7.717   5.025  18.685  0.00  0.00    +0.000 A 
ATOM     14  C   UNL     1       7.303   4.562  17.441  0.00  0.00    +0.000 A 
ATOM     15  C   UNL     1       7.129   5.471  16.397  0.00  0.00    +0.000 A 
ATOM     16  N   UNL     1       7.352   6.808  16.538  0.00  0.00    +0.000 NA
BRANCH  15  17
ATOM     17  C   UNL     1       6.669   4.985  15.045  0.00  0.00    +0.000 C 
ATOM     18  F   UNL     1       7.604   5.125  14.060  0.00  0.00    +0.000 F 
ENDBRANCH  15  17
ENDBRANCH   8  11
ENDBRANCH   5   7
BRANCH   1  20
ATOM     19  C   UNL     1      11.599  13.708  17.099  0.00  0.00    +0.000 C 
ATOM     20  C   UNL     1      10.131  13.668  17.535  0.00  0.00    +0.000 C 
BRANCH  20  21
ATOM     21  S   UNL     1       9.543  15.281  18.172  0.00  0.00    +0.000 S 
BRANCH  21  22
ATOM     22  C   UNL     1       7.840  15.070  18.326  0.00  0.00    +0.000 A 
ATOM     23  N   UNL     1       6.983  14.639  17.426  0.00  0.00    +0.000 NA
ATOM     24  N   UNL     1       5.727  14.676  18.000  0.00  0.00    +0.000 NA
ATOM     25  C   UNL     1       5.861  15.115  19.231  0.00  0.00    +0.000 A 
ATOM     26  N   UNL     1       7.174  15.361  19.481  0.00  0.00    +0.000 N 
ATOM     27  C   UNL     1       7.729  15.853  20.717  0.00  0.00    +0.000 C 
ENDBRANCH  21  22
ENDBRANCH  20  21
ENDBRANCH   1  20
TORSDOF 6
ENDMDL
MODEL 4
REMARK VINA RESULT:      -7.1      4.801      7.252
REMARK  Name = 
REMARK  8 active torsions:
REMARK  status: ('A' for Active; 'I' for Inactive)
REMARK    1  A    between atoms: C_1  and  C_2
REMARK    2  A    between atoms: C_2  and  S_3
REMARK    3  A    between atoms: C_2  and  C_10
REMARK    4  A    between atoms: S_3  and  C_4
REMARK    5  A    between atoms: N_8  and  C_9
REMARK    6  A    between atoms: C_14  and  N_15
REMARK    7  A    between atoms: C_16  and  C_18
REMARK    8  A    between atoms: C_22  and  C_23
REMARK                            x       y       z     vdW  Elec       q    Type
REMARK                         _______ _______ _______ _____ _____    ______ ____
ROOT
ATOM      1  C   UNL     1       5.169   5.033  19.105  0.00  0.00    +0.000 A 
ATOM      2  C   UNL     1       4.703   3.745  19.405  0.00  0.00    +0.000 A 
ATOM      3  C   UNL     1       3.426   3.559  19.927  0.00  0.00    +0.000 A 
ATOM      4  C   UNL     1       2.598   4.655  20.167  0.00  0.00    +0.000 A 
ATOM      5  C   UNL     1       3.028   5.952  19.885  0.00  0.00    +0.000 A 
ATOM      6  C   UNL     1       4.305   6.130  19.333  0.00  0.00    +0.000 A 
ENDROOT
BRANCH   5   7
ATOM      7  N   UNL     1       2.228   7.094  20.122  0.00  0.00    +0.000 N 
ATOM      8  C   UNL     1       1.868   8.054  19.188  0.00  0.00    +0.000 C 
ATOM      9  O   UNL     1       2.153   8.056  17.994  0.00  0.00    +0.000 OA
ATOM     10  H   UNL     1       1.818   7.215  21.043  0.00  0.00    +0.000 HD
BRANCH   8  11
ATOM     11  C   UNL     1       1.017   9.165  19.722  0.00  0.00    +0.000 A 
ATOM     12  C   UNL     1       0.572  10.150  18.846  0.00  0.00    +0.000 A 
ATOM     13  C   UNL     1      -0.226  11.169  19.347  0.00  0.00    +0.000 A 
ATOM     14  C   UNL     1      -0.548  11.171  20.699  0.00  0.00    +0.000 A 
ATOM     15  C   UNL     1      -0.066  10.150  21.518  0.00  0.00    +0.000 A 
ATOM     16  N   UNL     1       0.717   9.138  21.052  0.00  0.00    +0.000 NA
BRANCH  15  17
ATOM     17  C   UNL     1      -0.417  10.133  22.985  0.00  0.00    +0.000 C 
ATOM     18  F   UNL     1       0.016   9.019  23.645  0.00  0.00    +0.000 F 
ENDBRANCH  15  17
ENDBRANCH   8  11
ENDBRANCH   5   7
BRANCH   1  20
ATOM     19  C   UNL     1       7.600   5.619  19.532  0.00  0.00    +0.000 C 
ATOM     20  C   UNL     1       6.558   5.198  18.490  0.00  0.00    +0.000 C 
BRANCH  20  21
ATOM     21  S   UNL     1       6.429   6.390  17.105  0.00  0.00    +0.000 S 
BRANCH  21  22
ATOM     22  C   UNL     1       6.582   5.407  15.698  0.00  0.00    +0.000 A 
ATOM     23  N   UNL     1       7.571   5.365  14.832  0.00  0.00    +0.000 NA
ATOM     24  N   UNL     1       7.225   4.453  13.854  0.00  0.00    +0.000 NA
ATOM     25  C   UNL     1       6.046   3.961  14.162  0.00  0.00    +0.000 A 
ATOM     26  N   UNL     1       5.612   4.524  15.321  0.00  0.00    +0.000 N 
ATOM     27  C   UNL     1       4.365   4.247  15.988  0.00  0.00    +0.000 C 
ENDBRANCH  21  22
ENDBRANCH  20  21
ENDBRANCH   1  20
TORSDOF 6
ENDMDL
MODEL 5
REMARK VINA RESULT:      -7.1      2.251      3.151
REMARK  Name = 
REMARK  8 active torsions:
REMARK  status: ('A' for Active; 'I' for Inactive)
REMARK    1  A    between atoms: C_1  and  C_2
REMARK    2  A    between atoms: C_2  and  S_3
REMARK    3  A    between atoms: C_2  and  C_10
REMARK    4  A    between atoms: S_3  and  C_4
REMARK    5  A    between atoms: N_8  and  C_9
REMARK    6  A    between atoms: C_14  and  N_15
REMARK    7  A    between atoms: C_16  and  C_18
REMARK    8  A    between atoms: C_22  and  C_23
REMARK                            x       y       z     vdW  Elec       q    Type
REMARK                         _______ _______ _______ _____ _____    ______ ____
ROOT
ATOM      1  C   UNL     1       6.309   6.385  17.523  0.00  0.00    +0.000 A 
ATOM      2  C   UNL     1       6.870   5.507  18.462  0.00  0.00    +0.000 A 
ATOM      3  C   UNL     1       7.969   5.894  19.223  0.00  0.00    +0.000 A 
ATOM      4  C   UNL     1       8.534   7.158  19.052  0.00  0.00    +0.000 A 
ATOM      5  C   UNL     1       8.006   8.057  18.125  0.00  0.00    +0.000 A 
ATOM      6  C   UNL     1       6.880   7.672  17.382  0.00  0.00    +0.000 A 
ENDROOT
BRANCH   5   7
ATOM      7  N   UNL     1       8.551   9.345  17.909  0.00  0.00    +0.000 N 
ATOM      8  C   UNL     1       9.015  10.215  18.884  0.00  0.00    +0.000 C 
ATOM      9  O   UNL     1       9.063  10.002  20.092  0.00  0.00    +0.000 OA
ATOM     10  H   UNL     1       8.679   9.662  16.954  0.00  0.00    +0.000 HD
BRANCH   8  11
ATOM     11  C   UNL     1       9.533  11.521  18.368  0.00  0.00    +0.000 A 
ATOM     12  C   UNL     1      10.718  11.533  17.639  0.00  0.00    +0.000 A 
ATOM     13  C   UNL     1      11.186  12.746  17.154  0.00  0.00    +0.000 A 
ATOM     14  C   UNL     1      10.459  13.902  17.414  0.00  0.00    +0.000 A 
ATOM     15  C   UNL     1       9.278  13.815  18.152  0.00  0.00    +0.000 A 
ATOM     16  N   UNL     1       8.797  12.637  18.639  0.00  0.00    +0.000 NA
BRANCH  15  17
ATOM     17  C   UNL     1       8.473  15.059  18.433  0.00  0.00    +0.000 C 
ATOM     18  F   UNL     1       8.218  15.816  17.325  0.00  0.00    +0.000 F 
ENDBRANCH  15  17
ENDBRANCH   8  11
ENDBRANCH   5   7
BRANCH   1  20
ATOM     19  C   UNL     1       4.986   6.639  15.374  0.00  0.00    +0.000 C 
ATOM     20  C   UNL     1       5.074   5.946  16.737  0.00  0.00    +0.000 C 
BRANCH  20  21
ATOM     21  S   UNL     1       3.599   6.254  17.778  0.00  0.00    +0.000 S 
BRANCH  21  22
ATOM     22  C   UNL     1       2.861   4.703  17.920  0.00  0.00    +0.000 A 
ATOM     23  N   UNL     1       2.857   3.716  17.050  0.00  0.00    +0.000 NA
ATOM     24  N   UNL     1       2.106   2.691  17.592  0.00  0.00    +0.000 NA
ATOM     25  C   UNL     1       1.689   3.082  18.776  0.00  0.00    +0.000 A 
ATOM     26  N   UNL     1       2.153   4.335  19.026  0.00  0.00    +0.000 N 
ATOM     27  C   UNL     1       1.913   5.110  20.217  0.00  0.00    +0.000 C 
ENDBRANCH  21  22
ENDBRANCH  20  21
ENDBRANCH   1  20
TORSDOF 6
ENDMDL
MODEL 6
REMARK VINA RESULT:      -7.1      5.573      7.780
REMARK  Name = 
REMARK  8 active torsions:
REMARK  status: ('A' for Active; 'I' for Inactive)
REMARK    1  A    between atoms: C_1  and  C_2
REMARK    2  A    between atoms: C_2  and  S_3
REMARK    3  A    between atoms: C_2  and  C_10
REMARK    4  A    between atoms: S_3  and  C_4
REMARK    5  A    between atoms: N_8  and  C_9
REMARK    6  A    between atoms: C_14  and  N_15
REMARK    7  A    between atoms: C_16  and  C_18
REMARK    8  A    between atoms: C_22  and  C_23
REMARK                            x       y       z     vdW  Elec       q    Type
REMARK                         _______ _______ _______ _____ _____    ______ ____
ROOT
ATOM      1  C   UNL     1       2.955   6.353  19.042  0.00  0.00    +0.000 A 
ATOM      2  C   UNL     1       2.758   5.253  19.889  0.00  0.00    +0.000 A 
ATOM      3  C   UNL     1       3.204   3.986  19.519  0.00  0.00    +0.000 A 
ATOM      4  C   UNL     1       3.844   3.796  18.295  0.00  0.00    +0.000 A 
ATOM      5  C   UNL     1       4.055   4.866  17.424  0.00  0.00    +0.000 A 
ATOM      6  C   UNL     1       3.628   6.144  17.815  0.00  0.00    +0.000 A 
ENDROOT
BRANCH   5   7
ATOM      7  N   UNL     1       4.689   4.719  16.169  0.00  0.00    +0.000 N 
ATOM      8  C   UNL     1       6.053   4.612  15.944  0.00  0.00    +0.000 C 
ATOM      9  O   UNL     1       6.935   4.591  16.797  0.00  0.00    +0.000 OA
ATOM     10  H   UNL     1       4.108   4.621  15.342  0.00  0.00    +0.000 HD
BRANCH   8  11
ATOM     11  C   UNL     1       6.446   4.473  14.505  0.00  0.00    +0.000 A 
ATOM     12  C   UNL     1       7.513   5.226  14.025  0.00  0.00    +0.000 A 
ATOM     13  C   UNL     1       7.877   5.084  12.694  0.00  0.00    +0.000 A 
ATOM     14  C   UNL     1       7.166   4.200  11.891  0.00  0.00    +0.000 A 
ATOM     15  C   UNL     1       6.108   3.476  12.441  0.00  0.00    +0.000 A 
ATOM     16  N   UNL     1       5.730   3.597  13.744  0.00  0.00    +0.000 NA
BRANCH  15  17
ATOM     17  C   UNL     1       5.334   2.505  11.584  0.00  0.00    +0.000 C 
ATOM     18  F   UNL     1       4.081   2.936  11.253  0.00  0.00    +0.000 F 
ENDBRANCH  15  17
ENDBRANCH   8  11
ENDBRANCH   5   7
BRANCH   1  20
ATOM     19  C   UNL     1       1.515   7.655  20.674  0.00  0.00    +0.000 C 
ATOM     20  C   UNL     1       2.495   7.736  19.499  0.00  0.00    +0.000 C 
BRANCH  20  21
ATOM     21  S   UNL     1       1.784   8.605  18.052  0.00  0.00    +0.000 S 
BRANCH  21  22
ATOM     22  C   UNL     1       0.858   9.881  18.749  0.00  0.00    +0.000 A 
ATOM     23  N   UNL     1      -0.275   9.801  19.412  0.00  0.00    +0.000 NA
ATOM     24  N   UNL     1      -0.654  11.089  19.740  0.00  0.00    +0.000 NA
ATOM     25  C   UNL     1       0.265  11.907  19.278  0.00  0.00    +0.000 A 
ATOM     26  N   UNL     1       1.239  11.188  18.660  0.00  0.00    +0.000 N 
ATOM     27  C   UNL     1       2.419  11.719  18.025  0.00  0.00    +0.000 C 
ENDBRANCH  21  22
ENDBRANCH  20  21
ENDBRANCH   1  20
TORSDOF 6
ENDMDL
MODEL 7
REMARK VINA RESULT:      -7.1      5.238      6.905
REMARK  Name = 
REMARK  8 active torsions:
REMARK  status: ('A' for Active; 'I' for Inactive)
REMARK    1  A    between atoms: C_1  and  C_2
REMARK    2  A    between atoms: C_2  and  S_3
REMARK    3  A    between atoms: C_2  and  C_10
REMARK    4  A    between atoms: S_3  and  C_4
REMARK    5  A    between atoms: N_8  and  C_9
REMARK    6  A    between atoms: C_14  and  N_15
REMARK    7  A    between atoms: C_16  and  C_18
REMARK    8  A    between atoms: C_22  and  C_23
REMARK                            x       y       z     vdW  Elec       q    Type
REMARK                         _______ _______ _______ _____ _____    ______ ____
ROOT
ATOM      1  C   UNL     1       4.213   5.676  18.569  0.00  0.00    +0.000 A 
ATOM      2  C   UNL     1       4.274   6.112  17.238  0.00  0.00    +0.000 A 
ATOM      3  C   UNL     1       3.543   7.222  16.823  0.00  0.00    +0.000 A 
ATOM      4  C   UNL     1       2.731   7.907  17.726  0.00  0.00    +0.000 A 
ATOM      5  C   UNL     1       2.642   7.501  19.058  0.00  0.00    +0.000 A 
ATOM      6  C   UNL     1       3.403   6.400  19.476  0.00  0.00    +0.000 A 
ENDROOT
BRANCH   5   7
ATOM      7  N   UNL     1       1.825   8.158  20.007  0.00  0.00    +0.000 N 
ATOM      8  C   UNL     1       1.019   9.263  19.774  0.00  0.00    +0.000 C 
ATOM      9  O   UNL     1       0.855   9.834  18.700  0.00  0.00    +0.000 OA
ATOM     10  H   UNL     1       1.758   7.767  20.942  0.00  0.00    +0.000 HD
BRANCH   8  11
ATOM     11  C   UNL     1       0.265   9.756  20.970  0.00  0.00    +0.000 A 
ATOM     12  C   UNL     1       0.354   9.043  22.161  0.00  0.00    +0.000 A 
ATOM     13  C   UNL     1      -0.339   9.514  23.267  0.00  0.00    +0.000 A 
ATOM     14  C   UNL     1      -1.096  10.674  23.147  0.00  0.00    +0.000 A 
ATOM     15  C   UNL     1      -1.137  11.338  21.920  0.00  0.00    +0.000 A 
ATOM     16  N   UNL     1      -0.467  10.898  20.820  0.00  0.00    +0.000 NA
BRANCH  15  17
ATOM     17  C   UNL     1      -1.945  12.604  21.777  0.00  0.00    +0.000 C 
ATOM     18  F   UNL     1      -2.732  12.883  22.857  0.00  0.00    +0.000 F 
ENDBRANCH  15  17
ENDBRANCH   8  11
ENDBRANCH   5   7
BRANCH   1  20
ATOM     19  C   UNL     1       6.423   4.462  18.294  0.00  0.00    +0.000 C 
ATOM     20  C   UNL     1       5.065   4.483  19.002  0.00  0.00    +0.000 C 
BRANCH  20  21
ATOM     21  S   UNL     1       4.096   2.957  18.707  0.00  0.00    +0.000 S 
BRANCH  21  22
ATOM     22  C   UNL     1       3.100   2.822  20.107  0.00  0.00    +0.000 A 
ATOM     23  N   UNL     1       3.463   2.592  21.350  0.00  0.00    +0.000 NA
ATOM     24  N   UNL     1       2.311   2.534  22.112  0.00  0.00    +0.000 NA
ATOM     25  C   UNL     1       1.289   2.741  21.312  0.00  0.00    +0.000 A 
ATOM     26  N   UNL     1       1.742   2.941  20.046  0.00  0.00    +0.000 N 
ATOM     27  C   UNL     1       0.932   3.201  18.882  0.00  0.00    +0.000 C 
ENDBRANCH  21  22
ENDBRANCH  20  21
ENDBRANCH   1  20
TORSDOF 6
ENDMDL
MODEL 8
REMARK VINA RESULT:      -7.0      6.504      8.633
REMARK  Name = 
REMARK  8 active torsions:
REMARK  status: ('A' for Active; 'I' for Inactive)
REMARK    1  A    between atoms: C_1  and  C_2
REMARK    2  A    between atoms: C_2  and  S_3
REMARK    3  A    between atoms: C_2  and  C_10
REMARK    4  A    between atoms: S_3  and  C_4
REMARK    5  A    between atoms: N_8  and  C_9
REMARK    6  A    between atoms: C_14  and  N_15
REMARK    7  A    between atoms: C_16  and  C_18
REMARK    8  A    between atoms: C_22  and  C_23
REMARK                            x       y       z     vdW  Elec       q    Type
REMARK                         _______ _______ _______ _____ _____    ______ ____
ROOT
ATOM      1  C   UNL     1       0.151  10.631  19.890  0.00  0.00    +0.000 A 
ATOM      2  C   UNL     1      -0.181  10.544  21.250  0.00  0.00    +0.000 A 
ATOM      3  C   UNL     1       0.281   9.483  22.024  0.00  0.00    +0.000 A 
ATOM      4  C   UNL     1       1.072   8.487  21.451  0.00  0.00    +0.000 A 
ATOM      5  C   UNL     1       1.419   8.538  20.101  0.00  0.00    +0.000 A 
ATOM      6  C   UNL     1       0.974   9.625  19.334  0.00  0.00    +0.000 A 
ENDROOT
BRANCH   5   7
ATOM      7  N   UNL     1       2.209   7.546  19.475  0.00  0.00    +0.000 N 
ATOM      8  C   UNL     1       2.705   7.586  18.180  0.00  0.00    +0.000 C 
ATOM      9  O   UNL     1       2.572   8.502  17.374  0.00  0.00    +0.000 OA
ATOM     10  H   UNL     1       2.504   6.744  20.023  0.00  0.00    +0.000 HD
BRANCH   8  11
ATOM     11  C   UNL     1       3.508   6.388  17.775  0.00  0.00    +0.000 A 
ATOM     12  C   UNL     1       2.897   5.138  17.778  0.00  0.00    +0.000 A 
ATOM     13  C   UNL     1       3.645   4.035  17.391  0.00  0.00    +0.000 A 
ATOM     14  C   UNL     1       4.972   4.217  17.018  0.00  0.00    +0.000 A 
ATOM     15  C   UNL     1       5.518   5.501  17.038  0.00  0.00    +0.000 A 
ATOM     16  N   UNL     1       4.806   6.600  17.413  0.00  0.00    +0.000 NA
BRANCH  15  17
ATOM     17  C   UNL     1       6.953   5.715  16.625  0.00  0.00    +0.000 C 
ATOM     18  F   UNL     1       7.463   6.924  17.001  0.00  0.00    +0.000 F 
ENDBRANCH  15  17
ENDBRANCH   8  11
ENDBRANCH   5   7
BRANCH   1  20
ATOM     19  C   UNL     1       0.307  13.141  19.557  0.00  0.00    +0.000 C 
ATOM     20  C   UNL     1      -0.334  11.834  19.081  0.00  0.00    +0.000 C 
BRANCH  20  21
ATOM     21  S   UNL     1      -2.163  11.876  19.167  0.00  0.00    +0.000 S 
BRANCH  21  22
ATOM     22  C   UNL     1      -2.663  11.272  17.632  0.00  0.00    +0.000 A 
ATOM     23  N   UNL     1      -1.936  10.684  16.707  0.00  0.00    +0.000 NA
ATOM     24  N   UNL     1      -2.769  10.412  15.639  0.00  0.00    +0.000 NA
ATOM     25  C   UNL     1      -3.975  10.829  15.953  0.00  0.00    +0.000 A 
ATOM     26  N   UNL     1      -3.955  11.364  17.202  0.00  0.00    +0.000 N 
ATOM     27  C   UNL     1      -5.079  11.930  17.905  0.00  0.00    +0.000 C 
ENDBRANCH  21  22
ENDBRANCH  20  21
ENDBRANCH   1  20
TORSDOF 6
ENDMDL
MODEL 9
REMARK VINA RESULT:      -6.9      4.979      7.537
REMARK  Name = 
REMARK  8 active torsions:
REMARK  status: ('A' for Active; 'I' for Inactive)
REMARK    1  A    between atoms: C_1  and  C_2
REMARK    2  A    between atoms: C_2  and  S_3
REMARK    3  A    between atoms: C_2  and  C_10
REMARK    4  A    between atoms: S_3  and  C_4
REMARK    5  A    between atoms: N_8  and  C_9
REMARK    6  A    between atoms: C_14  and  N_15
REMARK    7  A    between atoms: C_16  and  C_18
REMARK    8  A    between atoms: C_22  and  C_23
REMARK                            x       y       z     vdW  Elec       q    Type
REMARK                         _______ _______ _______ _____ _____    ______ ____
ROOT
ATOM      1  C   UNL     1       4.765   4.187  18.608  0.00  0.00    +0.000 A 
ATOM      2  C   UNL     1       4.431   2.936  19.146  0.00  0.00    +0.000 A 
ATOM      3  C   UNL     1       3.413   2.821  20.089  0.00  0.00    +0.000 A 
ATOM      4  C   UNL     1       2.721   3.953  20.518  0.00  0.00    +0.000 A 
ATOM      5  C   UNL     1       3.028   5.215  20.008  0.00  0.00    +0.000 A 
ATOM      6  C   UNL     1       4.035   5.320  19.038  0.00  0.00    +0.000 A 
ENDROOT
BRANCH   5   7
ATOM      7  N   UNL     1       2.361   6.392  20.421  0.00  0.00    +0.000 N 
ATOM      8  C   UNL     1       2.032   7.475  19.620  0.00  0.00    +0.000 C 
ATOM      9  O   UNL     1       2.234   7.580  18.414  0.00  0.00    +0.000 OA
ATOM     10  H   UNL     1       2.028   6.449  21.379  0.00  0.00    +0.000 HD
BRANCH   8  11
ATOM     11  C   UNL     1       1.332   8.593  20.328  0.00  0.00    +0.000 A 
ATOM     12  C   UNL     1       1.194   8.531  21.711  0.00  0.00    +0.000 A 
ATOM     13  C   UNL     1       0.554   9.577  22.360  0.00  0.00    +0.000 A 
ATOM     14  C   UNL     1       0.073  10.643  21.610  0.00  0.00    +0.000 A 
ATOM     15  C   UNL     1       0.248  10.640  20.225  0.00  0.00    +0.000 A 
ATOM     16  N   UNL     1       0.873   9.626  19.564  0.00  0.00    +0.000 NA
BRANCH  15  17
ATOM     17  C   UNL     1      -0.259  11.795  19.399  0.00  0.00    +0.000 C 
ATOM     18  F   UNL     1      -1.614  11.806  19.235  0.00  0.00    +0.000 F 
ENDBRANCH  15  17
ENDBRANCH   8  11
ENDBRANCH   5   7
BRANCH   1  20
ATOM     19  C   UNL     1       7.172   4.811  18.108  0.00  0.00    +0.000 C 
ATOM     20  C   UNL     1       5.856   4.272  17.540  0.00  0.00    +0.000 C 
BRANCH  20  21
ATOM     21  S   UNL     1       5.219   5.289  16.157  0.00  0.00    +0.000 S 
BRANCH  21  22
ATOM     22  C   UNL     1       6.479   5.225  14.982  0.00  0.00    +0.000 A 
ATOM     23  N   UNL     1       7.661   5.800  15.018  0.00  0.00    +0.000 NA
ATOM     24  N   UNL     1       8.306   5.491  13.836  0.00  0.00    +0.000 NA
ATOM     25  C   UNL     1       7.503   4.729  13.127  0.00  0.00    +0.000 A 
ATOM     26  N   UNL     1       6.350   4.526  13.817  0.00  0.00    +0.000 N 
ATOM     27  C   UNL     1       5.220   3.746  13.378  0.00  0.00    +0.000 C 
ENDBRANCH  21  22
ENDBRANCH  20  21
ENDBRANCH   1  20
TORSDOF 6
ENDMDL
