MODEL 1
REMARK VINA RESULT:      -8.1      0.000      0.000
REMARK  Name = 
REMARK  6 active torsions:
REMARK  status: ('A' for Active; 'I' for Inactive)
REMARK    1  A    between atoms: C_1  and  C_2
REMARK    2  A    between atoms: C_2  and  S_3
REMARK    3  A    between atoms: C_2  and  C_10
REMARK    4  A    between atoms: S_3  and  C_4
REMARK    5  A    between atoms: N_8  and  C_9
REMARK    6  A    between atoms: C_14  and  N_15
REMARK                            x       y       z     vdW  Elec       q    Type
REMARK                         _______ _______ _______ _____ _____    ______ ____
ROOT
ATOM      1  C   UNL     1       4.605   5.277  17.094  0.00  0.00    +0.000 A 
ATOM      2  C   UNL     1       5.373   4.265  16.486  0.00  0.00    +0.000 A 
ATOM      3  C   UNL     1       6.701   4.481  16.173  0.00  0.00    +0.000 A 
ATOM      4  C   UNL     1       7.287   5.719  16.428  0.00  0.00    +0.000 A 
ATOM      5  C   UNL     1       6.551   6.781  16.968  0.00  0.00    +0.000 A 
ATOM      6  C   UNL     1       5.219   6.533  17.336  0.00  0.00    +0.000 A 
ENDROOT
BRANCH   5   7
ATOM      7  N   UNL     1       7.109   8.085  17.140  0.00  0.00    +0.000 N 
ATOM      8  C   UNL     1       8.041   8.376  18.118  0.00  0.00    +0.000 C 
ATOM      9  O   UNL     1       8.475   7.547  18.916  0.00  0.00    +0.000 OA
ATOM     10  N   UNL     1       8.551   9.630  18.177  0.00  0.00    +0.000 N 
ATOM     11  C   UNL     1       9.617   9.968  19.095  0.00  0.00    +0.000 C 
ATOM     12  C   UNL     1       9.725  11.339  18.427  0.00  0.00    +0.000 C 
ATOM     13  C   UNL     1       9.971  12.301  19.589  0.00  0.00    +0.000 C 
ATOM     14  C   UNL     1      10.865  13.397  19.036  0.00  0.00    +0.000 C 
ATOM     15  C   UNL     1      11.252  12.959  17.637  0.00  0.00    +0.000 C 
ATOM     16  O   UNL     1      10.838  11.593  17.526  0.00  0.00    +0.000 OA
ATOM     17  C   UNL     1       8.378  10.971  17.675  0.00  0.00    +0.000 C 
ATOM     18  H   UNL     1       7.050   8.737  16.367  0.00  0.00    +0.000 HD
ENDBRANCH   5   7
BRANCH   1  20
ATOM     19  C   UNL     1       2.693   5.743  18.792  0.00  0.00    +0.000 C 
ATOM     20  C   UNL     1       3.164   5.025  17.519  0.00  0.00    +0.000 C 
BRANCH  20  21
ATOM     21  S   UNL     1       2.724   3.251  17.556  0.00  0.00    +0.000 S 
BRANCH  21  22
ATOM     22  C   UNL     1       3.123   2.773  19.163  0.00  0.00    +0.000 A 
ATOM     23  N   UNL     1       4.314   2.479  19.633  0.00  0.00    +0.000 NA
ATOM     24  N   UNL     1       4.187   2.276  20.993  0.00  0.00    +0.000 NA
ATOM     25  C   UNL     1       2.924   2.458  21.307  0.00  0.00    +0.000 A 
ATOM     26  N   UNL     1       2.216   2.764  20.184  0.00  0.00    +0.000 N 
ATOM     27  C   UNL     1       0.802   3.010  20.117  0.00  0.00    +0.000 C 
ENDBRANCH  21  22
ENDBRANCH  20  21
ENDBRANCH   1  20
TORSDOF 4
ENDMDL
MODEL 2
REMARK VINA RESULT:      -8.0      1.615      1.922
REMARK  Name = 
REMARK  6 active torsions:
REMARK  status: ('A' for Active; 'I' for Inactive)
REMARK    1  A    between atoms: C_1  and  C_2
REMARK    2  A    between atoms: C_2  and  S_3
REMARK    3  A    between atoms: C_2  and  C_10
REMARK    4  A    between atoms: S_3  and  C_4
REMARK    5  A    between atoms: N_8  and  C_9
REMARK    6  A    between atoms: C_14  and  N_15
REMARK                            x       y       z     vdW  Elec       q    Type
REMARK                         _______ _______ _______ _____ _____    ______ ____
ROOT
ATOM      1  C   UNL     1       5.041   4.101  16.801  0.00  0.00    +0.000 A 
ATOM      2  C   UNL     1       5.547   3.489  15.639  0.00  0.00    +0.000 A 
ATOM      3  C   UNL     1       6.540   4.098  14.897  0.00  0.00    +0.000 A 
ATOM      4  C   UNL     1       7.030   5.346  15.277  0.00  0.00    +0.000 A 
ATOM      5  C   UNL     1       6.514   6.029  16.385  0.00  0.00    +0.000 A 
ATOM      6  C   UNL     1       5.547   5.376  17.164  0.00  0.00    +0.000 A 
ENDROOT
BRANCH   5   7
ATOM      7  N   UNL     1       6.933   7.352  16.726  0.00  0.00    +0.000 N 
ATOM      8  C   UNL     1       7.756   7.621  17.803  0.00  0.00    +0.000 C 
ATOM      9  O   UNL     1       8.203   6.755  18.554  0.00  0.00    +0.000 OA
ATOM     10  N   UNL     1       8.141   8.901  18.024  0.00  0.00    +0.000 N 
ATOM     11  C   UNL     1       9.096   9.234  19.058  0.00  0.00    +0.000 C 
ATOM     12  C   UNL     1       9.127  10.670  18.535  0.00  0.00    +0.000 C 
ATOM     13  C   UNL     1       9.192  11.526  19.800  0.00  0.00    +0.000 C 
ATOM     14  C   UNL     1      10.019  12.745  19.431  0.00  0.00    +0.000 C 
ATOM     15  C   UNL     1      10.552  12.486  18.036  0.00  0.00    +0.000 C 
ATOM     16  O   UNL     1      10.277  11.109  17.760  0.00  0.00    +0.000 OA
ATOM     17  C   UNL     1       7.882  10.266  17.638  0.00  0.00    +0.000 C 
ATOM     18  H   UNL     1       6.873   8.072  16.016  0.00  0.00    +0.000 HD
ENDBRANCH   5   7
BRANCH   1  20
ATOM     19  C   UNL     1       2.532   3.698  17.352  0.00  0.00    +0.000 C 
ATOM     20  C   UNL     1       4.005   3.402  17.673  0.00  0.00    +0.000 C 
BRANCH  20  21
ATOM     21  S   UNL     1       4.340   3.567  19.462  0.00  0.00    +0.000 S 
BRANCH  21  22
ATOM     22  C   UNL     1       3.242   4.797  19.964  0.00  0.00    +0.000 A 
ATOM     23  N   UNL     1       3.242   6.059  19.601  0.00  0.00    +0.000 NA
ATOM     24  N   UNL     1       2.115   6.649  20.140  0.00  0.00    +0.000 NA
ATOM     25  C   UNL     1       1.464   5.724  20.809  0.00  0.00    +0.000 A 
ATOM     26  N   UNL     1       2.142   4.545  20.732  0.00  0.00    +0.000 N 
ATOM     27  C   UNL     1       1.759   3.307  21.355  0.00  0.00    +0.000 C 
ENDBRANCH  21  22
ENDBRANCH  20  21
ENDBRANCH   1  20
TORSDOF 4
ENDMDL
MODEL 3
REMARK VINA RESULT:      -8.0      1.108      1.541
REMARK  Name = 
REMARK  6 active torsions:
REMARK  status: ('A' for Active; 'I' for Inactive)
REMARK    1  A    between atoms: C_1  and  C_2
REMARK    2  A    between atoms: C_2  and  S_3
REMARK    3  A    between atoms: C_2  and  C_10
REMARK    4  A    between atoms: S_3  and  C_4
REMARK    5  A    between atoms: N_8  and  C_9
REMARK    6  A    between atoms: C_14  and  N_15
REMARK                            x       y       z     vdW  Elec       q    Type
REMARK                         _______ _______ _______ _____ _____    ______ ____
ROOT
ATOM      1  C   UNL     1       4.734   4.607  17.140  0.00  0.00    +0.000 A 
ATOM      2  C   UNL     1       5.300   3.808  16.129  0.00  0.00    +0.000 A 
ATOM      3  C   UNL     1       6.422   4.229  15.443  0.00  0.00    +0.000 A 
ATOM      4  C   UNL     1       6.990   5.470  15.725  0.00  0.00    +0.000 A 
ATOM      5  C   UNL     1       6.427   6.333  16.674  0.00  0.00    +0.000 A 
ATOM      6  C   UNL     1       5.322   5.871  17.405  0.00  0.00    +0.000 A 
ENDROOT
BRANCH   5   7
ATOM      7  N   UNL     1       6.935   7.649  16.902  0.00  0.00    +0.000 N 
ATOM      8  C   UNL     1       7.803   7.947  17.935  0.00  0.00    +0.000 C 
ATOM      9  O   UNL     1       8.217   7.114  18.740  0.00  0.00    +0.000 OA
ATOM     10  N   UNL     1       8.271   9.213  18.047  0.00  0.00    +0.000 N 
ATOM     11  C   UNL     1       9.274   9.563  19.029  0.00  0.00    +0.000 C 
ATOM     12  C   UNL     1       9.378  10.951  18.394  0.00  0.00    +0.000 C 
ATOM     13  C   UNL     1       9.530  11.894  19.587  0.00  0.00    +0.000 C 
ATOM     14  C   UNL     1      10.420  13.027  19.106  0.00  0.00    +0.000 C 
ATOM     15  C   UNL     1      10.896  12.630  17.723  0.00  0.00    +0.000 C 
ATOM     16  O   UNL     1      10.530  11.256  17.562  0.00  0.00    +0.000 OA
ATOM     17  C   UNL     1       8.086  10.559  17.562  0.00  0.00    +0.000 C 
ATOM     18  H   UNL     1       6.899   8.315  16.139  0.00  0.00    +0.000 HD
ENDBRANCH   5   7
BRANCH   1  20
ATOM     19  C   UNL     1       2.231   3.907  17.194  0.00  0.00    +0.000 C 
ATOM     20  C   UNL     1       3.547   4.118  17.959  0.00  0.00    +0.000 C 
BRANCH  20  21
ATOM     21  S   UNL     1       3.278   5.085  19.486  0.00  0.00    +0.000 S 
BRANCH  21  22
ATOM     22  C   UNL     1       2.680   3.915  20.602  0.00  0.00    +0.000 A 
ATOM     23  N   UNL     1       1.583   3.989  21.320  0.00  0.00    +0.000 NA
ATOM     24  N   UNL     1       1.430   2.782  21.973  0.00  0.00    +0.000 NA
ATOM     25  C   UNL     1       2.436   2.012  21.627  0.00  0.00    +0.000 A 
ATOM     26  N   UNL     1       3.253   2.687  20.771  0.00  0.00    +0.000 N 
ATOM     27  C   UNL     1       4.470   2.188  20.192  0.00  0.00    +0.000 C 
ENDBRANCH  21  22
ENDBRANCH  20  21
ENDBRANCH   1  20
TORSDOF 4
ENDMDL
MODEL 4
REMARK VINA RESULT:      -7.9      3.355      4.632
REMARK  Name = 
REMARK  6 active torsions:
REMARK  status: ('A' for Active; 'I' for Inactive)
REMARK    1  A    between atoms: C_1  and  C_2
REMARK    2  A    between atoms: C_2  and  S_3
REMARK    3  A    between atoms: C_2  and  C_10
REMARK    4  A    between atoms: S_3  and  C_4
REMARK    5  A    between atoms: N_8  and  C_9
REMARK    6  A    between atoms: C_14  and  N_15
REMARK                            x       y       z     vdW  Elec       q    Type
REMARK                         _______ _______ _______ _____ _____    ______ ____
ROOT
ATOM      1  C   UNL     1       6.384   5.956  17.286  0.00  0.00    +0.000 A 
ATOM      2  C   UNL     1       7.142   5.198  18.197  0.00  0.00    +0.000 A 
ATOM      3  C   UNL     1       8.095   5.801  18.995  0.00  0.00    +0.000 A 
ATOM      4  C   UNL     1       8.338   7.168  18.882  0.00  0.00    +0.000 A 
ATOM      5  C   UNL     1       7.660   7.957  17.944  0.00  0.00    +0.000 A 
ATOM      6  C   UNL     1       6.655   7.345  17.179  0.00  0.00    +0.000 A 
ENDROOT
BRANCH   5   7
ATOM      7  N   UNL     1       7.970   9.338  17.744  0.00  0.00    +0.000 N 
ATOM      8  C   UNL     1       8.781  10.054  18.604  0.00  0.00    +0.000 C 
ATOM      9  O   UNL     1       9.309   9.572  19.605  0.00  0.00    +0.000 OA
ATOM     10  N   UNL     1       9.058  11.347  18.310  0.00  0.00    +0.000 N 
ATOM     11  C   UNL     1       9.995  12.115  19.100  0.00  0.00    +0.000 C 
ATOM     12  C   UNL     1       9.898  13.245  18.074  0.00  0.00    +0.000 C 
ATOM     13  C   UNL     1       9.905  14.518  18.920  0.00  0.00    +0.000 C 
ATOM     14  C   UNL     1      10.622  15.564  18.084  0.00  0.00    +0.000 C 
ATOM     15  C   UNL     1      11.158  14.837  16.867  0.00  0.00    +0.000 C 
ATOM     16  O   UNL     1      10.997  13.441  17.142  0.00  0.00    +0.000 OA
ATOM     17  C   UNL     1       8.681  12.441  17.450  0.00  0.00    +0.000 C 
ATOM     18  H   UNL     1       7.841   9.728  16.819  0.00  0.00    +0.000 HD
ENDBRANCH   5   7
BRANCH   1  20
ATOM     19  C   UNL     1       3.965   5.009  17.200  0.00  0.00    +0.000 C 
ATOM     20  C   UNL     1       5.274   5.318  16.460  0.00  0.00    +0.000 C 
BRANCH  20  21
ATOM     21  S   UNL     1       5.840   3.881  15.483  0.00  0.00    +0.000 S 
BRANCH  21  22
ATOM     22  C   UNL     1       6.774   4.595  14.223  0.00  0.00    +0.000 A 
ATOM     23  N   UNL     1       7.726   5.491  14.348  0.00  0.00    +0.000 NA
ATOM     24  N   UNL     1       8.286   5.683  13.101  0.00  0.00    +0.000 NA
ATOM     25  C   UNL     1       7.658   4.894  12.258  0.00  0.00    +0.000 A 
ATOM     26  N   UNL     1       6.693   4.197  12.919  0.00  0.00    +0.000 N 
ATOM     27  C   UNL     1       5.781   3.253  12.334  0.00  0.00    +0.000 C 
ENDBRANCH  21  22
ENDBRANCH  20  21
ENDBRANCH   1  20
TORSDOF 4
ENDMDL
MODEL 5
REMARK VINA RESULT:      -7.9      1.837      2.383
REMARK  Name = 
REMARK  6 active torsions:
REMARK  status: ('A' for Active; 'I' for Inactive)
REMARK    1  A    between atoms: C_1  and  C_2
REMARK    2  A    between atoms: C_2  and  S_3
REMARK    3  A    between atoms: C_2  and  C_10
REMARK    4  A    between atoms: S_3  and  C_4
REMARK    5  A    between atoms: N_8  and  C_9
REMARK    6  A    between atoms: C_14  and  N_15
REMARK                            x       y       z     vdW  Elec       q    Type
REMARK                         _______ _______ _______ _____ _____    ______ ____
ROOT
ATOM      1  C   UNL     1       4.930   4.273  17.107  0.00  0.00    +0.000 A 
ATOM      2  C   UNL     1       5.438   3.582  15.992  0.00  0.00    +0.000 A 
ATOM      3  C   UNL     1       6.461   4.120  15.235  0.00  0.00    +0.000 A 
ATOM      4  C   UNL     1       6.981   5.373  15.553  0.00  0.00    +0.000 A 
ATOM      5  C   UNL     1       6.465   6.133  16.610  0.00  0.00    +0.000 A 
ATOM      6  C   UNL     1       5.466   5.553  17.406  0.00  0.00    +0.000 A 
ENDROOT
BRANCH   5   7
ATOM      7  N   UNL     1       6.917   7.461  16.884  0.00  0.00    +0.000 N 
ATOM      8  C   UNL     1       7.790   7.757  17.914  0.00  0.00    +0.000 C 
ATOM      9  O   UNL     1       8.257   6.912  18.676  0.00  0.00    +0.000 OA
ATOM     10  N   UNL     1       8.201   9.038  18.070  0.00  0.00    +0.000 N 
ATOM     11  C   UNL     1       9.205   9.394  19.049  0.00  0.00    +0.000 C 
ATOM     12  C   UNL     1       9.232  10.809  18.471  0.00  0.00    +0.000 C 
ATOM     13  C   UNL     1       9.364  11.710  19.699  0.00  0.00    +0.000 C 
ATOM     14  C   UNL     1      10.191  12.902  19.250  0.00  0.00    +0.000 C 
ATOM     15  C   UNL     1      10.659  12.584  17.844  0.00  0.00    +0.000 C 
ATOM     16  O   UNL     1      10.354  11.202  17.632  0.00  0.00    +0.000 OA
ATOM     17  C   UNL     1       7.944  10.392  17.645  0.00  0.00    +0.000 C 
ATOM     18  H   UNL     1       6.836   8.155  16.151  0.00  0.00    +0.000 HD
ENDBRANCH   5   7
BRANCH   1  20
ATOM     19  C   UNL     1       3.811   2.121  18.041  0.00  0.00    +0.000 C 
ATOM     20  C   UNL     1       3.859   3.656  17.997  0.00  0.00    +0.000 C 
BRANCH  20  21
ATOM     21  S   UNL     1       2.197   4.364  17.722  0.00  0.00    +0.000 S 
BRANCH  21  22
ATOM     22  C   UNL     1       2.243   5.846  18.601  0.00  0.00    +0.000 A 
ATOM     23  N   UNL     1       2.342   7.060  18.109  0.00  0.00    +0.000 NA
ATOM     24  N   UNL     1       2.212   7.948  19.159  0.00  0.00    +0.000 NA
ATOM     25  C   UNL     1       2.034   7.245  20.255  0.00  0.00    +0.000 A 
ATOM     26  N   UNL     1       2.054   5.917  19.952  0.00  0.00    +0.000 N 
ATOM     27  C   UNL     1       1.917   4.834  20.887  0.00  0.00    +0.000 C 
ENDBRANCH  21  22
ENDBRANCH  20  21
ENDBRANCH   1  20
TORSDOF 4
ENDMDL
MODEL 6
REMARK VINA RESULT:      -7.8      4.498      7.317
REMARK  Name = 
REMARK  6 active torsions:
REMARK  status: ('A' for Active; 'I' for Inactive)
REMARK    1  A    between atoms: C_1  and  C_2
REMARK    2  A    between atoms: C_2  and  S_3
REMARK    3  A    between atoms: C_2  and  C_10
REMARK    4  A    between atoms: S_3  and  C_4
REMARK    5  A    between atoms: N_8  and  C_9
REMARK    6  A    between atoms: C_14  and  N_15
REMARK                            x       y       z     vdW  Elec       q    Type
REMARK                         _______ _______ _______ _____ _____    ______ ____
ROOT
ATOM      1  C   UNL     1       4.134   4.793  17.023  0.00  0.00    +0.000 A 
ATOM      2  C   UNL     1       3.358   3.618  17.036  0.00  0.00    +0.000 A 
ATOM      3  C   UNL     1       2.174   3.563  17.745  0.00  0.00    +0.000 A 
ATOM      4  C   UNL     1       1.749   4.666  18.483  0.00  0.00    +0.000 A 
ATOM      5  C   UNL     1       2.516   5.835  18.560  0.00  0.00    +0.000 A 
ATOM      6  C   UNL     1       3.688   5.901  17.790  0.00  0.00    +0.000 A 
ENDROOT
BRANCH   5   7
ATOM      7  N   UNL     1       2.146   6.935  19.394  0.00  0.00    +0.000 N 
ATOM      8  C   UNL     1       1.786   8.169  18.888  0.00  0.00    +0.000 C 
ATOM      9  O   UNL     1       1.746   8.429  17.686  0.00  0.00    +0.000 OA
ATOM     10  N   UNL     1       1.404   9.140  19.751  0.00  0.00    +0.000 N 
ATOM     11  C   UNL     1       0.900  10.412  19.282  0.00  0.00    +0.000 C 
ATOM     12  C   UNL     1       0.539  10.775  20.723  0.00  0.00    +0.000 C 
ATOM     13  C   UNL     1       0.895  12.257  20.834  0.00  0.00    +0.000 C 
ATOM     14  C   UNL     1      -0.116  12.854  21.797  0.00  0.00    +0.000 C 
ATOM     15  C   UNL     1      -1.124  11.757  22.081  0.00  0.00    +0.000 C 
ATOM     16  O   UNL     1      -0.856  10.722  21.130  0.00  0.00    +0.000 OA
ATOM     17  C   UNL     1       1.368   9.492  21.149  0.00  0.00    +0.000 C 
ATOM     18  H   UNL     1       1.860   6.739  20.345  0.00  0.00    +0.000 HD
ENDBRANCH   5   7
BRANCH   1  20
ATOM     19  C   UNL     1       5.395   4.126  14.850  0.00  0.00    +0.000 C 
ATOM     20  C   UNL     1       5.398   4.894  16.180  0.00  0.00    +0.000 C 
BRANCH  20  21
ATOM     21  S   UNL     1       6.925   4.567  17.131  0.00  0.00    +0.000 S 
BRANCH  21  22
ATOM     22  C   UNL     1       7.529   6.145  17.473  0.00  0.00    +0.000 A 
ATOM     23  N   UNL     1       7.537   7.185  16.672  0.00  0.00    +0.000 NA
ATOM     24  N   UNL     1       7.994   8.268  17.397  0.00  0.00    +0.000 NA
ATOM     25  C   UNL     1       8.244   7.852  18.618  0.00  0.00    +0.000 A 
ATOM     26  N   UNL     1       7.974   6.520  18.709  0.00  0.00    +0.000 N 
ATOM     27  C   UNL     1       8.145   5.700  19.877  0.00  0.00    +0.000 C 
ENDBRANCH  21  22
ENDBRANCH  20  21
ENDBRANCH   1  20
TORSDOF 4
ENDMDL
MODEL 7
REMARK VINA RESULT:      -7.7      0.882      1.369
REMARK  Name = 
REMARK  6 active torsions:
REMARK  status: ('A' for Active; 'I' for Inactive)
REMARK    1  A    between atoms: C_1  and  C_2
REMARK    2  A    between atoms: C_2  and  S_3
REMARK    3  A    between atoms: C_2  and  C_10
REMARK    4  A    between atoms: S_3  and  C_4
REMARK    5  A    between atoms: N_8  and  C_9
REMARK    6  A    between atoms: C_14  and  N_15
REMARK                            x       y       z     vdW  Elec       q    Type
REMARK                         _______ _______ _______ _____ _____    ______ ____
ROOT
ATOM      1  C   UNL     1       4.806   5.783  17.424  0.00  0.00    +0.000 A 
ATOM      2  C   UNL     1       5.647   4.704  17.093  0.00  0.00    +0.000 A 
ATOM      3  C   UNL     1       7.003   4.896  16.916  0.00  0.00    +0.000 A 
ATOM      4  C   UNL     1       7.550   6.172  17.034  0.00  0.00    +0.000 A 
ATOM      5  C   UNL     1       6.748   7.291  17.294  0.00  0.00    +0.000 A 
ATOM      6  C   UNL     1       5.381   7.076  17.529  0.00  0.00    +0.000 A 
ENDROOT
BRANCH   5   7
ATOM      7  N   UNL     1       7.277   8.618  17.315  0.00  0.00    +0.000 N 
ATOM      8  C   UNL     1       8.265   9.015  18.196  0.00  0.00    +0.000 C 
ATOM      9  O   UNL     1       8.778   8.268  19.029  0.00  0.00    +0.000 OA
ATOM     10  N   UNL     1       8.740  10.281  18.113  0.00  0.00    +0.000 N 
ATOM     11  C   UNL     1       9.855  10.723  18.922  0.00  0.00    +0.000 C 
ATOM     12  C   UNL     1       9.876  12.034  18.135  0.00  0.00    +0.000 C 
ATOM     13  C   UNL     1      10.172  13.097  19.192  0.00  0.00    +0.000 C 
ATOM     14  C   UNL     1      10.992  14.163  18.486  0.00  0.00    +0.000 C 
ATOM     15  C   UNL     1      11.296  13.616  17.105  0.00  0.00    +0.000 C 
ATOM     16  O   UNL     1      10.917  12.236  17.139  0.00  0.00    +0.000 OA
ATOM     17  C   UNL     1       8.493  11.569  17.514  0.00  0.00    +0.000 C 
ATOM     18  H   UNL     1       7.146   9.199  16.497  0.00  0.00    +0.000 HD
ENDBRANCH   5   7
BRANCH   1  20
ATOM     19  C   UNL     1       2.772   6.208  18.986  0.00  0.00    +0.000 C 
ATOM     20  C   UNL     1       3.323   5.571  17.702  0.00  0.00    +0.000 C 
BRANCH  20  21
ATOM     21  S   UNL     1       2.805   3.824  17.552  0.00  0.00    +0.000 S 
BRANCH  21  22
ATOM     22  C   UNL     1       2.286   3.422  19.146  0.00  0.00    +0.000 A 
ATOM     23  N   UNL     1       1.080   3.559  19.648  0.00  0.00    +0.000 NA
ATOM     24  N   UNL     1       1.086   2.995  20.908  0.00  0.00    +0.000 NA
ATOM     25  C   UNL     1       2.294   2.529  21.130  0.00  0.00    +0.000 A 
ATOM     26  N   UNL     1       3.085   2.784  20.051  0.00  0.00    +0.000 N 
ATOM     27  C   UNL     1       4.477   2.448  19.924  0.00  0.00    +0.000 C 
ENDBRANCH  21  22
ENDBRANCH  20  21
ENDBRANCH   1  20
TORSDOF 4
ENDMDL
MODEL 8
REMARK VINA RESULT:      -7.6      5.085      7.880
REMARK  Name = 
REMARK  6 active torsions:
REMARK  status: ('A' for Active; 'I' for Inactive)
REMARK    1  A    between atoms: C_1  and  C_2
REMARK    2  A    between atoms: C_2  and  S_3
REMARK    3  A    between atoms: C_2  and  C_10
REMARK    4  A    between atoms: S_3  and  C_4
REMARK    5  A    between atoms: N_8  and  C_9
REMARK    6  A    between atoms: C_14  and  N_15
REMARK                            x       y       z     vdW  Elec       q    Type
REMARK                         _______ _______ _______ _____ _____    ______ ____
ROOT
ATOM      1  C   UNL     1       4.267   5.228  17.955  0.00  0.00    +0.000 A 
ATOM      2  C   UNL     1       3.804   3.925  18.222  0.00  0.00    +0.000 A 
ATOM      3  C   UNL     1       2.795   3.710  19.140  0.00  0.00    +0.000 A 
ATOM      4  C   UNL     1       2.244   4.783  19.838  0.00  0.00    +0.000 A 
ATOM      5  C   UNL     1       2.714   6.090  19.661  0.00  0.00    +0.000 A 
ATOM      6  C   UNL     1       3.699   6.305  18.684  0.00  0.00    +0.000 A 
ENDROOT
BRANCH   5   7
ATOM      7  N   UNL     1       2.231   7.185  20.442  0.00  0.00    +0.000 N 
ATOM      8  C   UNL     1       1.604   8.283  19.883  0.00  0.00    +0.000 C 
ATOM      9  O   UNL     1       1.401   8.413  18.677  0.00  0.00    +0.000 OA
ATOM     10  N   UNL     1       1.136   9.253  20.705  0.00  0.00    +0.000 N 
ATOM     11  C   UNL     1       0.365  10.365  20.197  0.00  0.00    +0.000 C 
ATOM     12  C   UNL     1       0.085  10.799  21.636  0.00  0.00    +0.000 C 
ATOM     13  C   UNL     1       0.172  12.324  21.589  0.00  0.00    +0.000 C 
ATOM     14  C   UNL     1      -0.834  12.827  22.610  0.00  0.00    +0.000 C 
ATOM     15  C   UNL     1      -1.591  11.605  23.092  0.00  0.00    +0.000 C 
ATOM     16  O   UNL     1      -1.231  10.544  22.201  0.00  0.00    +0.000 OA
ATOM     17  C   UNL     1       1.172   9.727  22.066  0.00  0.00    +0.000 C 
ATOM     18  H   UNL     1       2.079   7.037  21.432  0.00  0.00    +0.000 HD
ENDBRANCH   5   7
BRANCH   1  20
ATOM     19  C   UNL     1       5.148   6.764  16.053  0.00  0.00    +0.000 C 
ATOM     20  C   UNL     1       5.321   5.486  16.887  0.00  0.00    +0.000 C 
BRANCH  20  21
ATOM     21  S   UNL     1       5.637   4.036  15.821  0.00  0.00    +0.000 S 
BRANCH  21  22
ATOM     22  C   UNL     1       6.683   4.656  14.599  0.00  0.00    +0.000 A 
ATOM     23  N   UNL     1       7.713   5.454  14.764  0.00  0.00    +0.000 NA
ATOM     24  N   UNL     1       8.335   5.591  13.539  0.00  0.00    +0.000 NA
ATOM     25  C   UNL     1       7.665   4.869  12.670  0.00  0.00    +0.000 A 
ATOM     26  N   UNL     1       6.612   4.269  13.292  0.00  0.00    +0.000 N 
ATOM     27  C   UNL     1       5.634   3.419  12.670  0.00  0.00    +0.000 C 
ENDBRANCH  21  22
ENDBRANCH  20  21
ENDBRANCH   1  20
TORSDOF 4
ENDMDL
MODEL 9
REMARK VINA RESULT:      -7.5      6.810      8.857
REMARK  Name = 
REMARK  6 active torsions:
REMARK  status: ('A' for Active; 'I' for Inactive)
REMARK    1  A    between atoms: C_1  and  C_2
REMARK    2  A    between atoms: C_2  and  S_3
REMARK    3  A    between atoms: C_2  and  C_10
REMARK    4  A    between atoms: S_3  and  C_4
REMARK    5  A    between atoms: N_8  and  C_9
REMARK    6  A    between atoms: C_14  and  N_15
REMARK                            x       y       z     vdW  Elec       q    Type
REMARK                         _______ _______ _______ _____ _____    ______ ____
ROOT
ATOM      1  C   UNL     1       2.075   7.210  19.218  0.00  0.00    +0.000 A 
ATOM      2  C   UNL     1       2.360   7.770  17.959  0.00  0.00    +0.000 A 
ATOM      3  C   UNL     1       2.092   9.100  17.702  0.00  0.00    +0.000 A 
ATOM      4  C   UNL     1       1.506   9.897  18.682  0.00  0.00    +0.000 A 
ATOM      5  C   UNL     1       1.140   9.375  19.929  0.00  0.00    +0.000 A 
ATOM      6  C   UNL     1       1.468   8.037  20.199  0.00  0.00    +0.000 A 
ENDROOT
BRANCH   5   7
ATOM      7  N   UNL     1       0.445  10.152  20.906  0.00  0.00    +0.000 N 
ATOM      8  C   UNL     1      -0.620  10.972  20.590  0.00  0.00    +0.000 C 
ATOM      9  O   UNL     1      -1.067  11.102  19.451  0.00  0.00    +0.000 OA
ATOM     10  N   UNL     1      -1.249  11.636  21.589  0.00  0.00    +0.000 N 
ATOM     11  C   UNL     1      -2.444  12.414  21.343  0.00  0.00    +0.000 C 
ATOM     12  C   UNL     1      -2.600  12.608  22.852  0.00  0.00    +0.000 C 
ATOM     13  C   UNL     1      -3.072  14.055  22.994  0.00  0.00    +0.000 C 
ATOM     14  C   UNL     1      -3.992  14.072  24.202  0.00  0.00    +0.000 C 
ATOM     15  C   UNL     1      -4.166  12.625  24.620  0.00  0.00    +0.000 C 
ATOM     16  O   UNL     1      -3.616  11.841  23.556  0.00  0.00    +0.000 OA
ATOM     17  C   UNL     1      -1.144  11.992  22.982  0.00  0.00    +0.000 C 
ATOM     18  H   UNL     1       0.535   9.888  21.880  0.00  0.00    +0.000 HD
ENDBRANCH   5   7
BRANCH   1  20
ATOM     19  C   UNL     1       2.035   5.255  20.931  0.00  0.00    +0.000 C 
ATOM     20  C   UNL     1       2.440   5.767  19.541  0.00  0.00    +0.000 C 
BRANCH  20  21
ATOM     21  S   UNL     1       4.182   5.364  19.166  0.00  0.00    +0.000 S 
BRANCH  21  22
ATOM     22  C   UNL     1       4.192   3.641  19.110  0.00  0.00    +0.000 A 
ATOM     23  N   UNL     1       4.812   2.822  19.928  0.00  0.00    +0.000 NA
ATOM     24  N   UNL     1       4.443   1.535  19.589  0.00  0.00    +0.000 NA
ATOM     25  C   UNL     1       3.606   1.614  18.579  0.00  0.00    +0.000 A 
ATOM     26  N   UNL     1       3.426   2.920  18.239  0.00  0.00    +0.000 N 
ATOM     27  C   UNL     1       2.602   3.409  17.167  0.00  0.00    +0.000 C 
ENDBRANCH  21  22
ENDBRANCH  20  21
ENDBRANCH   1  20
TORSDOF 4
ENDMDL
