MODEL 1
REMARK VINA RESULT:      -8.7      0.000      0.000
REMARK  Name = 
REMARK  7 active torsions:
REMARK  status: ('A' for Active; 'I' for Inactive)
REMARK    1  A    between atoms: C_1  and  C_2
REMARK    2  A    between atoms: C_2  and  C_3
REMARK    3  A    between atoms: C_2  and  C_10
REMARK    4  A    between atoms: C_3  and  C_4
REMARK    5  A    between atoms: N_8  and  C_9
REMARK    6  A    between atoms: C_14  and  N_15
REMARK    7  A    between atoms: C_22  and  C_23
REMARK                            x       y       z     vdW  Elec       q    Type
REMARK                         _______ _______ _______ _____ _____    ______ ____
ROOT
ATOM      1  C   UNL     1      -0.277  10.759  20.315  0.00  0.00    +0.000 A 
ATOM      2  C   UNL     1      -0.223  10.957  21.695  0.00  0.00    +0.000 A 
ATOM      3  C   UNL     1       0.452  10.043  22.513  0.00  0.00    +0.000 A 
ATOM      4  C   UNL     1       1.100   8.927  21.968  0.00  0.00    +0.000 A 
ATOM      5  C   UNL     1       1.075   8.706  20.593  0.00  0.00    +0.000 A 
ATOM      6  C   UNL     1       0.370   9.629  19.793  0.00  0.00    +0.000 A 
ENDROOT
BRANCH   5   7
ATOM      7  N   UNL     1       1.740   7.616  19.972  0.00  0.00    +0.000 N 
ATOM      8  C   UNL     1       1.617   6.285  20.530  0.00  0.00    +0.000 C 
ATOM      9  C   UNL     1       2.388   5.424  19.600  0.00  0.00    +0.000 A 
ATOM     10  C   UNL     1       2.923   6.203  18.577  0.00  0.00    +0.000 A 
ATOM     11  C   UNL     1       3.675   5.641  17.564  0.00  0.00    +0.000 A 
ATOM     12  C   UNL     1       3.878   4.255  17.596  0.00  0.00    +0.000 A 
ATOM     13  C   UNL     1       3.336   3.468  18.633  0.00  0.00    +0.000 A 
ATOM     14  C   UNL     1       2.577   4.047  19.661  0.00  0.00    +0.000 A 
ATOM     15  C   UNL     1       2.518   7.612  18.807  0.00  0.00    +0.000 C 
ATOM     16  O   UNL     1       2.838   8.521  18.064  0.00  0.00    +0.000 OA
BRANCH  14  17
ATOM     17  C   UNL     1       1.992   3.207  20.769  0.00  0.00    +0.000 C 
ATOM     18  F   UNL     1       2.507   3.487  21.999  0.00  0.00    +0.000 F 
ATOM     19  F   UNL     1       0.647   3.368  20.890  0.00  0.00    +0.000 F 
ATOM     20  F   UNL     1       2.201   1.876  20.580  0.00  0.00    +0.000 F 
ENDBRANCH  14  17
ENDBRANCH   5   7
BRANCH   1  22
ATOM     21  C   UNL     1      -0.007  12.802  18.799  0.00  0.00    +0.000 C 
ATOM     22  C   UNL     1      -0.948  11.715  19.330  0.00  0.00    +0.000 C 
BRANCH  22  23
ATOM     23  C   UNL     1      -1.608  10.905  18.193  0.00  0.00    +0.000 C 
BRANCH  23  24
ATOM     24  C   UNL     1      -3.029  11.307  17.938  0.00  0.00    +0.000 A 
ATOM     25  N   UNL     1      -3.880  11.723  18.856  0.00  0.00    +0.000 NA
ATOM     26  C   UNL     1      -5.050  11.986  18.193  0.00  0.00    +0.000 A 
ATOM     27  C   UNL     1      -4.918  11.722  16.852  0.00  0.00    +0.000 A 
ATOM     28  N   UNL     1      -3.631  11.288  16.701  0.00  0.00    +0.000 N 
ATOM     29  C   UNL     1      -3.028  10.889  15.453  0.00  0.00    +0.000 C 
ENDBRANCH  23  24
ENDBRANCH  22  23
ENDBRANCH   1  22
TORSDOF 5
ENDMDL
MODEL 2
REMARK VINA RESULT:      -8.6      3.512      8.311
REMARK  Name = 
REMARK  7 active torsions:
REMARK  status: ('A' for Active; 'I' for Inactive)
REMARK    1  A    between atoms: C_1  and  C_2
REMARK    2  A    between atoms: C_2  and  C_3
REMARK    3  A    between atoms: C_2  and  C_10
REMARK    4  A    between atoms: C_3  and  C_4
REMARK    5  A    between atoms: N_8  and  C_9
REMARK    6  A    between atoms: C_14  and  N_15
REMARK    7  A    between atoms: C_22  and  C_23
REMARK                            x       y       z     vdW  Elec       q    Type
REMARK                         _______ _______ _______ _____ _____    ______ ____
ROOT
ATOM      1  C   UNL     1       4.438   4.964  17.886  0.00  0.00    +0.000 A 
ATOM      2  C   UNL     1       4.264   3.925  18.799  0.00  0.00    +0.000 A 
ATOM      3  C   UNL     1       3.418   4.088  19.903  0.00  0.00    +0.000 A 
ATOM      4  C   UNL     1       2.718   5.285  20.105  0.00  0.00    +0.000 A 
ATOM      5  C   UNL     1       2.860   6.339  19.206  0.00  0.00    +0.000 A 
ATOM      6  C   UNL     1       3.734   6.157  18.114  0.00  0.00    +0.000 A 
ENDROOT
BRANCH   5   7
ATOM      7  N   UNL     1       2.154   7.564  19.331  0.00  0.00    +0.000 N 
ATOM      8  C   UNL     1       1.498   7.893  20.580  0.00  0.00    +0.000 C 
ATOM      9  C   UNL     1       0.926   9.242  20.350  0.00  0.00    +0.000 A 
ATOM     10  C   UNL     1       1.225   9.662  19.057  0.00  0.00    +0.000 A 
ATOM     11  C   UNL     1       0.819  10.898  18.590  0.00  0.00    +0.000 A 
ATOM     12  C   UNL     1       0.098  11.719  19.467  0.00  0.00    +0.000 A 
ATOM     13  C   UNL     1      -0.205  11.292  20.775  0.00  0.00    +0.000 A 
ATOM     14  C   UNL     1       0.207  10.034  21.240  0.00  0.00    +0.000 A 
ATOM     15  C   UNL     1       2.010   8.593  18.391  0.00  0.00    +0.000 C 
ATOM     16  O   UNL     1       2.417   8.686  17.249  0.00  0.00    +0.000 OA
BRANCH  14  17
ATOM     17  C   UNL     1      -0.112   9.575  22.641  0.00  0.00    +0.000 C 
ATOM     18  F   UNL     1       0.989   9.248  23.376  0.00  0.00    +0.000 F 
ATOM     19  F   UNL     1      -0.765  10.525  23.364  0.00  0.00    +0.000 F 
ATOM     20  F   UNL     1      -0.906   8.470  22.660  0.00  0.00    +0.000 F 
ENDBRANCH  14  17
ENDBRANCH   5   7
BRANCH   1  22
ATOM     21  C   UNL     1       5.043   6.009  15.631  0.00  0.00    +0.000 C 
ATOM     22  C   UNL     1       5.301   4.875  16.628  0.00  0.00    +0.000 C 
BRANCH  22  23
ATOM     23  C   UNL     1       6.790   4.777  17.030  0.00  0.00    +0.000 C 
BRANCH  23  24
ATOM     24  C   UNL     1       7.363   6.090  17.469  0.00  0.00    +0.000 A 
ATOM     25  N   UNL     1       7.504   7.155  16.702  0.00  0.00    +0.000 NA
ATOM     26  C   UNL     1       8.057   8.123  17.500  0.00  0.00    +0.000 A 
ATOM     27  C   UNL     1       8.263   7.645  18.771  0.00  0.00    +0.000 A 
ATOM     28  N   UNL     1       7.822   6.351  18.740  0.00  0.00    +0.000 N 
ATOM     29  C   UNL     1       7.840   5.439  19.856  0.00  0.00    +0.000 C 
ENDBRANCH  23  24
ENDBRANCH  22  23
ENDBRANCH   1  22
TORSDOF 5
ENDMDL
MODEL 3
REMARK VINA RESULT:      -8.4      2.706      3.205
REMARK  Name = 
REMARK  7 active torsions:
REMARK  status: ('A' for Active; 'I' for Inactive)
REMARK    1  A    between atoms: C_1  and  C_2
REMARK    2  A    between atoms: C_2  and  C_3
REMARK    3  A    between atoms: C_2  and  C_10
REMARK    4  A    between atoms: C_3  and  C_4
REMARK    5  A    between atoms: N_8  and  C_9
REMARK    6  A    between atoms: C_14  and  N_15
REMARK    7  A    between atoms: C_22  and  C_23
REMARK                            x       y       z     vdW  Elec       q    Type
REMARK                         _______ _______ _______ _____ _____    ______ ____
ROOT
ATOM      1  C   UNL     1       0.405  10.156  20.018  0.00  0.00    +0.000 A 
ATOM      2  C   UNL     1       0.480  10.271  21.406  0.00  0.00    +0.000 A 
ATOM      3  C   UNL     1       1.084   9.263  22.167  0.00  0.00    +0.000 A 
ATOM      4  C   UNL     1       1.640   8.132  21.556  0.00  0.00    +0.000 A 
ATOM      5  C   UNL     1       1.594   7.992  20.171  0.00  0.00    +0.000 A 
ATOM      6  C   UNL     1       0.961   9.010  19.429  0.00  0.00    +0.000 A 
ENDROOT
BRANCH   5   7
ATOM      7  N   UNL     1       2.168   6.889  19.484  0.00  0.00    +0.000 N 
ATOM      8  C   UNL     1       3.128   7.121  18.425  0.00  0.00    +0.000 C 
ATOM      9  C   UNL     1       3.534   5.761  17.994  0.00  0.00    +0.000 A 
ATOM     10  C   UNL     1       2.853   4.809  18.748  0.00  0.00    +0.000 A 
ATOM     11  C   UNL     1       3.063   3.457  18.556  0.00  0.00    +0.000 A 
ATOM     12  C   UNL     1       3.990   3.074  17.578  0.00  0.00    +0.000 A 
ATOM     13  C   UNL     1       4.678   4.040  16.815  0.00  0.00    +0.000 A 
ATOM     14  C   UNL     1       4.457   5.411  17.013  0.00  0.00    +0.000 A 
ATOM     15  C   UNL     1       1.971   5.520  19.705  0.00  0.00    +0.000 C 
ATOM     16  O   UNL     1       1.256   4.940  20.500  0.00  0.00    +0.000 OA
BRANCH  14  17
ATOM     17  C   UNL     1       5.194   6.447  16.201  0.00  0.00    +0.000 C 
ATOM     18  F   UNL     1       4.374   7.303  15.530  0.00  0.00    +0.000 F 
ATOM     19  F   UNL     1       5.997   7.233  16.967  0.00  0.00    +0.000 F 
ATOM     20  F   UNL     1       5.998   5.892  15.253  0.00  0.00    +0.000 F 
ENDBRANCH  14  17
ENDBRANCH   5   7
BRANCH   1  22
ATOM     21  C   UNL     1       0.836  12.237  18.595  0.00  0.00    +0.000 C 
ATOM     22  C   UNL     1      -0.192  11.216  19.094  0.00  0.00    +0.000 C 
BRANCH  22  23
ATOM     23  C   UNL     1      -0.941  10.525  17.933  0.00  0.00    +0.000 C 
BRANCH  23  24
ATOM     24  C   UNL     1      -2.368  10.966  17.816  0.00  0.00    +0.000 A 
ATOM     25  N   UNL     1      -3.056  11.582  18.759  0.00  0.00    +0.000 NA
ATOM     26  C   UNL     1      -4.302  11.802  18.233  0.00  0.00    +0.000 A 
ATOM     27  C   UNL     1      -4.383  11.309  16.953  0.00  0.00    +0.000 A 
ATOM     28  N   UNL     1      -3.150  10.777  16.699  0.00  0.00    +0.000 N 
ATOM     29  C   UNL     1      -2.756  10.138  15.468  0.00  0.00    +0.000 C 
ENDBRANCH  23  24
ENDBRANCH  22  23
ENDBRANCH   1  22
TORSDOF 5
ENDMDL
MODEL 4
REMARK VINA RESULT:      -8.3      2.003      3.011
REMARK  Name = 
REMARK  7 active torsions:
REMARK  status: ('A' for Active; 'I' for Inactive)
REMARK    1  A    between atoms: C_1  and  C_2
REMARK    2  A    between atoms: C_2  and  C_3
REMARK    3  A    between atoms: C_2  and  C_10
REMARK    4  A    between atoms: C_3  and  C_4
REMARK    5  A    between atoms: N_8  and  C_9
REMARK    6  A    between atoms: C_14  and  N_15
REMARK    7  A    between atoms: C_22  and  C_23
REMARK                            x       y       z     vdW  Elec       q    Type
REMARK                         _______ _______ _______ _____ _____    ______ ____
ROOT
ATOM      1  C   UNL     1       0.561  10.028  20.398  0.00  0.00    +0.000 A 
ATOM      2  C   UNL     1       0.742  11.006  19.419  0.00  0.00    +0.000 A 
ATOM      3  C   UNL     1       1.514  10.733  18.283  0.00  0.00    +0.000 A 
ATOM      4  C   UNL     1       2.102   9.476  18.094  0.00  0.00    +0.000 A 
ATOM      5  C   UNL     1       1.931   8.474  19.046  0.00  0.00    +0.000 A 
ATOM      6  C   UNL     1       1.168   8.780  20.192  0.00  0.00    +0.000 A 
ENDROOT
BRANCH   5   7
ATOM      7  N   UNL     1       2.469   7.168  18.900  0.00  0.00    +0.000 N 
ATOM      8  C   UNL     1       2.043   6.109  19.792  0.00  0.00    +0.000 C 
ATOM      9  C   UNL     1       2.766   4.908  19.308  0.00  0.00    +0.000 A 
ATOM     10  C   UNL     1       3.559   5.249  18.216  0.00  0.00    +0.000 A 
ATOM     11  C   UNL     1       4.328   4.304  17.563  0.00  0.00    +0.000 A 
ATOM     12  C   UNL     1       4.278   2.986  18.036  0.00  0.00    +0.000 A 
ATOM     13  C   UNL     1       3.476   2.643  19.143  0.00  0.00    +0.000 A 
ATOM     14  C   UNL     1       2.701   3.609  19.803  0.00  0.00    +0.000 A 
ATOM     15  C   UNL     1       3.381   6.697  17.947  0.00  0.00    +0.000 C 
ATOM     16  O   UNL     1       3.951   7.275  17.040  0.00  0.00    +0.000 OA
BRANCH  14  17
ATOM     17  C   UNL     1       1.837   3.244  20.984  0.00  0.00    +0.000 C 
ATOM     18  F   UNL     1       2.248   3.804  22.157  0.00  0.00    +0.000 F 
ATOM     19  F   UNL     1       0.545   3.636  20.825  0.00  0.00    +0.000 F 
ATOM     20  F   UNL     1       1.803   1.903  21.212  0.00  0.00    +0.000 F 
ENDBRANCH  14  17
ENDBRANCH   5   7
BRANCH   1  22
ATOM     21  C   UNL     1       0.224   9.421  22.860  0.00  0.00    +0.000 C 
ATOM     22  C   UNL     1      -0.295  10.207  21.651  0.00  0.00    +0.000 C 
BRANCH  22  23
ATOM     23  C   UNL     1      -0.453  11.713  21.956  0.00  0.00    +0.000 C 
BRANCH  23  24
ATOM     24  C   UNL     1      -1.870  12.102  22.252  0.00  0.00    +0.000 A 
ATOM     25  N   UNL     1      -2.429  12.098  23.447  0.00  0.00    +0.000 NA
ATOM     26  C   UNL     1      -3.718  12.524  23.262  0.00  0.00    +0.000 A 
ATOM     27  C   UNL     1      -3.956  12.788  21.935  0.00  0.00    +0.000 A 
ATOM     28  N   UNL     1      -2.776  12.513  21.301  0.00  0.00    +0.000 N 
ATOM     29  C   UNL     1      -2.543  12.644  19.884  0.00  0.00    +0.000 C 
ENDBRANCH  23  24
ENDBRANCH  22  23
ENDBRANCH   1  22
TORSDOF 5
ENDMDL
MODEL 5
REMARK VINA RESULT:      -8.2      3.843      8.157
REMARK  Name = 
REMARK  7 active torsions:
REMARK  status: ('A' for Active; 'I' for Inactive)
REMARK    1  A    between atoms: C_1  and  C_2
REMARK    2  A    between atoms: C_2  and  C_3
REMARK    3  A    between atoms: C_2  and  C_10
REMARK    4  A    between atoms: C_3  and  C_4
REMARK    5  A    between atoms: N_8  and  C_9
REMARK    6  A    between atoms: C_14  and  N_15
REMARK    7  A    between atoms: C_22  and  C_23
REMARK                            x       y       z     vdW  Elec       q    Type
REMARK                         _______ _______ _______ _____ _____    ______ ____
ROOT
ATOM      1  C   UNL     1       3.465   3.408  19.459  0.00  0.00    +0.000 A 
ATOM      2  C   UNL     1       3.022   2.693  20.572  0.00  0.00    +0.000 A 
ATOM      3  C   UNL     1       2.236   3.319  21.546  0.00  0.00    +0.000 A 
ATOM      4  C   UNL     1       1.861   4.663  21.419  0.00  0.00    +0.000 A 
ATOM      5  C   UNL     1       2.276   5.402  20.313  0.00  0.00    +0.000 A 
ATOM      6  C   UNL     1       3.086   4.755  19.357  0.00  0.00    +0.000 A 
ENDROOT
BRANCH   5   7
ATOM      7  N   UNL     1       1.904   6.757  20.104  0.00  0.00    +0.000 N 
ATOM      8  C   UNL     1       1.235   7.491  21.158  0.00  0.00    +0.000 C 
ATOM      9  C   UNL     1       1.059   8.854  20.601  0.00  0.00    +0.000 A 
ATOM     10  C   UNL     1       1.585   8.903  19.312  0.00  0.00    +0.000 A 
ATOM     11  C   UNL     1       1.563  10.070  18.571  0.00  0.00    +0.000 A 
ATOM     12  C   UNL     1       0.997  11.206  19.164  0.00  0.00    +0.000 A 
ATOM     13  C   UNL     1       0.464  11.154  20.468  0.00  0.00    +0.000 A 
ATOM     14  C   UNL     1       0.487   9.965  21.213  0.00  0.00    +0.000 A 
ATOM     15  C   UNL     1       2.126   7.563  18.980  0.00  0.00    +0.000 C 
ATOM     16  O   UNL     1       2.656   7.309  17.915  0.00  0.00    +0.000 OA
BRANCH  14  17
ATOM     17  C   UNL     1      -0.078   9.907  22.610  0.00  0.00    +0.000 C 
ATOM     18  F   UNL     1      -0.613  11.086  23.035  0.00  0.00    +0.000 F 
ATOM     19  F   UNL     1      -1.075   8.989  22.730  0.00  0.00    +0.000 F 
ATOM     20  F   UNL     1       0.859   9.575  23.539  0.00  0.00    +0.000 F 
ENDBRANCH  14  17
ENDBRANCH   5   7
BRANCH   1  22
ATOM     21  C   UNL     1       3.698   1.513  17.756  0.00  0.00    +0.000 C 
ATOM     22  C   UNL     1       4.289   2.810  18.319  0.00  0.00    +0.000 C 
BRANCH  22  23
ATOM     23  C   UNL     1       4.505   3.879  17.225  0.00  0.00    +0.000 C 
BRANCH  23  24
ATOM     24  C   UNL     1       5.737   4.703  17.450  0.00  0.00    +0.000 A 
ATOM     25  N   UNL     1       6.683   4.436  18.330  0.00  0.00    +0.000 NA
ATOM     26  C   UNL     1       7.613   5.434  18.198  0.00  0.00    +0.000 A 
ATOM     27  C   UNL     1       7.230   6.328  17.227  0.00  0.00    +0.000 A 
ATOM     28  N   UNL     1       6.035   5.856  16.761  0.00  0.00    +0.000 N 
ATOM     29  C   UNL     1       5.244   6.473  15.725  0.00  0.00    +0.000 C 
ENDBRANCH  23  24
ENDBRANCH  22  23
ENDBRANCH   1  22
TORSDOF 5
ENDMDL
MODEL 6
REMARK VINA RESULT:      -8.2      3.692      8.443
REMARK  Name = 
REMARK  7 active torsions:
REMARK  status: ('A' for Active; 'I' for Inactive)
REMARK    1  A    between atoms: C_1  and  C_2
REMARK    2  A    between atoms: C_2  and  C_3
REMARK    3  A    between atoms: C_2  and  C_10
REMARK    4  A    between atoms: C_3  and  C_4
REMARK    5  A    between atoms: N_8  and  C_9
REMARK    6  A    between atoms: C_14  and  N_15
REMARK    7  A    between atoms: C_22  and  C_23
REMARK                            x       y       z     vdW  Elec       q    Type
REMARK                         _______ _______ _______ _____ _____    ______ ____
ROOT
ATOM      1  C   UNL     1       5.086   6.160  17.969  0.00  0.00    +0.000 A 
ATOM      2  C   UNL     1       4.806   4.879  18.443  0.00  0.00    +0.000 A 
ATOM      3  C   UNL     1       3.644   4.638  19.186  0.00  0.00    +0.000 A 
ATOM      4  C   UNL     1       2.732   5.668  19.453  0.00  0.00    +0.000 A 
ATOM      5  C   UNL     1       2.974   6.956  18.984  0.00  0.00    +0.000 A 
ATOM      6  C   UNL     1       4.162   7.177  18.257  0.00  0.00    +0.000 A 
ENDROOT
BRANCH   5   7
ATOM      7  N   UNL     1       2.075   8.037  19.188  0.00  0.00    +0.000 N 
ATOM      8  C   UNL     1       1.449   8.217  20.481  0.00  0.00    +0.000 C 
ATOM      9  C   UNL     1       0.639   9.450  20.327  0.00  0.00    +0.000 A 
ATOM     10  C   UNL     1       0.783   9.945  19.033  0.00  0.00    +0.000 A 
ATOM     11  C   UNL     1       0.142  11.102  18.630  0.00  0.00    +0.000 A 
ATOM     12  C   UNL     1      -0.656  11.764  19.572  0.00  0.00    +0.000 A 
ATOM     13  C   UNL     1      -0.802  11.261  20.880  0.00  0.00    +0.000 A 
ATOM     14  C   UNL     1      -0.151  10.085  21.281  0.00  0.00    +0.000 A 
ATOM     15  C   UNL     1       1.699   9.045  18.291  0.00  0.00    +0.000 C 
ATOM     16  O   UNL     1       2.015   9.233  17.131  0.00  0.00    +0.000 OA
BRANCH  14  17
ATOM     17  C   UNL     1      -0.301   9.546  22.682  0.00  0.00    +0.000 C 
ATOM     18  F   UNL     1      -1.070  10.328  23.490  0.00  0.00    +0.000 F 
ATOM     19  F   UNL     1      -0.879   8.315  22.707  0.00  0.00    +0.000 F 
ATOM     20  F   UNL     1       0.892   9.419  23.323  0.00  0.00    +0.000 F 
ENDBRANCH  14  17
ENDBRANCH   5   7
BRANCH   1  22
ATOM     21  C   UNL     1       7.201   7.582  17.753  0.00  0.00    +0.000 C 
ATOM     22  C   UNL     1       6.300   6.520  17.114  0.00  0.00    +0.000 C 
BRANCH  22  23
ATOM     23  C   UNL     1       7.076   5.234  16.754  0.00  0.00    +0.000 C 
BRANCH  23  24
ATOM     24  C   UNL     1       6.982   4.884  15.300  0.00  0.00    +0.000 A 
ATOM     25  N   UNL     1       7.668   5.460  14.330  0.00  0.00    +0.000 NA
ATOM     26  C   UNL     1       7.280   4.836  13.173  0.00  0.00    +0.000 A 
ATOM     27  C   UNL     1       6.340   3.869  13.434  0.00  0.00    +0.000 A 
ATOM     28  N   UNL     1       6.155   3.910  14.788  0.00  0.00    +0.000 N 
ATOM     29  C   UNL     1       5.250   3.068  15.530  0.00  0.00    +0.000 C 
ENDBRANCH  23  24
ENDBRANCH  22  23
ENDBRANCH   1  22
TORSDOF 5
ENDMDL
MODEL 7
REMARK VINA RESULT:      -8.2      1.966      3.178
REMARK  Name = 
REMARK  7 active torsions:
REMARK  status: ('A' for Active; 'I' for Inactive)
REMARK    1  A    between atoms: C_1  and  C_2
REMARK    2  A    between atoms: C_2  and  C_3
REMARK    3  A    between atoms: C_2  and  C_10
REMARK    4  A    between atoms: C_3  and  C_4
REMARK    5  A    between atoms: N_8  and  C_9
REMARK    6  A    between atoms: C_14  and  N_15
REMARK    7  A    between atoms: C_22  and  C_23
REMARK                            x       y       z     vdW  Elec       q    Type
REMARK                         _______ _______ _______ _____ _____    ______ ____
ROOT
ATOM      1  C   UNL     1       0.683   9.833  20.148  0.00  0.00    +0.000 A 
ATOM      2  C   UNL     1       0.904  10.740  19.112  0.00  0.00    +0.000 A 
ATOM      3  C   UNL     1       1.707  10.385  18.021  0.00  0.00    +0.000 A 
ATOM      4  C   UNL     1       2.290   9.114  17.937  0.00  0.00    +0.000 A 
ATOM      5  C   UNL     1       2.080   8.180  18.949  0.00  0.00    +0.000 A 
ATOM      6  C   UNL     1       1.285   8.569  20.047  0.00  0.00    +0.000 A 
ENDROOT
BRANCH   5   7
ATOM      7  N   UNL     1       2.611   6.863  18.910  0.00  0.00    +0.000 N 
ATOM      8  C   UNL     1       2.195   5.890  19.898  0.00  0.00    +0.000 C 
ATOM      9  C   UNL     1       2.905   4.647  19.510  0.00  0.00    +0.000 A 
ATOM     10  C   UNL     1       3.682   4.886  18.380  0.00  0.00    +0.000 A 
ATOM     11  C   UNL     1       4.436   3.884  17.800  0.00  0.00    +0.000 A 
ATOM     12  C   UNL     1       4.389   2.612  18.387  0.00  0.00    +0.000 A 
ATOM     13  C   UNL     1       3.603   2.372  19.532  0.00  0.00    +0.000 A 
ATOM     14  C   UNL     1       2.843   3.396  20.117  0.00  0.00    +0.000 A 
ATOM     15  C   UNL     1       3.505   6.306  17.987  0.00  0.00    +0.000 C 
ATOM     16  O   UNL     1       4.062   6.800  17.025  0.00  0.00    +0.000 OA
BRANCH  14  17
ATOM     17  C   UNL     1       1.998   3.141  21.340  0.00  0.00    +0.000 C 
ATOM     18  F   UNL     1       0.662   3.314  21.130  0.00  0.00    +0.000 F 
ATOM     19  F   UNL     1       2.132   1.872  21.811  0.00  0.00    +0.000 F 
ATOM     20  F   UNL     1       2.314   3.967  22.375  0.00  0.00    +0.000 F 
ENDBRANCH  14  17
ENDBRANCH   5   7
BRANCH   1  22
ATOM     21  C   UNL     1       0.267   9.402  22.635  0.00  0.00    +0.000 C 
ATOM     22  C   UNL     1      -0.209  10.104  21.358  0.00  0.00    +0.000 C 
BRANCH  22  23
ATOM     23  C   UNL     1      -0.367  11.628  21.552  0.00  0.00    +0.000 C 
BRANCH  23  24
ATOM     24  C   UNL     1      -1.745  12.117  21.225  0.00  0.00    +0.000 A 
ATOM     25  N   UNL     1      -2.172  12.448  20.021  0.00  0.00    +0.000 NA
ATOM     26  C   UNL     1      -3.479  12.831  20.177  0.00  0.00    +0.000 A 
ATOM     27  C   UNL     1      -3.858  12.739  21.494  0.00  0.00    +0.000 A 
ATOM     28  N   UNL     1      -2.748  12.289  22.153  0.00  0.00    +0.000 N 
ATOM     29  C   UNL     1      -2.666  12.038  23.570  0.00  0.00    +0.000 C 
ENDBRANCH  23  24
ENDBRANCH  22  23
ENDBRANCH   1  22
TORSDOF 5
ENDMDL
MODEL 8
REMARK VINA RESULT:      -8.1      3.435      4.403
REMARK  Name = 
REMARK  7 active torsions:
REMARK  status: ('A' for Active; 'I' for Inactive)
REMARK    1  A    between atoms: C_1  and  C_2
REMARK    2  A    between atoms: C_2  and  C_3
REMARK    3  A    between atoms: C_2  and  C_10
REMARK    4  A    between atoms: C_3  and  C_4
REMARK    5  A    between atoms: N_8  and  C_9
REMARK    6  A    between atoms: C_14  and  N_15
REMARK    7  A    between atoms: C_22  and  C_23
REMARK                            x       y       z     vdW  Elec       q    Type
REMARK                         _______ _______ _______ _____ _____    ______ ____
ROOT
ATOM      1  C   UNL     1       0.028  10.141  20.729  0.00  0.00    +0.000 A 
ATOM      2  C   UNL     1      -0.205  11.001  19.657  0.00  0.00    +0.000 A 
ATOM      3  C   UNL     1       0.386  10.755  18.412  0.00  0.00    +0.000 A 
ATOM      4  C   UNL     1       1.204   9.636  18.210  0.00  0.00    +0.000 A 
ATOM      5  C   UNL     1       1.448   8.749  19.257  0.00  0.00    +0.000 A 
ATOM      6  C   UNL     1       0.859   9.032  20.506  0.00  0.00    +0.000 A 
ENDROOT
BRANCH   5   7
ATOM      7  N   UNL     1       2.238   7.578  19.112  0.00  0.00    +0.000 N 
ATOM      8  C   UNL     1       3.274   7.529  18.101  0.00  0.00    +0.000 C 
ATOM      9  C   UNL     1       3.904   6.199  18.285  0.00  0.00    +0.000 A 
ATOM     10  C   UNL     1       3.273   5.524  19.327  0.00  0.00    +0.000 A 
ATOM     11  C   UNL     1       3.680   4.262  19.716  0.00  0.00    +0.000 A 
ATOM     12  C   UNL     1       4.755   3.685  19.029  0.00  0.00    +0.000 A 
ATOM     13  C   UNL     1       5.392   4.369  17.974  0.00  0.00    +0.000 A 
ATOM     14  C   UNL     1       4.971   5.648  17.582  0.00  0.00    +0.000 A 
ATOM     15  C   UNL     1       2.200   6.397  19.863  0.00  0.00    +0.000 C 
ATOM     16  O   UNL     1       1.481   6.068  20.789  0.00  0.00    +0.000 OA
BRANCH  14  17
ATOM     17  C   UNL     1       5.652   6.385  16.456  0.00  0.00    +0.000 C 
ATOM     18  F   UNL     1       4.793   6.862  15.512  0.00  0.00    +0.000 F 
ATOM     19  F   UNL     1       6.354   7.466  16.891  0.00  0.00    +0.000 F 
ATOM     20  F   UNL     1       6.539   5.603  15.782  0.00  0.00    +0.000 F 
ENDBRANCH  14  17
ENDBRANCH   5   7
BRANCH   1  22
ATOM     21  C   UNL     1       0.100   9.466  23.196  0.00  0.00    +0.000 C 
ATOM     22  C   UNL     1      -0.601  10.294  22.113  0.00  0.00    +0.000 C 
BRANCH  22  23
ATOM     23  C   UNL     1      -0.678  11.793  22.481  0.00  0.00    +0.000 C 
BRANCH  23  24
ATOM     24  C   UNL     1      -2.085  12.286  22.625  0.00  0.00    +0.000 A 
ATOM     25  N   UNL     1      -2.965  11.839  23.502  0.00  0.00    +0.000 NA
ATOM     26  C   UNL     1      -4.109  12.563  23.289  0.00  0.00    +0.000 A 
ATOM     27  C   UNL     1      -3.932  13.463  22.266  0.00  0.00    +0.000 A 
ATOM     28  N   UNL     1      -2.644  13.276  21.848  0.00  0.00    +0.000 N 
ATOM     29  C   UNL     1      -2.001  14.003  20.782  0.00  0.00    +0.000 C 
ENDBRANCH  23  24
ENDBRANCH  22  23
ENDBRANCH   1  22
TORSDOF 5
ENDMDL
MODEL 9
REMARK VINA RESULT:      -8.1      3.993      8.898
REMARK  Name = 
REMARK  7 active torsions:
REMARK  status: ('A' for Active; 'I' for Inactive)
REMARK    1  A    between atoms: C_1  and  C_2
REMARK    2  A    between atoms: C_2  and  C_3
REMARK    3  A    between atoms: C_2  and  C_10
REMARK    4  A    between atoms: C_3  and  C_4
REMARK    5  A    between atoms: N_8  and  C_9
REMARK    6  A    between atoms: C_14  and  N_15
REMARK    7  A    between atoms: C_22  and  C_23
REMARK                            x       y       z     vdW  Elec       q    Type
REMARK                         _______ _______ _______ _____ _____    ______ ____
ROOT
ATOM      1  C   UNL     1       2.952   6.443  19.242  0.00  0.00    +0.000 A 
ATOM      2  C   UNL     1       3.346   6.825  17.960  0.00  0.00    +0.000 A 
ATOM      3  C   UNL     1       2.886   8.027  17.408  0.00  0.00    +0.000 A 
ATOM      4  C   UNL     1       2.040   8.877  18.132  0.00  0.00    +0.000 A 
ATOM      5  C   UNL     1       1.637   8.531  19.419  0.00  0.00    +0.000 A 
ATOM      6  C   UNL     1       2.096   7.306  19.944  0.00  0.00    +0.000 A 
ENDROOT
BRANCH   5   7
ATOM      7  N   UNL     1       0.810   9.362  20.221  0.00  0.00    +0.000 N 
ATOM      8  C   UNL     1      -0.169  10.224  19.592  0.00  0.00    +0.000 C 
ATOM      9  C   UNL     1      -0.861  10.883  20.728  0.00  0.00    +0.000 A 
ATOM     10  C   UNL     1      -0.317  10.435  21.928  0.00  0.00    +0.000 A 
ATOM     11  C   UNL     1      -0.795  10.884  23.145  0.00  0.00    +0.000 A 
ATOM     12  C   UNL     1      -1.853  11.802  23.130  0.00  0.00    +0.000 A 
ATOM     13  C   UNL     1      -2.402  12.254  21.913  0.00  0.00    +0.000 A 
ATOM     14  C   UNL     1      -1.908  11.798  20.682  0.00  0.00    +0.000 A 
ATOM     15  C   UNL     1       0.759   9.462  21.617  0.00  0.00    +0.000 C 
ATOM     16  O   UNL     1       1.411   8.900  22.477  0.00  0.00    +0.000 OA
BRANCH  14  17
ATOM     17  C   UNL     1      -2.496  12.277  19.378  0.00  0.00    +0.000 C 
ATOM     18  F   UNL     1      -3.600  13.062  19.529  0.00  0.00    +0.000 F 
ATOM     19  F   UNL     1      -1.617  13.018  18.652  0.00  0.00    +0.000 F 
ATOM     20  F   UNL     1      -2.885  11.251  18.573  0.00  0.00    +0.000 F 
ENDBRANCH  14  17
ENDBRANCH   5   7
BRANCH   1  22
ATOM     21  C   UNL     1       2.311   4.439  20.696  0.00  0.00    +0.000 C 
ATOM     22  C   UNL     1       3.429   5.177  19.952  0.00  0.00    +0.000 C 
BRANCH  22  23
ATOM     23  C   UNL     1       4.162   4.265  18.943  0.00  0.00    +0.000 C 
BRANCH  23  24
ATOM     24  C   UNL     1       5.586   4.672  18.719  0.00  0.00    +0.000 A 
ATOM     25  N   UNL     1       6.385   5.191  19.632  0.00  0.00    +0.000 NA
ATOM     26  C   UNL     1       7.585   5.405  19.006  0.00  0.00    +0.000 A 
ATOM     27  C   UNL     1       7.521   5.017  17.689  0.00  0.00    +0.000 A 
ATOM     28  N   UNL     1       6.246   4.557  17.516  0.00  0.00    +0.000 N 
ATOM     29  C   UNL     1       5.709   4.040  16.282  0.00  0.00    +0.000 C 
ENDBRANCH  23  24
ENDBRANCH  22  23
ENDBRANCH   1  22
TORSDOF 5
ENDMDL
