MODEL 1
REMARK VINA RESULT:      -9.1      0.000      0.000
REMARK  Name = 
REMARK  6 active torsions:
REMARK  status: ('A' for Active; 'I' for Inactive)
REMARK    1  A    between atoms: C_1  and  N_2
REMARK    2  A    between atoms: C_6  and  C_7
REMARK    3  A    between atoms: C_7  and  C_8
REMARK    4  A    between atoms: C_8  and  C_9
REMARK    5  A    between atoms: C_13  and  N_14
REMARK    6  A    between atoms: C_15  and  C_17
REMARK                            x       y       z     vdW  Elec       q    Type
REMARK                         _______ _______ _______ _____ _____    ______ ____
ROOT
ATOM      1  C   UNL     1       4.479   4.824  17.263  0.00  0.00    +0.000 A 
ATOM      2  C   UNL     1       3.726   3.646  17.112  0.00  0.00    +0.000 A 
ATOM      3  C   UNL     1       2.378   3.591  17.463  0.00  0.00    +0.000 A 
ATOM      4  C   UNL     1       1.741   4.716  17.985  0.00  0.00    +0.000 A 
ATOM      5  C   UNL     1       2.446   5.904  18.165  0.00  0.00    +0.000 A 
ATOM      6  C   UNL     1       3.799   5.943  17.805  0.00  0.00    +0.000 A 
ENDROOT
BRANCH   1   7
ATOM      7  C   UNL     1       6.025   4.906  16.827  0.00  0.00    +0.000 C 
ATOM      8  C   UNL     1       7.047   4.737  17.991  0.00  0.00    +0.000 C 
ATOM      9  O   UNL     1       7.592   6.053  17.792  0.00  0.00    +0.000 OA
ATOM     10  C   UNL     1       6.678   6.312  16.706  0.00  0.00    +0.000 C 
BRANCH   7  11
ATOM     11  C   UNL     1       6.318   3.945  15.657  0.00  0.00    +0.000 C 
BRANCH  11  17
ATOM     12  C   UNL     1       5.718   3.337  12.578  0.00  0.00    +0.000 C 
ATOM     13  N   UNL     1       6.663   4.270  13.130  0.00  0.00    +0.000 N 
ATOM     14  C   UNL     1       7.529   5.021  12.389  0.00  0.00    +0.000 A 
ATOM     15  N   UNL     1       8.256   5.766  13.185  0.00  0.00    +0.000 NA
ATOM     16  N   UNL     1       7.870   5.493  14.473  0.00  0.00    +0.000 NA
ATOM     17  C   UNL     1       6.917   4.581  14.445  0.00  0.00    +0.000 A 
ENDBRANCH  11  17
ENDBRANCH   7  11
ENDBRANCH   1   7
BRANCH   5  18
ATOM     18  N   UNL     1       1.868   7.088  18.672  0.00  0.00    +0.000 N 
ATOM     19  C   UNL     1       2.008   8.361  18.163  0.00  0.00    +0.000 C 
ATOM     20  O   UNL     1       2.624   8.656  17.140  0.00  0.00    +0.000 OA
ATOM     21  H   UNL     1       1.270   6.984  19.496  0.00  0.00    +0.000 HD
BRANCH  19  22
ATOM     22  C   UNL     1       1.310   9.440  18.929  0.00  0.00    +0.000 A 
ATOM     23  C   UNL     1       0.890  10.501  18.215  0.00  0.00    +0.000 A 
ATOM     24  C   UNL     1       0.183  11.560  18.974  0.00  0.00    +0.000 A 
ATOM     25  N   UNL     1      -0.079  11.539  20.248  0.00  0.00    +0.000 NA
ATOM     26  C   UNL     1       0.359  10.439  20.928  0.00  0.00    +0.000 A 
ATOM     27  C   UNL     1       0.231  10.079  22.247  0.00  0.00    +0.000 A 
ATOM     28  C   UNL     1       0.894   8.851  22.360  0.00  0.00    +0.000 A 
ATOM     29  N   UNL     1       1.398   8.422  21.200  0.00  0.00    +0.000 NA
ATOM     30  N   UNL     1       1.060   9.399  20.301  0.00  0.00    +0.000 N 
ENDBRANCH  19  22
ENDBRANCH   5  18
TORSDOF 5
ENDMDL
MODEL 2
REMARK VINA RESULT:      -9.1      0.849      1.719
REMARK  Name = 
REMARK  6 active torsions:
REMARK  status: ('A' for Active; 'I' for Inactive)
REMARK    1  A    between atoms: C_1  and  N_2
REMARK    2  A    between atoms: C_6  and  C_7
REMARK    3  A    between atoms: C_7  and  C_8
REMARK    4  A    between atoms: C_8  and  C_9
REMARK    5  A    between atoms: C_13  and  N_14
REMARK    6  A    between atoms: C_15  and  C_17
REMARK                            x       y       z     vdW  Elec       q    Type
REMARK                         _______ _______ _______ _____ _____    ______ ____
ROOT
ATOM      1  C   UNL     1       4.583   4.716  17.287  0.00  0.00    +0.000 A 
ATOM      2  C   UNL     1       3.771   3.626  16.926  0.00  0.00    +0.000 A 
ATOM      3  C   UNL     1       2.446   3.530  17.353  0.00  0.00    +0.000 A 
ATOM      4  C   UNL     1       1.896   4.521  18.163  0.00  0.00    +0.000 A 
ATOM      5  C   UNL     1       2.663   5.615  18.559  0.00  0.00    +0.000 A 
ATOM      6  C   UNL     1       3.990   5.698  18.119  0.00  0.00    +0.000 A 
ENDROOT
BRANCH   1   7
ATOM      7  C   UNL     1       6.100   4.853  16.768  0.00  0.00    +0.000 C 
ATOM      8  C   UNL     1       7.188   4.698  17.872  0.00  0.00    +0.000 C 
ATOM      9  O   UNL     1       7.682   6.033  17.666  0.00  0.00    +0.000 OA
ATOM     10  C   UNL     1       6.702   6.281  16.636  0.00  0.00    +0.000 C 
BRANCH   7  11
ATOM     11  C   UNL     1       6.357   3.920  15.569  0.00  0.00    +0.000 C 
BRANCH  11  17
ATOM     12  C   UNL     1       5.770   3.350  12.480  0.00  0.00    +0.000 C 
ATOM     13  N   UNL     1       6.707   4.282  13.047  0.00  0.00    +0.000 N 
ATOM     14  C   UNL     1       7.569   5.050  12.319  0.00  0.00    +0.000 A 
ATOM     15  N   UNL     1       8.288   5.789  13.128  0.00  0.00    +0.000 NA
ATOM     16  N   UNL     1       7.901   5.495  14.410  0.00  0.00    +0.000 NA
ATOM     17  C   UNL     1       6.954   4.577  14.367  0.00  0.00    +0.000 A 
ENDBRANCH  11  17
ENDBRANCH   7  11
ENDBRANCH   1   7
BRANCH   5  18
ATOM     18  N   UNL     1       2.172   6.666  19.364  0.00  0.00    +0.000 N 
ATOM     19  C   UNL     1       1.908   7.959  18.967  0.00  0.00    +0.000 C 
ATOM     20  O   UNL     1       2.009   8.387  17.818  0.00  0.00    +0.000 OA
ATOM     21  H   UNL     1       1.980   6.435  20.342  0.00  0.00    +0.000 HD
BRANCH  19  22
ATOM     22  C   UNL     1       1.429   8.877  20.046  0.00  0.00    +0.000 A 
ATOM     23  C   UNL     1       1.323   8.345  21.278  0.00  0.00    +0.000 A 
ATOM     24  C   UNL     1       0.865   9.264  22.348  0.00  0.00    +0.000 A 
ATOM     25  N   UNL     1       0.582  10.524  22.201  0.00  0.00    +0.000 NA
ATOM     26  C   UNL     1       0.713  11.021  20.936  0.00  0.00    +0.000 A 
ATOM     27  C   UNL     1       0.532  12.287  20.437  0.00  0.00    +0.000 A 
ATOM     28  C   UNL     1       0.800  12.184  19.066  0.00  0.00    +0.000 A 
ATOM     29  N   UNL     1       1.155  10.952  18.695  0.00  0.00    +0.000 NA
ATOM     30  N   UNL     1       1.114  10.224  19.855  0.00  0.00    +0.000 N 
ENDBRANCH  19  22
ENDBRANCH   5  18
TORSDOF 5
ENDMDL
MODEL 3
REMARK VINA RESULT:      -9.0      1.320      1.586
REMARK  Name = 
REMARK  6 active torsions:
REMARK  status: ('A' for Active; 'I' for Inactive)
REMARK    1  A    between atoms: C_1  and  N_2
REMARK    2  A    between atoms: C_6  and  C_7
REMARK    3  A    between atoms: C_7  and  C_8
REMARK    4  A    between atoms: C_8  and  C_9
REMARK    5  A    between atoms: C_13  and  N_14
REMARK    6  A    between atoms: C_15  and  C_17
REMARK                            x       y       z     vdW  Elec       q    Type
REMARK                         _______ _______ _______ _____ _____    ______ ____
ROOT
ATOM      1  C   UNL     1       5.519   5.263  18.778  0.00  0.00    +0.000 A 
ATOM      2  C   UNL     1       5.151   3.947  19.114  0.00  0.00    +0.000 A 
ATOM      3  C   UNL     1       3.883   3.648  19.610  0.00  0.00    +0.000 A 
ATOM      4  C   UNL     1       2.944   4.661  19.794  0.00  0.00    +0.000 A 
ATOM      5  C   UNL     1       3.263   5.982  19.488  0.00  0.00    +0.000 A 
ATOM      6  C   UNL     1       4.541   6.265  18.988  0.00  0.00    +0.000 A 
ENDROOT
BRANCH   1   7
ATOM      7  C   UNL     1       6.968   5.610  18.171  0.00  0.00    +0.000 C 
ATOM      8  C   UNL     1       8.049   5.990  19.226  0.00  0.00    +0.000 C 
ATOM      9  O   UNL     1       8.219   7.308  18.677  0.00  0.00    +0.000 OA
ATOM     10  C   UNL     1       7.221   7.059  17.665  0.00  0.00    +0.000 C 
BRANCH   7  11
ATOM     11  C   UNL     1       7.450   4.493  17.225  0.00  0.00    +0.000 C 
BRANCH  11  17
ATOM     12  C   UNL     1       4.848   3.312  15.796  0.00  0.00    +0.000 C 
ATOM     13  N   UNL     1       5.911   4.081  15.207  0.00  0.00    +0.000 N 
ATOM     14  C   UNL     1       6.004   4.379  13.878  0.00  0.00    +0.000 A 
ATOM     15  N   UNL     1       7.085   5.088  13.662  0.00  0.00    +0.000 NA
ATOM     16  N   UNL     1       7.720   5.251  14.867  0.00  0.00    +0.000 NA
ATOM     17  C   UNL     1       7.020   4.634  15.801  0.00  0.00    +0.000 A 
ENDBRANCH  11  17
ENDBRANCH   7  11
ENDBRANCH   1   7
BRANCH   5  18
ATOM     18  N   UNL     1       2.361   7.059  19.631  0.00  0.00    +0.000 N 
ATOM     19  C   UNL     1       2.169   8.100  18.750  0.00  0.00    +0.000 C 
ATOM     20  O   UNL     1       2.724   8.223  17.658  0.00  0.00    +0.000 OA
ATOM     21  H   UNL     1       1.781   7.054  20.474  0.00  0.00    +0.000 HD
BRANCH  19  22
ATOM     22  C   UNL     1       1.170   9.129  19.177  0.00  0.00    +0.000 A 
ATOM     23  C   UNL     1       0.579   9.830  18.192  0.00  0.00    +0.000 A 
ATOM     24  C   UNL     1      -0.424  10.835  18.619  0.00  0.00    +0.000 A 
ATOM     25  N   UNL     1      -0.787  11.077  19.844  0.00  0.00    +0.000 NA
ATOM     26  C   UNL     1      -0.166  10.335  20.807  0.00  0.00    +0.000 A 
ATOM     27  C   UNL     1      -0.324  10.307  22.170  0.00  0.00    +0.000 A 
ATOM     28  C   UNL     1       0.597   9.356  22.628  0.00  0.00    +0.000 A 
ATOM     29  N   UNL     1       1.290   8.785  21.641  0.00  0.00    +0.000 NA
ATOM     30  N   UNL     1       0.814   9.380  20.503  0.00  0.00    +0.000 N 
ENDBRANCH  19  22
ENDBRANCH   5  18
TORSDOF 5
ENDMDL
MODEL 4
REMARK VINA RESULT:      -8.6      3.752      9.047
REMARK  Name = 
REMARK  6 active torsions:
REMARK  status: ('A' for Active; 'I' for Inactive)
REMARK    1  A    between atoms: C_1  and  N_2
REMARK    2  A    between atoms: C_6  and  C_7
REMARK    3  A    between atoms: C_7  and  C_8
REMARK    4  A    between atoms: C_8  and  C_9
REMARK    5  A    between atoms: C_13  and  N_14
REMARK    6  A    between atoms: C_15  and  C_17
REMARK                            x       y       z     vdW  Elec       q    Type
REMARK                         _______ _______ _______ _____ _____    ______ ____
ROOT
ATOM      1  C   UNL     1      -0.238  10.675  20.334  0.00  0.00    +0.000 A 
ATOM      2  C   UNL     1      -0.582  10.994  21.660  0.00  0.00    +0.000 A 
ATOM      3  C   UNL     1      -0.205  10.181  22.728  0.00  0.00    +0.000 A 
ATOM      4  C   UNL     1       0.525   9.016  22.500  0.00  0.00    +0.000 A 
ATOM      5  C   UNL     1       0.880   8.649  21.204  0.00  0.00    +0.000 A 
ATOM      6  C   UNL     1       0.495   9.478  20.142  0.00  0.00    +0.000 A 
ENDROOT
BRANCH   1   7
ATOM      7  C   UNL     1      -0.639  11.628  19.101  0.00  0.00    +0.000 C 
ATOM      8  C   UNL     1       0.526  12.490  18.531  0.00  0.00    +0.000 C 
ATOM      9  O   UNL     1      -0.137  13.723  18.857  0.00  0.00    +0.000 OA
ATOM     10  C   UNL     1      -1.262  13.016  19.421  0.00  0.00    +0.000 C 
BRANCH   7  11
ATOM     11  C   UNL     1      -1.358  10.826  17.998  0.00  0.00    +0.000 C 
BRANCH  11  17
ATOM     12  C   UNL     1      -3.071  10.851  15.302  0.00  0.00    +0.000 C 
ATOM     13  N   UNL     1      -3.504  11.191  16.630  0.00  0.00    +0.000 N 
ATOM     14  C   UNL     1      -4.748  11.658  16.940  0.00  0.00    +0.000 A 
ATOM     15  N   UNL     1      -4.826  11.875  18.231  0.00  0.00    +0.000 NA
ATOM     16  N   UNL     1      -3.609  11.556  18.778  0.00  0.00    +0.000 NA
ATOM     17  C   UNL     1      -2.804  11.153  17.812  0.00  0.00    +0.000 A 
ENDBRANCH  11  17
ENDBRANCH   7  11
ENDBRANCH   1   7
BRANCH   5  18
ATOM     18  N   UNL     1       1.631   7.494  20.894  0.00  0.00    +0.000 N 
ATOM     19  C   UNL     1       2.264   7.213  19.703  0.00  0.00    +0.000 C 
ATOM     20  O   UNL     1       2.319   7.964  18.730  0.00  0.00    +0.000 OA
ATOM     21  H   UNL     1       1.724   6.801  21.641  0.00  0.00    +0.000 HD
BRANCH  19  22
ATOM     22  C   UNL     1       2.959   5.890  19.641  0.00  0.00    +0.000 A 
ATOM     23  C   UNL     1       4.204   5.895  19.130  0.00  0.00    +0.000 A 
ATOM     24  C   UNL     1       4.896   4.584  19.086  0.00  0.00    +0.000 A 
ATOM     25  N   UNL     1       4.416   3.454  19.513  0.00  0.00    +0.000 NA
ATOM     26  C   UNL     1       3.153   3.501  20.031  0.00  0.00    +0.000 A 
ATOM     27  C   UNL     1       2.367   2.524  20.589  0.00  0.00    +0.000 A 
ATOM     28  C   UNL     1       1.168   3.164  20.927  0.00  0.00    +0.000 A 
ATOM     29  N   UNL     1       1.174   4.468  20.637  0.00  0.00    +0.000 NA
ATOM     30  N   UNL     1       2.410   4.688  20.090  0.00  0.00    +0.000 N 
ENDBRANCH  19  22
ENDBRANCH   5  18
TORSDOF 5
ENDMDL
MODEL 5
REMARK VINA RESULT:      -8.5      1.278      1.990
REMARK  Name = 
REMARK  6 active torsions:
REMARK  status: ('A' for Active; 'I' for Inactive)
REMARK    1  A    between atoms: C_1  and  N_2
REMARK    2  A    between atoms: C_6  and  C_7
REMARK    3  A    between atoms: C_7  and  C_8
REMARK    4  A    between atoms: C_8  and  C_9
REMARK    5  A    between atoms: C_13  and  N_14
REMARK    6  A    between atoms: C_15  and  C_17
REMARK                            x       y       z     vdW  Elec       q    Type
REMARK                         _______ _______ _______ _____ _____    ______ ____
ROOT
ATOM      1  C   UNL     1       4.919   5.508  17.719  0.00  0.00    +0.000 A 
ATOM      2  C   UNL     1       4.179   4.359  17.387  0.00  0.00    +0.000 A 
ATOM      3  C   UNL     1       2.800   4.298  17.581  0.00  0.00    +0.000 A 
ATOM      4  C   UNL     1       2.117   5.387  18.122  0.00  0.00    +0.000 A 
ATOM      5  C   UNL     1       2.807   6.544  18.479  0.00  0.00    +0.000 A 
ATOM      6  C   UNL     1       4.192   6.589  18.275  0.00  0.00    +0.000 A 
ENDROOT
BRANCH   1   7
ATOM      7  C   UNL     1       6.505   5.599  17.464  0.00  0.00    +0.000 C 
ATOM      8  C   UNL     1       7.374   5.696  18.755  0.00  0.00    +0.000 C 
ATOM      9  O   UNL     1       7.895   6.985  18.388  0.00  0.00    +0.000 OA
ATOM     10  C   UNL     1       7.120   6.997  17.170  0.00  0.00    +0.000 C 
BRANCH   7  11
ATOM     11  C   UNL     1       6.978   4.466  16.532  0.00  0.00    +0.000 C 
BRANCH  11  17
ATOM     12  C   UNL     1       5.338   3.577  13.939  0.00  0.00    +0.000 C 
ATOM     13  N   UNL     1       6.493   4.432  14.008  0.00  0.00    +0.000 N 
ATOM     14  C   UNL     1       7.127   4.961  12.922  0.00  0.00    +0.000 A 
ATOM     15  N   UNL     1       8.142   5.690  13.318  0.00  0.00    +0.000 NA
ATOM     16  N   UNL     1       8.182   5.631  14.688  0.00  0.00    +0.000 NA
ATOM     17  C   UNL     1       7.195   4.862  15.108  0.00  0.00    +0.000 A 
ENDBRANCH  11  17
ENDBRANCH   7  11
ENDBRANCH   1   7
BRANCH   5  18
ATOM     18  N   UNL     1       2.185   7.692  19.016  0.00  0.00    +0.000 N 
ATOM     19  C   UNL     1       1.866   8.851  18.344  0.00  0.00    +0.000 C 
ATOM     20  O   UNL     1       2.026   9.045  17.140  0.00  0.00    +0.000 OA
ATOM     21  H   UNL     1       1.934   7.649  20.007  0.00  0.00    +0.000 HD
BRANCH  19  22
ATOM     22  C   UNL     1       1.243   9.927  19.177  0.00  0.00    +0.000 A 
ATOM     23  C   UNL     1       0.366   9.522  20.114  0.00  0.00    +0.000 A 
ATOM     24  C   UNL     1      -0.235  10.589  20.950  0.00  0.00    +0.000 A 
ATOM     25  N   UNL     1       0.026  11.860  20.867  0.00  0.00    +0.000 NA
ATOM     26  C   UNL     1       0.929  12.221  19.909  0.00  0.00    +0.000 A 
ATOM     27  C   UNL     1       1.451  13.446  19.572  0.00  0.00    +0.000 A 
ATOM     28  C   UNL     1       2.319  13.195  18.502  0.00  0.00    +0.000 A 
ATOM     29  N   UNL     1       2.383  11.902  18.175  0.00  0.00    +0.000 NA
ATOM     30  N   UNL     1       1.530  11.287  19.053  0.00  0.00    +0.000 N 
ENDBRANCH  19  22
ENDBRANCH   5  18
TORSDOF 5
ENDMDL
MODEL 6
REMARK VINA RESULT:      -8.5      2.043      3.432
REMARK  Name = 
REMARK  6 active torsions:
REMARK  status: ('A' for Active; 'I' for Inactive)
REMARK    1  A    between atoms: C_1  and  N_2
REMARK    2  A    between atoms: C_6  and  C_7
REMARK    3  A    between atoms: C_7  and  C_8
REMARK    4  A    between atoms: C_8  and  C_9
REMARK    5  A    between atoms: C_13  and  N_14
REMARK    6  A    between atoms: C_15  and  C_17
REMARK                            x       y       z     vdW  Elec       q    Type
REMARK                         _______ _______ _______ _____ _____    ______ ____
ROOT
ATOM      1  C   UNL     1       4.320   4.395  16.880  0.00  0.00    +0.000 A 
ATOM      2  C   UNL     1       3.516   3.242  16.910  0.00  0.00    +0.000 A 
ATOM      3  C   UNL     1       2.285   3.227  17.565  0.00  0.00    +0.000 A 
ATOM      4  C   UNL     1       1.824   4.368  18.219  0.00  0.00    +0.000 A 
ATOM      5  C   UNL     1       2.589   5.532  18.229  0.00  0.00    +0.000 A 
ATOM      6  C   UNL     1       3.822   5.531  17.564  0.00  0.00    +0.000 A 
ENDROOT
BRANCH   1   7
ATOM      7  C   UNL     1       5.724   4.430  16.095  0.00  0.00    +0.000 C 
ATOM      8  C   UNL     1       5.836   5.531  14.998  0.00  0.00    +0.000 C 
ATOM      9  O   UNL     1       6.014   4.562  13.950  0.00  0.00    +0.000 OA
ATOM     10  C   UNL     1       5.912   3.469  14.887  0.00  0.00    +0.000 C 
BRANCH   7  11
ATOM     11  C   UNL     1       6.906   4.478  17.084  0.00  0.00    +0.000 C 
BRANCH  11  17
ATOM     12  C   UNL     1       7.929   5.627  19.885  0.00  0.00    +0.000 C 
ATOM     13  N   UNL     1       7.813   6.321  18.631  0.00  0.00    +0.000 N 
ATOM     14  C   UNL     1       8.072   7.650  18.458  0.00  0.00    +0.000 A 
ATOM     15  N   UNL     1       7.871   7.976  17.204  0.00  0.00    +0.000 NA
ATOM     16  N   UNL     1       7.462   6.846  16.543  0.00  0.00    +0.000 NA
ATOM     17  C   UNL     1       7.414   5.847  17.404  0.00  0.00    +0.000 A 
ENDBRANCH  11  17
ENDBRANCH   7  11
ENDBRANCH   1   7
BRANCH   5  18
ATOM     18  N   UNL     1       2.183   6.731  18.855  0.00  0.00    +0.000 N 
ATOM     19  C   UNL     1       1.846   6.900  20.180  0.00  0.00    +0.000 C 
ATOM     20  O   UNL     1       1.902   6.029  21.047  0.00  0.00    +0.000 OA
ATOM     21  H   UNL     1       2.150   7.563  18.260  0.00  0.00    +0.000 HD
BRANCH  19  22
ATOM     22  C   UNL     1       1.414   8.280  20.563  0.00  0.00    +0.000 A 
ATOM     23  C   UNL     1       1.025   8.451  21.840  0.00  0.00    +0.000 A 
ATOM     24  C   UNL     1       0.615   9.824  22.219  0.00  0.00    +0.000 A 
ATOM     25  N   UNL     1       0.619  10.864  21.439  0.00  0.00    +0.000 NA
ATOM     26  C   UNL     1       1.031  10.644  20.156  0.00  0.00    +0.000 A 
ATOM     27  C   UNL     1       1.186  11.502  19.095  0.00  0.00    +0.000 A 
ATOM     28  C   UNL     1       1.622  10.699  18.033  0.00  0.00    +0.000 A 
ATOM     29  N   UNL     1       1.767   9.417  18.375  0.00  0.00    +0.000 NA
ATOM     30  N   UNL     1       1.412   9.375  19.697  0.00  0.00    +0.000 N 
ENDBRANCH  19  22
ENDBRANCH   5  18
TORSDOF 5
ENDMDL
MODEL 7
REMARK VINA RESULT:      -8.5      3.675      8.919
REMARK  Name = 
REMARK  6 active torsions:
REMARK  status: ('A' for Active; 'I' for Inactive)
REMARK    1  A    between atoms: C_1  and  N_2
REMARK    2  A    between atoms: C_6  and  C_7
REMARK    3  A    between atoms: C_7  and  C_8
REMARK    4  A    between atoms: C_8  and  C_9
REMARK    5  A    between atoms: C_13  and  N_14
REMARK    6  A    between atoms: C_15  and  C_17
REMARK                            x       y       z     vdW  Elec       q    Type
REMARK                         _______ _______ _______ _____ _____    ______ ____
ROOT
ATOM      1  C   UNL     1      -0.427  10.215  20.365  0.00  0.00    +0.000 A 
ATOM      2  C   UNL     1      -0.526  10.691  21.685  0.00  0.00    +0.000 A 
ATOM      3  C   UNL     1       0.142  10.066  22.738  0.00  0.00    +0.000 A 
ATOM      4  C   UNL     1       0.927   8.939  22.502  0.00  0.00    +0.000 A 
ATOM      5  C   UNL     1       1.048   8.421  21.215  0.00  0.00    +0.000 A 
ATOM      6  C   UNL     1       0.372   9.062  20.168  0.00  0.00    +0.000 A 
ENDROOT
BRANCH   1   7
ATOM      7  C   UNL     1      -1.165  10.951  19.140  0.00  0.00    +0.000 C 
ATOM      8  C   UNL     1      -0.249  11.870  18.277  0.00  0.00    +0.000 C 
ATOM      9  O   UNL     1      -1.013  13.045  18.597  0.00  0.00    +0.000 OA
ATOM     10  C   UNL     1      -1.912  12.284  19.430  0.00  0.00    +0.000 C 
BRANCH   7  11
ATOM     11  C   UNL     1      -1.944   9.938  18.279  0.00  0.00    +0.000 C 
BRANCH  11  17
ATOM     12  C   UNL     1      -4.972  10.956  18.320  0.00  0.00    +0.000 C 
ATOM     13  N   UNL     1      -4.062  10.926  17.207  0.00  0.00    +0.000 N 
ATOM     14  C   UNL     1      -4.391  11.283  15.932  0.00  0.00    +0.000 A 
ATOM     15  N   UNL     1      -3.346  11.142  15.153  0.00  0.00    +0.000 NA
ATOM     16  N   UNL     1      -2.315  10.674  15.927  0.00  0.00    +0.000 NA
ATOM     17  C   UNL     1      -2.747  10.531  17.166  0.00  0.00    +0.000 A 
ENDBRANCH  11  17
ENDBRANCH   7  11
ENDBRANCH   1   7
BRANCH   5  18
ATOM     18  N   UNL     1       1.835   7.294  20.894  0.00  0.00    +0.000 N 
ATOM     19  C   UNL     1       2.426   7.015  19.681  0.00  0.00    +0.000 C 
ATOM     20  O   UNL     1       2.403   7.746  18.692  0.00  0.00    +0.000 OA
ATOM     21  H   UNL     1       1.993   6.623  21.650  0.00  0.00    +0.000 HD
BRANCH  19  22
ATOM     22  C   UNL     1       3.177   5.723  19.614  0.00  0.00    +0.000 A 
ATOM     23  C   UNL     1       4.304   5.727  18.877  0.00  0.00    +0.000 A 
ATOM     24  C   UNL     1       5.054   4.449  18.828  0.00  0.00    +0.000 A 
ATOM     25  N   UNL     1       4.731   3.350  19.443  0.00  0.00    +0.000 NA
ATOM     26  C   UNL     1       3.586   3.398  20.185  0.00  0.00    +0.000 A 
ATOM     27  C   UNL     1       2.976   2.453  20.972  0.00  0.00    +0.000 A 
ATOM     28  C   UNL     1       1.824   3.074  21.469  0.00  0.00    +0.000 A 
ATOM     29  N   UNL     1       1.697   4.339  21.061  0.00  0.00    +0.000 NA
ATOM     30  N   UNL     1       2.795   4.552  20.271  0.00  0.00    +0.000 N 
ENDBRANCH  19  22
ENDBRANCH   5  18
TORSDOF 5
ENDMDL
MODEL 8
REMARK VINA RESULT:      -8.5      1.964      2.981
REMARK  Name = 
REMARK  6 active torsions:
REMARK  status: ('A' for Active; 'I' for Inactive)
REMARK    1  A    between atoms: C_1  and  N_2
REMARK    2  A    between atoms: C_6  and  C_7
REMARK    3  A    between atoms: C_7  and  C_8
REMARK    4  A    between atoms: C_8  and  C_9
REMARK    5  A    between atoms: C_13  and  N_14
REMARK    6  A    between atoms: C_15  and  C_17
REMARK                            x       y       z     vdW  Elec       q    Type
REMARK                         _______ _______ _______ _____ _____    ______ ____
ROOT
ATOM      1  C   UNL     1       4.720   4.501  17.862  0.00  0.00    +0.000 A 
ATOM      2  C   UNL     1       4.604   3.397  18.725  0.00  0.00    +0.000 A 
ATOM      3  C   UNL     1       3.722   3.404  19.805  0.00  0.00    +0.000 A 
ATOM      4  C   UNL     1       2.931   4.523  20.059  0.00  0.00    +0.000 A 
ATOM      5  C   UNL     1       3.017   5.647  19.241  0.00  0.00    +0.000 A 
ATOM      6  C   UNL     1       3.907   5.623  18.158  0.00  0.00    +0.000 A 
ENDROOT
BRANCH   1   7
ATOM      7  C   UNL     1       5.708   4.487  16.593  0.00  0.00    +0.000 C 
ATOM      8  C   UNL     1       5.346   5.500  15.465  0.00  0.00    +0.000 C 
ATOM      9  O   UNL     1       5.140   4.454  14.500  0.00  0.00    +0.000 OA
ATOM     10  C   UNL     1       5.450   3.436  15.475  0.00  0.00    +0.000 C 
BRANCH   7  11
ATOM     11  C   UNL     1       7.178   4.620  17.039  0.00  0.00    +0.000 C 
BRANCH  11  17
ATOM     12  C   UNL     1       8.070   5.674  19.920  0.00  0.00    +0.000 C 
ATOM     13  N   UNL     1       7.943   6.426  18.701  0.00  0.00    +0.000 N 
ATOM     14  C   UNL     1       8.129   7.775  18.603  0.00  0.00    +0.000 A 
ATOM     15  N   UNL     1       7.937   8.156  17.364  0.00  0.00    +0.000 NA
ATOM     16  N   UNL     1       7.608   7.041  16.635  0.00  0.00    +0.000 NA
ATOM     17  C   UNL     1       7.599   5.996  17.442  0.00  0.00    +0.000 A 
ENDBRANCH  11  17
ENDBRANCH   7  11
ENDBRANCH   1   7
BRANCH   5  18
ATOM     18  N   UNL     1       2.239   6.811  19.423  0.00  0.00    +0.000 N 
ATOM     19  C   UNL     1       2.259   7.950  18.649  0.00  0.00    +0.000 C 
ATOM     20  O   UNL     1       2.930   8.108  17.630  0.00  0.00    +0.000 OA
ATOM     21  H   UNL     1       1.581   6.796  20.207  0.00  0.00    +0.000 HD
BRANCH  19  22
ATOM     22  C   UNL     1       1.350   9.050  19.099  0.00  0.00    +0.000 A 
ATOM     23  C   UNL     1       0.835   9.831  18.132  0.00  0.00    +0.000 A 
ATOM     24  C   UNL     1      -0.080  10.907  18.581  0.00  0.00    +0.000 A 
ATOM     25  N   UNL     1      -0.435  11.143  19.809  0.00  0.00    +0.000 NA
ATOM     26  C   UNL     1       0.106  10.319  20.754  0.00  0.00    +0.000 A 
ATOM     27  C   UNL     1      -0.071  10.263  22.114  0.00  0.00    +0.000 A 
ATOM     28  C   UNL     1       0.756   9.221  22.551  0.00  0.00    +0.000 A 
ATOM     29  N   UNL     1       1.408   8.621  21.552  0.00  0.00    +0.000 NA
ATOM     30  N   UNL     1       1.001   9.291  20.429  0.00  0.00    +0.000 N 
ENDBRANCH  19  22
ENDBRANCH   5  18
TORSDOF 5
ENDMDL
MODEL 9
REMARK VINA RESULT:      -8.4      1.940      3.001
REMARK  Name = 
REMARK  6 active torsions:
REMARK  status: ('A' for Active; 'I' for Inactive)
REMARK    1  A    between atoms: C_1  and  N_2
REMARK    2  A    between atoms: C_6  and  C_7
REMARK    3  A    between atoms: C_7  and  C_8
REMARK    4  A    between atoms: C_8  and  C_9
REMARK    5  A    between atoms: C_13  and  N_14
REMARK    6  A    between atoms: C_15  and  C_17
REMARK                            x       y       z     vdW  Elec       q    Type
REMARK                         _______ _______ _______ _____ _____    ______ ____
ROOT
ATOM      1  C   UNL     1       4.350   4.525  16.986  0.00  0.00    +0.000 A 
ATOM      2  C   UNL     1       3.617   3.371  17.313  0.00  0.00    +0.000 A 
ATOM      3  C   UNL     1       2.414   3.445  18.015  0.00  0.00    +0.000 A 
ATOM      4  C   UNL     1       1.910   4.681  18.418  0.00  0.00    +0.000 A 
ATOM      5  C   UNL     1       2.605   5.853  18.128  0.00  0.00    +0.000 A 
ATOM      6  C   UNL     1       3.811   5.761  17.421  0.00  0.00    +0.000 A 
ENDROOT
BRANCH   1   7
ATOM      7  C   UNL     1       5.720   4.450  16.145  0.00  0.00    +0.000 C 
ATOM      8  C   UNL     1       5.833   5.479  14.979  0.00  0.00    +0.000 C 
ATOM      9  O   UNL     1       5.923   4.443  13.986  0.00  0.00    +0.000 OA
ATOM     10  C   UNL     1       5.814   3.413  14.990  0.00  0.00    +0.000 C 
BRANCH   7  11
ATOM     11  C   UNL     1       6.943   4.501  17.081  0.00  0.00    +0.000 C 
BRANCH  11  17
ATOM     12  C   UNL     1       8.001   5.625  19.878  0.00  0.00    +0.000 C 
ATOM     13  N   UNL     1       7.851   6.336  18.637  0.00  0.00    +0.000 N 
ATOM     14  C   UNL     1       8.086   7.670  18.479  0.00  0.00    +0.000 A 
ATOM     15  N   UNL     1       7.855   8.012  17.235  0.00  0.00    +0.000 NA
ATOM     16  N   UNL     1       7.451   6.885  16.565  0.00  0.00    +0.000 NA
ATOM     17  C   UNL     1       7.436   5.873  17.412  0.00  0.00    +0.000 A 
ENDBRANCH  11  17
ENDBRANCH   7  11
ENDBRANCH   1   7
BRANCH   5  18
ATOM     18  N   UNL     1       2.153   7.141  18.488  0.00  0.00    +0.000 N 
ATOM     19  C   UNL     1       1.806   7.575  19.748  0.00  0.00    +0.000 C 
ATOM     20  O   UNL     1       1.892   6.910  20.780  0.00  0.00    +0.000 OA
ATOM     21  H   UNL     1       2.090   7.826  17.730  0.00  0.00    +0.000 HD
BRANCH  19  22
ATOM     22  C   UNL     1       1.321   8.988  19.832  0.00  0.00    +0.000 A 
ATOM     23  C   UNL     1       1.501   9.745  18.734  0.00  0.00    +0.000 A 
ATOM     24  C   UNL     1       1.003  11.139  18.814  0.00  0.00    +0.000 A 
ATOM     25  N   UNL     1       0.399  11.676  19.833  0.00  0.00    +0.000 NA
ATOM     26  C   UNL     1       0.232  10.866  20.920  0.00  0.00    +0.000 A 
ATOM     27  C   UNL     1      -0.378  11.089  22.129  0.00  0.00    +0.000 A 
ATOM     28  C   UNL     1      -0.224   9.895  22.845  0.00  0.00    +0.000 A 
ATOM     29  N   UNL     1       0.415   8.950  22.151  0.00  0.00    +0.000 NA
ATOM     30  N   UNL     1       0.692   9.542  20.948  0.00  0.00    +0.000 N 
ENDBRANCH  19  22
ENDBRANCH   5  18
TORSDOF 5
ENDMDL
