MODEL 1
REMARK VINA RESULT:      -8.7      0.000      0.000
REMARK  Name = 
REMARK  6 active torsions:
REMARK  status: ('A' for Active; 'I' for Inactive)
REMARK    1  A    between atoms: C_1  and  C_2
REMARK    2  A    between atoms: C_2  and  S_3
REMARK    3  A    between atoms: C_2  and  C_10
REMARK    4  A    between atoms: S_3  and  C_4
REMARK    5  A    between atoms: N_8  and  C_9
REMARK    6  A    between atoms: C_14  and  N_15
REMARK                            x       y       z     vdW  Elec       q    Type
REMARK                         _______ _______ _______ _____ _____    ______ ____
ROOT
ATOM      1  C   UNL     1       0.745  10.042  19.159  0.00  0.00    +0.000 A 
ATOM      2  C   UNL     1       0.521   9.806  20.524  0.00  0.00    +0.000 A 
ATOM      3  C   UNL     1       1.044   8.671  21.127  0.00  0.00    +0.000 A 
ATOM      4  C   UNL     1       1.797   7.741  20.390  0.00  0.00    +0.000 A 
ATOM      5  C   UNL     1       2.051   7.905  19.014  0.00  0.00    +0.000 A 
ATOM      6  C   UNL     1       1.521   9.096  18.419  0.00  0.00    +0.000 A 
ENDROOT
BRANCH   5   7
ATOM      7  N   UNL     1       2.876   6.945  18.285  0.00  0.00    +0.000 N 
ATOM      8  C   UNL     1       3.518   5.879  18.915  0.00  0.00    +0.000 C 
ATOM      9  O   UNL     1       3.182   5.539  20.059  0.00  0.00    +0.000 OA
ATOM     10  N   UNL     1       4.632   5.230  18.320  0.00  0.00    +0.000 N 
ATOM     11  C   UNL     1       5.575   4.658  19.303  0.00  0.00    +0.000 C 
ATOM     12  C   UNL     1       6.924   5.368  19.243  0.00  0.00    +0.000 C 
ATOM     13  C   UNL     1       7.496   5.181  17.864  0.00  0.00    +0.000 C 
ATOM     14  C   UNL     1       6.511   5.711  16.813  0.00  0.00    +0.000 A 
ATOM     15  C   UNL     1       7.115   5.793  15.546  0.00  0.00    +0.000 A 
ATOM     16  C   UNL     1       6.720   4.879  14.591  0.00  0.00    +0.000 A 
ATOM     17  C   UNL     1       5.667   4.023  14.907  0.00  0.00    +0.000 A 
ATOM     18  C   UNL     1       4.872   4.249  16.064  0.00  0.00    +0.000 A 
ATOM     19  C   UNL     1       5.180   5.268  16.985  0.00  0.00    +0.000 A 
ATOM     20  H   UNL     1       2.741   6.867  17.287  0.00  0.00    +0.000 HD
ENDBRANCH   5   7
BRANCH   1  22
ATOM     21  C   UNL     1       1.051  12.575  18.907  0.00  0.00    +0.000 C 
ATOM     22  C   UNL     1       0.177  11.369  18.590  0.00  0.00    +0.000 C 
BRANCH  22  23
ATOM     23  S   UNL     1      -1.557  11.552  19.162  0.00  0.00    +0.000 S 
BRANCH  23  24
ATOM     24  C   UNL     1      -2.562  11.298  17.766  0.00  0.00    +0.000 A 
ATOM     25  N   UNL     1      -2.222  10.843  16.589  0.00  0.00    +0.000 NA
ATOM     26  N   UNL     1      -3.332  10.902  15.774  0.00  0.00    +0.000 NA
ATOM     27  C   UNL     1      -4.323  11.366  16.498  0.00  0.00    +0.000 A 
ATOM     28  N   UNL     1      -3.895  11.599  17.776  0.00  0.00    +0.000 N 
ATOM     29  C   UNL     1      -4.704  12.038  18.872  0.00  0.00    +0.000 C 
ENDBRANCH  23  24
ENDBRANCH  22  23
ENDBRANCH   1  22
TORSDOF 4
ENDMDL
MODEL 2
REMARK VINA RESULT:      -8.6      2.988      4.225
REMARK  Name = 
REMARK  6 active torsions:
REMARK  status: ('A' for Active; 'I' for Inactive)
REMARK    1  A    between atoms: C_1  and  C_2
REMARK    2  A    between atoms: C_2  and  S_3
REMARK    3  A    between atoms: C_2  and  C_10
REMARK    4  A    between atoms: S_3  and  C_4
REMARK    5  A    between atoms: N_8  and  C_9
REMARK    6  A    between atoms: C_14  and  N_15
REMARK                            x       y       z     vdW  Elec       q    Type
REMARK                         _______ _______ _______ _____ _____    ______ ____
ROOT
ATOM      1  C   UNL     1      -1.047  11.291  20.755  0.00  0.00    +0.000 A 
ATOM      2  C   UNL     1      -1.433  11.667  22.051  0.00  0.00    +0.000 A 
ATOM      3  C   UNL     1      -1.179  10.824  23.123  0.00  0.00    +0.000 A 
ATOM      4  C   UNL     1      -0.542   9.585  22.935  0.00  0.00    +0.000 A 
ATOM      5  C   UNL     1      -0.137   9.136  21.662  0.00  0.00    +0.000 A 
ATOM      6  C   UNL     1      -0.389  10.034  20.574  0.00  0.00    +0.000 A 
ENDROOT
BRANCH   5   7
ATOM      7  N   UNL     1       0.564   7.865  21.506  0.00  0.00    +0.000 N 
ATOM      8  C   UNL     1       1.695   7.727  20.700  0.00  0.00    +0.000 C 
ATOM      9  O   UNL     1       2.313   8.732  20.320  0.00  0.00    +0.000 OA
ATOM     10  N   UNL     1       2.103   6.459  20.208  0.00  0.00    +0.000 N 
ATOM     11  C   UNL     1       2.813   6.530  18.914  0.00  0.00    +0.000 C 
ATOM     12  C   UNL     1       2.007   5.850  17.812  0.00  0.00    +0.000 C 
ATOM     13  C   UNL     1       1.828   4.403  18.182  0.00  0.00    +0.000 C 
ATOM     14  C   UNL     1       1.148   4.294  19.554  0.00  0.00    +0.000 A 
ATOM     15  C   UNL     1       0.730   2.976  19.811  0.00  0.00    +0.000 A 
ATOM     16  C   UNL     1       1.427   2.262  20.764  0.00  0.00    +0.000 A 
ATOM     17  C   UNL     1       2.410   2.932  21.488  0.00  0.00    +0.000 A 
ATOM     18  C   UNL     1       2.518   4.349  21.425  0.00  0.00    +0.000 A 
ATOM     19  C   UNL     1       1.718   5.112  20.554  0.00  0.00    +0.000 A 
ATOM     20  H   UNL     1       0.420   7.155  22.210  0.00  0.00    +0.000 HD
ENDBRANCH   5   7
BRANCH   1  22
ATOM     21  C   UNL     1      -0.857  13.733  19.999  0.00  0.00    +0.000 C 
ATOM     22  C   UNL     1      -1.313  12.327  19.632  0.00  0.00    +0.000 C 
BRANCH  22  23
ATOM     23  S   UNL     1      -3.085  12.234  19.162  0.00  0.00    +0.000 S 
BRANCH  23  24
ATOM     24  C   UNL     1      -3.135  11.487  17.592  0.00  0.00    +0.000 A 
ATOM     25  N   UNL     1      -2.141  11.043  16.869  0.00  0.00    +0.000 NA
ATOM     26  N   UNL     1      -2.652  10.621  15.660  0.00  0.00    +0.000 NA
ATOM     27  C   UNL     1      -3.952  10.795  15.703  0.00  0.00    +0.000 A 
ATOM     28  N   UNL     1      -4.310  11.308  16.919  0.00  0.00    +0.000 N 
ATOM     29  C   UNL     1      -5.646  11.566  17.368  0.00  0.00    +0.000 C 
ENDBRANCH  23  24
ENDBRANCH  22  23
ENDBRANCH   1  22
TORSDOF 4
ENDMDL
MODEL 3
REMARK VINA RESULT:      -8.4      1.583      2.168
REMARK  Name = 
REMARK  6 active torsions:
REMARK  status: ('A' for Active; 'I' for Inactive)
REMARK    1  A    between atoms: C_1  and  C_2
REMARK    2  A    between atoms: C_2  and  S_3
REMARK    3  A    between atoms: C_2  and  C_10
REMARK    4  A    between atoms: S_3  and  C_4
REMARK    5  A    between atoms: N_8  and  C_9
REMARK    6  A    between atoms: C_14  and  N_15
REMARK                            x       y       z     vdW  Elec       q    Type
REMARK                         _______ _______ _______ _____ _____    ______ ____
ROOT
ATOM      1  C   UNL     1      -0.184  10.771  19.527  0.00  0.00    +0.000 A 
ATOM      2  C   UNL     1      -0.650  10.323  20.772  0.00  0.00    +0.000 A 
ATOM      3  C   UNL     1      -0.071   9.213  21.371  0.00  0.00    +0.000 A 
ATOM      4  C   UNL     1       0.979   8.519  20.747  0.00  0.00    +0.000 A 
ATOM      5  C   UNL     1       1.490   8.902  19.492  0.00  0.00    +0.000 A 
ATOM      6  C   UNL     1       0.893  10.065  18.904  0.00  0.00    +0.000 A 
ENDROOT
BRANCH   5   7
ATOM      7  N   UNL     1       2.613   8.188  18.890  0.00  0.00    +0.000 N 
ATOM      8  C   UNL     1       2.447   7.015  18.153  0.00  0.00    +0.000 C 
ATOM      9  O   UNL     1       1.323   6.696  17.739  0.00  0.00    +0.000 OA
ATOM     10  N   UNL     1       3.522   6.110  17.951  0.00  0.00    +0.000 N 
ATOM     11  C   UNL     1       3.087   4.706  17.792  0.00  0.00    +0.000 C 
ATOM     12  C   UNL     1       3.583   3.847  18.951  0.00  0.00    +0.000 C 
ATOM     13  C   UNL     1       5.087   3.886  18.959  0.00  0.00    +0.000 C 
ATOM     14  C   UNL     1       5.572   5.339  19.062  0.00  0.00    +0.000 A 
ATOM     15  C   UNL     1       6.950   5.397  19.335  0.00  0.00    +0.000 A 
ATOM     16  C   UNL     1       7.784   5.816  18.318  0.00  0.00    +0.000 A 
ATOM     17  C   UNL     1       7.195   6.269  17.140  0.00  0.00    +0.000 A 
ATOM     18  C   UNL     1       5.797   6.524  17.080  0.00  0.00    +0.000 A 
ATOM     19  C   UNL     1       4.945   6.228  18.161  0.00  0.00    +0.000 A 
ATOM     20  H   UNL     1       3.474   8.696  18.746  0.00  0.00    +0.000 HD
ENDBRANCH   5   7
BRANCH   1  22
ATOM     21  C   UNL     1      -0.487  13.306  19.761  0.00  0.00    +0.000 C 
ATOM     22  C   UNL     1      -0.847  12.057  18.967  0.00  0.00    +0.000 C 
BRANCH  22  23
ATOM     23  S   UNL     1      -2.655  11.770  18.839  0.00  0.00    +0.000 S 
BRANCH  23  24
ATOM     24  C   UNL     1      -2.927  11.063  17.274  0.00  0.00    +0.000 A 
ATOM     25  N   UNL     1      -2.130  10.299  16.574  0.00  0.00    +0.000 NA
ATOM     26  N   UNL     1      -2.732  10.058  15.358  0.00  0.00    +0.000 NA
ATOM     27  C   UNL     1      -3.897  10.662  15.373  0.00  0.00    +0.000 A 
ATOM     28  N   UNL     1      -4.082  11.283  16.577  0.00  0.00    +0.000 N 
ATOM     29  C   UNL     1      -5.259  11.983  16.995  0.00  0.00    +0.000 C 
ENDBRANCH  23  24
ENDBRANCH  22  23
ENDBRANCH   1  22
TORSDOF 4
ENDMDL
MODEL 4
REMARK VINA RESULT:      -8.1      3.265      8.862
REMARK  Name = 
REMARK  6 active torsions:
REMARK  status: ('A' for Active; 'I' for Inactive)
REMARK    1  A    between atoms: C_1  and  C_2
REMARK    2  A    between atoms: C_2  and  S_3
REMARK    3  A    between atoms: C_2  and  C_10
REMARK    4  A    between atoms: S_3  and  C_4
REMARK    5  A    between atoms: N_8  and  C_9
REMARK    6  A    between atoms: C_14  and  N_15
REMARK                            x       y       z     vdW  Elec       q    Type
REMARK                         _______ _______ _______ _____ _____    ______ ____
ROOT
ATOM      1  C   UNL     1       2.852   5.430  18.700  0.00  0.00    +0.000 A 
ATOM      2  C   UNL     1       2.245   4.592  19.647  0.00  0.00    +0.000 A 
ATOM      3  C   UNL     1       1.550   5.140  20.715  0.00  0.00    +0.000 A 
ATOM      4  C   UNL     1       1.447   6.533  20.873  0.00  0.00    +0.000 A 
ATOM      5  C   UNL     1       2.042   7.436  19.971  0.00  0.00    +0.000 A 
ATOM      6  C   UNL     1       2.733   6.846  18.862  0.00  0.00    +0.000 A 
ENDROOT
BRANCH   5   7
ATOM      7  N   UNL     1       1.878   8.878  20.137  0.00  0.00    +0.000 N 
ATOM      8  C   UNL     1       0.655   9.459  20.475  0.00  0.00    +0.000 C 
ATOM      9  O   UNL     1      -0.262   8.758  20.928  0.00  0.00    +0.000 OA
ATOM     10  N   UNL     1       0.390  10.829  20.214  0.00  0.00    +0.000 N 
ATOM     11  C   UNL     1      -1.040  11.117  19.977  0.00  0.00    +0.000 C 
ATOM     12  C   UNL     1      -1.273  11.584  18.544  0.00  0.00    +0.000 C 
ATOM     13  C   UNL     1      -0.486  12.847  18.325  0.00  0.00    +0.000 C 
ATOM     14  C   UNL     1       0.999  12.597  18.622  0.00  0.00    +0.000 A 
ATOM     15  C   UNL     1       1.794  13.670  18.180  0.00  0.00    +0.000 A 
ATOM     16  C   UNL     1       2.352  14.488  19.141  0.00  0.00    +0.000 A 
ATOM     17  C   UNL     1       2.192  14.124  20.476  0.00  0.00    +0.000 A 
ATOM     18  C   UNL     1       1.694  12.837  20.822  0.00  0.00    +0.000 A 
ATOM     19  C   UNL     1       1.245  11.931  19.844  0.00  0.00    +0.000 A 
ATOM     20  H   UNL     1       2.705   9.431  20.307  0.00  0.00    +0.000 HD
ENDBRANCH   5   7
BRANCH   1  22
ATOM     21  C   UNL     1       2.797   3.493  17.021  0.00  0.00    +0.000 C 
ATOM     22  C   UNL     1       3.549   4.727  17.505  0.00  0.00    +0.000 C 
BRANCH  22  23
ATOM     23  S   UNL     1       5.291   4.385  17.967  0.00  0.00    +0.000 S 
BRANCH  23  24
ATOM     24  C   UNL     1       6.173   5.854  17.670  0.00  0.00    +0.000 A 
ATOM     25  N   UNL     1       5.982   6.743  16.731  0.00  0.00    +0.000 NA
ATOM     26  N   UNL     1       6.980   7.688  16.833  0.00  0.00    +0.000 NA
ATOM     27  C   UNL     1       7.730   7.355  17.857  0.00  0.00    +0.000 A 
ATOM     28  N   UNL     1       7.239   6.220  18.441  0.00  0.00    +0.000 N 
ATOM     29  C   UNL     1       7.744   5.592  19.625  0.00  0.00    +0.000 C 
ENDBRANCH  23  24
ENDBRANCH  22  23
ENDBRANCH   1  22
TORSDOF 4
ENDMDL
MODEL 5
REMARK VINA RESULT:      -8.1      2.645      3.170
REMARK  Name = 
REMARK  6 active torsions:
REMARK  status: ('A' for Active; 'I' for Inactive)
REMARK    1  A    between atoms: C_1  and  C_2
REMARK    2  A    between atoms: C_2  and  S_3
REMARK    3  A    between atoms: C_2  and  C_10
REMARK    4  A    between atoms: S_3  and  C_4
REMARK    5  A    between atoms: N_8  and  C_9
REMARK    6  A    between atoms: C_14  and  N_15
REMARK                            x       y       z     vdW  Elec       q    Type
REMARK                         _______ _______ _______ _____ _____    ______ ____
ROOT
ATOM      1  C   UNL     1       1.080  10.168  19.101  0.00  0.00    +0.000 A 
ATOM      2  C   UNL     1       0.655   9.864  20.404  0.00  0.00    +0.000 A 
ATOM      3  C   UNL     1       0.968   8.635  20.967  0.00  0.00    +0.000 A 
ATOM      4  C   UNL     1       1.704   7.677  20.250  0.00  0.00    +0.000 A 
ATOM      5  C   UNL     1       2.153   7.906  18.934  0.00  0.00    +0.000 A 
ATOM      6  C   UNL     1       1.838   9.191  18.383  0.00  0.00    +0.000 A 
ENDROOT
BRANCH   5   7
ATOM      7  N   UNL     1       2.955   6.908  18.232  0.00  0.00    +0.000 N 
ATOM      8  C   UNL     1       3.595   5.859  18.895  0.00  0.00    +0.000 C 
ATOM      9  O   UNL     1       3.272   5.569  20.056  0.00  0.00    +0.000 OA
ATOM     10  N   UNL     1       4.692   5.174  18.309  0.00  0.00    +0.000 N 
ATOM     11  C   UNL     1       5.643   4.631  19.301  0.00  0.00    +0.000 C 
ATOM     12  C   UNL     1       6.999   5.322  19.193  0.00  0.00    +0.000 C 
ATOM     13  C   UNL     1       7.548   5.074  17.815  0.00  0.00    +0.000 C 
ATOM     14  C   UNL     1       6.553   5.573  16.757  0.00  0.00    +0.000 A 
ATOM     15  C   UNL     1       7.139   5.599  15.479  0.00  0.00    +0.000 A 
ATOM     16  C   UNL     1       6.720   4.653  14.567  0.00  0.00    +0.000 A 
ATOM     17  C   UNL     1       5.662   3.823  14.932  0.00  0.00    +0.000 A 
ATOM     18  C   UNL     1       4.887   4.103  16.091  0.00  0.00    +0.000 A 
ATOM     19  C   UNL     1       5.221   5.154  16.966  0.00  0.00    +0.000 A 
ATOM     20  H   UNL     1       2.804   6.793  17.240  0.00  0.00    +0.000 HD
ENDBRANCH   5   7
BRANCH   1  22
ATOM     21  C   UNL     1       1.973  12.461  18.383  0.00  0.00    +0.000 C 
ATOM     22  C   UNL     1       0.740  11.589  18.582  0.00  0.00    +0.000 C 
BRANCH  22  23
ATOM     23  S   UNL     1      -0.508  12.335  19.702  0.00  0.00    +0.000 S 
BRANCH  23  24
ATOM     24  C   UNL     1       0.331  13.539  20.635  0.00  0.00    +0.000 A 
ATOM     25  N   UNL     1       1.013  13.385  21.740  0.00  0.00    +0.000 NA
ATOM     26  N   UNL     1       1.418  14.631  22.165  0.00  0.00    +0.000 NA
ATOM     27  C   UNL     1       0.992  15.503  21.282  0.00  0.00    +0.000 A 
ATOM     28  N   UNL     1       0.328  14.857  20.276  0.00  0.00    +0.000 N 
ATOM     29  C   UNL     1      -0.217  15.461  19.098  0.00  0.00    +0.000 C 
ENDBRANCH  23  24
ENDBRANCH  22  23
ENDBRANCH   1  22
TORSDOF 4
ENDMDL
MODEL 6
REMARK VINA RESULT:      -8.1      3.807      5.537
REMARK  Name = 
REMARK  6 active torsions:
REMARK  status: ('A' for Active; 'I' for Inactive)
REMARK    1  A    between atoms: C_1  and  C_2
REMARK    2  A    between atoms: C_2  and  S_3
REMARK    3  A    between atoms: C_2  and  C_10
REMARK    4  A    between atoms: S_3  and  C_4
REMARK    5  A    between atoms: N_8  and  C_9
REMARK    6  A    between atoms: C_14  and  N_15
REMARK                            x       y       z     vdW  Elec       q    Type
REMARK                         _______ _______ _______ _____ _____    ______ ____
ROOT
ATOM      1  C   UNL     1      -0.735  11.339  20.747  0.00  0.00    +0.000 A 
ATOM      2  C   UNL     1      -1.244  11.665  22.014  0.00  0.00    +0.000 A 
ATOM      3  C   UNL     1      -1.131  10.761  23.060  0.00  0.00    +0.000 A 
ATOM      4  C   UNL     1      -0.516   9.511  22.874  0.00  0.00    +0.000 A 
ATOM      5  C   UNL     1       0.006   9.111  21.629  0.00  0.00    +0.000 A 
ATOM      6  C   UNL     1      -0.101  10.070  20.569  0.00  0.00    +0.000 A 
ENDROOT
BRANCH   5   7
ATOM      7  N   UNL     1       0.680   7.824  21.479  0.00  0.00    +0.000 N 
ATOM      8  C   UNL     1       1.773   7.645  20.630  0.00  0.00    +0.000 C 
ATOM      9  O   UNL     1       2.390   8.628  20.196  0.00  0.00    +0.000 OA
ATOM     10  N   UNL     1       2.140   6.357  20.158  0.00  0.00    +0.000 N 
ATOM     11  C   UNL     1       2.795   6.380  18.834  0.00  0.00    +0.000 C 
ATOM     12  C   UNL     1       1.933   5.683  17.786  0.00  0.00    +0.000 C 
ATOM     13  C   UNL     1       1.747   4.250  18.205  0.00  0.00    +0.000 C 
ATOM     14  C   UNL     1       1.123   4.190  19.606  0.00  0.00    +0.000 A 
ATOM     15  C   UNL     1       0.697   2.888  19.918  0.00  0.00    +0.000 A 
ATOM     16  C   UNL     1       1.422   2.188  20.860  0.00  0.00    +0.000 A 
ATOM     17  C   UNL     1       2.446   2.862  21.524  0.00  0.00    +0.000 A 
ATOM     18  C   UNL     1       2.572   4.274  21.416  0.00  0.00    +0.000 A 
ATOM     19  C   UNL     1       1.748   5.027  20.558  0.00  0.00    +0.000 A 
ATOM     20  H   UNL     1       0.555   7.137  22.208  0.00  0.00    +0.000 HD
ENDBRANCH   5   7
BRANCH   1  22
ATOM     21  C   UNL     1      -2.052  12.247  18.743  0.00  0.00    +0.000 C 
ATOM     22  C   UNL     1      -0.849  12.439  19.658  0.00  0.00    +0.000 C 
BRANCH  22  23
ATOM     23  S   UNL     1       0.747  12.531  18.757  0.00  0.00    +0.000 S 
BRANCH  23  24
ATOM     24  C   UNL     1       1.885  13.259  19.852  0.00  0.00    +0.000 A 
ATOM     25  N   UNL     1       2.101  12.976  21.110  0.00  0.00    +0.000 NA
ATOM     26  N   UNL     1       3.028  13.873  21.593  0.00  0.00    +0.000 NA
ATOM     27  C   UNL     1       3.371  14.656  20.597  0.00  0.00    +0.000 A 
ATOM     28  N   UNL     1       2.700  14.285  19.465  0.00  0.00    +0.000 N 
ATOM     29  C   UNL     1       2.862  14.854  18.161  0.00  0.00    +0.000 C 
ENDBRANCH  23  24
ENDBRANCH  22  23
ENDBRANCH   1  22
TORSDOF 4
ENDMDL
MODEL 7
REMARK VINA RESULT:      -8.0      3.139      8.968
REMARK  Name = 
REMARK  6 active torsions:
REMARK  status: ('A' for Active; 'I' for Inactive)
REMARK    1  A    between atoms: C_1  and  C_2
REMARK    2  A    between atoms: C_2  and  S_3
REMARK    3  A    between atoms: C_2  and  C_10
REMARK    4  A    between atoms: S_3  and  C_4
REMARK    5  A    between atoms: N_8  and  C_9
REMARK    6  A    between atoms: C_14  and  N_15
REMARK                            x       y       z     vdW  Elec       q    Type
REMARK                         _______ _______ _______ _____ _____    ______ ____
ROOT
ATOM      1  C   UNL     1       2.779   5.436  18.607  0.00  0.00    +0.000 A 
ATOM      2  C   UNL     1       2.220   4.587  19.574  0.00  0.00    +0.000 A 
ATOM      3  C   UNL     1       1.569   5.124  20.675  0.00  0.00    +0.000 A 
ATOM      4  C   UNL     1       1.462   6.515  20.846  0.00  0.00    +0.000 A 
ATOM      5  C   UNL     1       2.009   7.428  19.924  0.00  0.00    +0.000 A 
ATOM      6  C   UNL     1       2.656   6.850  18.782  0.00  0.00    +0.000 A 
ENDROOT
BRANCH   5   7
ATOM      7  N   UNL     1       1.841   8.867  20.105  0.00  0.00    +0.000 N 
ATOM      8  C   UNL     1       0.615   9.442  20.440  0.00  0.00    +0.000 C 
ATOM      9  O   UNL     1      -0.304   8.734  20.878  0.00  0.00    +0.000 OA
ATOM     10  N   UNL     1       0.349  10.815  20.193  0.00  0.00    +0.000 N 
ATOM     11  C   UNL     1      -1.080  11.103  19.948  0.00  0.00    +0.000 C 
ATOM     12  C   UNL     1      -1.302  11.586  18.518  0.00  0.00    +0.000 C 
ATOM     13  C   UNL     1      -0.515  12.853  18.320  0.00  0.00    +0.000 C 
ATOM     14  C   UNL     1       0.968  12.603  18.627  0.00  0.00    +0.000 A 
ATOM     15  C   UNL     1       1.764  13.682  18.204  0.00  0.00    +0.000 A 
ATOM     16  C   UNL     1       2.313  14.489  19.179  0.00  0.00    +0.000 A 
ATOM     17  C   UNL     1       2.143  14.110  20.509  0.00  0.00    +0.000 A 
ATOM     18  C   UNL     1       1.645  12.818  20.836  0.00  0.00    +0.000 A 
ATOM     19  C   UNL     1       1.205  11.923  19.843  0.00  0.00    +0.000 A 
ATOM     20  H   UNL     1       2.666   9.420  20.288  0.00  0.00    +0.000 HD
ENDBRANCH   5   7
BRANCH   1  22
ATOM     21  C   UNL     1       3.786   3.287  17.637  0.00  0.00    +0.000 C 
ATOM     22  C   UNL     1       3.428   4.745  17.379  0.00  0.00    +0.000 C 
BRANCH  22  23
ATOM     23  S   UNL     1       4.853   5.760  16.826  0.00  0.00    +0.000 S 
BRANCH  23  24
ATOM     24  C   UNL     1       6.061   5.625  18.070  0.00  0.00    +0.000 A 
ATOM     25  N   UNL     1       6.095   4.805  19.087  0.00  0.00    +0.000 NA
ATOM     26  N   UNL     1       7.193   5.127  19.855  0.00  0.00    +0.000 NA
ATOM     27  C   UNL     1       7.810   6.119  19.257  0.00  0.00    +0.000 A 
ATOM     28  N   UNL     1       7.151   6.447  18.105  0.00  0.00    +0.000 N 
ATOM     29  C   UNL     1       7.561   7.430  17.147  0.00  0.00    +0.000 C 
ENDBRANCH  23  24
ENDBRANCH  22  23
ENDBRANCH   1  22
TORSDOF 4
ENDMDL
MODEL 8
REMARK VINA RESULT:      -8.0      1.661      2.290
REMARK  Name = 
REMARK  6 active torsions:
REMARK  status: ('A' for Active; 'I' for Inactive)
REMARK    1  A    between atoms: C_1  and  C_2
REMARK    2  A    between atoms: C_2  and  S_3
REMARK    3  A    between atoms: C_2  and  C_10
REMARK    4  A    between atoms: S_3  and  C_4
REMARK    5  A    between atoms: N_8  and  C_9
REMARK    6  A    between atoms: C_14  and  N_15
REMARK                            x       y       z     vdW  Elec       q    Type
REMARK                         _______ _______ _______ _____ _____    ______ ____
ROOT
ATOM      1  C   UNL     1      -0.323  10.683  19.298  0.00  0.00    +0.000 A 
ATOM      2  C   UNL     1      -0.704  10.344  20.605  0.00  0.00    +0.000 A 
ATOM      3  C   UNL     1      -0.029   9.342  21.287  0.00  0.00    +0.000 A 
ATOM      4  C   UNL     1       1.036   8.649  20.687  0.00  0.00    +0.000 A 
ATOM      5  C   UNL     1       1.466   8.926  19.374  0.00  0.00    +0.000 A 
ATOM      6  C   UNL     1       0.769   9.981  18.699  0.00  0.00    +0.000 A 
ENDROOT
BRANCH   5   7
ATOM      7  N   UNL     1       2.606   8.220  18.795  0.00  0.00    +0.000 N 
ATOM      8  C   UNL     1       2.465   7.038  18.066  0.00  0.00    +0.000 C 
ATOM      9  O   UNL     1       1.351   6.701  17.639  0.00  0.00    +0.000 OA
ATOM     10  N   UNL     1       3.553   6.145  17.888  0.00  0.00    +0.000 N 
ATOM     11  C   UNL     1       3.138   4.734  17.736  0.00  0.00    +0.000 C 
ATOM     12  C   UNL     1       3.628   3.892  18.910  0.00  0.00    +0.000 C 
ATOM     13  C   UNL     1       5.131   3.950  18.939  0.00  0.00    +0.000 C 
ATOM     14  C   UNL     1       5.597   5.410  19.034  0.00  0.00    +0.000 A 
ATOM     15  C   UNL     1       6.971   5.487  19.325  0.00  0.00    +0.000 A 
ATOM     16  C   UNL     1       7.813   5.907  18.317  0.00  0.00    +0.000 A 
ATOM     17  C   UNL     1       7.235   6.342  17.126  0.00  0.00    +0.000 A 
ATOM     18  C   UNL     1       5.835   6.579  17.044  0.00  0.00    +0.000 A 
ATOM     19  C   UNL     1       4.972   6.282  18.116  0.00  0.00    +0.000 A 
ATOM     20  H   UNL     1       3.462   8.737  18.658  0.00  0.00    +0.000 HD
ENDBRANCH   5   7
BRANCH   1  22
ATOM     21  C   UNL     1      -0.217  13.084  18.404  0.00  0.00    +0.000 C 
ATOM     22  C   UNL     1      -1.092  11.860  18.641  0.00  0.00    +0.000 C 
BRANCH  22  23
ATOM     23  S   UNL     1      -2.584  12.213  19.649  0.00  0.00    +0.000 S 
BRANCH  23  24
ATOM     24  C   UNL     1      -3.952  11.904  18.621  0.00  0.00    +0.000 A 
ATOM     25  N   UNL     1      -3.964  11.597  17.351  0.00  0.00    +0.000 NA
ATOM     26  N   UNL     1      -5.279  11.537  16.941  0.00  0.00    +0.000 NA
ATOM     27  C   UNL     1      -6.027  11.781  17.991  0.00  0.00    +0.000 A 
ATOM     28  N   UNL     1      -5.234  11.985  19.087  0.00  0.00    +0.000 N 
ATOM     29  C   UNL     1      -5.686  12.206  20.428  0.00  0.00    +0.000 C 
ENDBRANCH  23  24
ENDBRANCH  22  23
ENDBRANCH   1  22
TORSDOF 4
ENDMDL
MODEL 9
REMARK VINA RESULT:      -8.0      3.496      5.200
REMARK  Name = 
REMARK  6 active torsions:
REMARK  status: ('A' for Active; 'I' for Inactive)
REMARK    1  A    between atoms: C_1  and  C_2
REMARK    2  A    between atoms: C_2  and  S_3
REMARK    3  A    between atoms: C_2  and  C_10
REMARK    4  A    between atoms: S_3  and  C_4
REMARK    5  A    between atoms: N_8  and  C_9
REMARK    6  A    between atoms: C_14  and  N_15
REMARK                            x       y       z     vdW  Elec       q    Type
REMARK                         _______ _______ _______ _____ _____    ______ ____
ROOT
ATOM      1  C   UNL     1      -0.236  11.403  20.853  0.00  0.00    +0.000 A 
ATOM      2  C   UNL     1       0.005  12.017  19.614  0.00  0.00    +0.000 A 
ATOM      3  C   UNL     1       0.709  11.339  18.630  0.00  0.00    +0.000 A 
ATOM      4  C   UNL     1       1.197  10.040  18.852  0.00  0.00    +0.000 A 
ATOM      5  C   UNL     1       1.006   9.367  20.075  0.00  0.00    +0.000 A 
ATOM      6  C   UNL     1       0.255  10.077  21.068  0.00  0.00    +0.000 A 
ENDROOT
BRANCH   5   7
ATOM      7  N   UNL     1       1.485   8.000  20.260  0.00  0.00    +0.000 N 
ATOM      8  C   UNL     1       2.306   7.361  19.330  0.00  0.00    +0.000 C 
ATOM      9  O   UNL     1       2.891   8.023  18.460  0.00  0.00    +0.000 OA
ATOM     10  N   UNL     1       2.408   5.946  19.282  0.00  0.00    +0.000 N 
ATOM     11  C   UNL     1       2.708   5.422  17.933  0.00  0.00    +0.000 C 
ATOM     12  C   UNL     1       1.543   4.595  17.397  0.00  0.00    +0.000 C 
ATOM     13  C   UNL     1       1.323   3.432  18.326  0.00  0.00    +0.000 C 
ATOM     14  C   UNL     1       1.069   3.941  19.751  0.00  0.00    +0.000 A 
ATOM     15  C   UNL     1       0.603   2.909  20.585  0.00  0.00    +0.000 A 
ATOM     16  C   UNL     1       1.466   2.429  21.548  0.00  0.00    +0.000 A 
ATOM     17  C   UNL     1       2.687   3.081  21.709  0.00  0.00    +0.000 A 
ATOM     18  C   UNL     1       2.927   4.336  21.083  0.00  0.00    +0.000 A 
ATOM     19  C   UNL     1       1.995   4.910  20.199  0.00  0.00    +0.000 A 
ATOM     20  H   UNL     1       1.478   7.619  21.195  0.00  0.00    +0.000 HD
ENDBRANCH   5   7
BRANCH   1  22
ATOM     21  C   UNL     1      -1.537  11.383  23.062  0.00  0.00    +0.000 C 
ATOM     22  C   UNL     1      -1.088  12.213  21.866  0.00  0.00    +0.000 C 
BRANCH  22  23
ATOM     23  S   UNL     1      -2.476  13.000  20.961  0.00  0.00    +0.000 S 
BRANCH  23  24
ATOM     24  C   UNL     1      -3.814  13.054  22.070  0.00  0.00    +0.000 A 
ATOM     25  N   UNL     1      -4.861  12.273  22.123  0.00  0.00    +0.000 NA
ATOM     26  N   UNL     1      -5.699  12.754  23.106  0.00  0.00    +0.000 NA
ATOM     27  C   UNL     1      -5.114  13.799  23.641  0.00  0.00    +0.000 A 
ATOM     28  N   UNL     1      -3.903  14.009  23.043  0.00  0.00    +0.000 N 
ATOM     29  C   UNL     1      -2.943  15.009  23.404  0.00  0.00    +0.000 C 
ENDBRANCH  23  24
ENDBRANCH  22  23
ENDBRANCH   1  22
TORSDOF 4
ENDMDL
