MODEL 1
REMARK VINA RESULT:     -10.5      0.000      0.000
REMARK  Name = 
REMARK  9 active torsions:
REMARK  status: ('A' for Active; 'I' for Inactive)
REMARK    1  A    between atoms: C_1  and  N_2
REMARK    2  A    between atoms: C_6  and  C_7
REMARK    3  A    between atoms: C_7  and  C_8
REMARK    4  A    between atoms: C_8  and  C_9
REMARK    5  A    between atoms: C_13  and  N_14
REMARK    6  A    between atoms: C_19  and  C_20
REMARK    7  A    between atoms: C_20  and  N_21
REMARK    8  A    between atoms: C_23  and  C_24
REMARK    9  A    between atoms: C_28  and  C_29
REMARK                            x       y       z     vdW  Elec       q    Type
REMARK                         _______ _______ _______ _____ _____    ______ ____
ROOT
ATOM      1  N   UNL     1       1.506   8.009  20.185  0.00  0.00    +0.000 N 
ATOM      2  C   UNL     1       1.558   6.663  20.714  0.00  0.00    +0.000 C 
ATOM      3  C   UNL     1       2.217   5.876  19.654  0.00  0.00    +0.000 A 
ATOM      4  C   UNL     1       2.663   6.724  18.647  0.00  0.00    +0.000 A 
ATOM      5  C   UNL     1       3.389   6.219  17.580  0.00  0.00    +0.000 A 
ATOM      6  C   UNL     1       3.640   4.823  17.531  0.00  0.00    +0.000 A 
ATOM      7  C   UNL     1       3.120   3.985  18.548  0.00  0.00    +0.000 A 
ATOM      8  C   UNL     1       2.400   4.498  19.629  0.00  0.00    +0.000 A 
ATOM      9  C   UNL     1       2.184   8.101  18.964  0.00  0.00    +0.000 C 
ATOM     10  O   UNL     1       2.361   9.054  18.225  0.00  0.00    +0.000 OA
ENDROOT
BRANCH   1  15
ATOM     11  C   UNL     1      -0.704  11.017  20.607  0.00  0.00    +0.000 A 
ATOM     12  C   UNL     1      -0.748  11.093  22.004  0.00  0.00    +0.000 A 
ATOM     13  C   UNL     1      -0.122  10.126  22.812  0.00  0.00    +0.000 A 
ATOM     14  C   UNL     1       0.605   9.064  22.250  0.00  0.00    +0.000 A 
ATOM     15  C   UNL     1       0.707   8.963  20.870  0.00  0.00    +0.000 A 
ATOM     16  C   UNL     1       0.011   9.921  20.099  0.00  0.00    +0.000 A 
BRANCH  11  17
ATOM     17  C   UNL     1      -1.403  12.058  19.584  0.00  0.00    +0.000 C 
ATOM     18  C   UNL     1      -0.515  12.533  18.404  0.00  0.00    +0.000 C 
ATOM     19  O   UNL     1      -0.605  13.914  18.797  0.00  0.00    +0.000 OA
ATOM     20  C   UNL     1      -1.378  13.572  19.967  0.00  0.00    +0.000 C 
BRANCH  17  21
ATOM     21  C   UNL     1      -2.809  11.577  19.135  0.00  0.00    +0.000 C 
BRANCH  21  27
ATOM     22  C   UNL     1      -5.119  12.069  17.035  0.00  0.00    +0.000 C 
ATOM     23  N   UNL     1      -3.909  11.319  16.833  0.00  0.00    +0.000 N 
ATOM     24  C   UNL     1      -3.577  10.672  15.677  0.00  0.00    +0.000 A 
ATOM     25  N   UNL     1      -2.438  10.045  15.845  0.00  0.00    +0.000 NA
ATOM     26  N   UNL     1      -2.017  10.280  17.130  0.00  0.00    +0.000 NA
ATOM     27  C   UNL     1      -2.887  11.076  17.721  0.00  0.00    +0.000 A 
ENDBRANCH  21  27
ENDBRANCH  17  21
ENDBRANCH  11  17
ENDBRANCH   1  15
BRANCH   8  28
ATOM     28  C   UNL     1       1.846   3.587  20.697  0.00  0.00    +0.000 C 
ATOM     29  F   UNL     1       0.491   3.634  20.814  0.00  0.00    +0.000 F 
ATOM     30  F   UNL     1       2.163   2.282  20.480  0.00  0.00    +0.000 F 
ATOM     31  F   UNL     1       2.324   3.894  21.935  0.00  0.00    +0.000 F 
ENDBRANCH   8  28
BRANCH   6  32
ATOM     32  C   UNL     1       4.554   4.241  16.462  0.00  0.00    +0.000 C 
BRANCH  32  33
ATOM     33  N   UNL     1       5.921   3.941  16.920  0.00  0.00    +0.000 NA
ATOM     34  C   UNL     1       6.915   4.898  16.386  0.00  0.00    +0.000 C 
ATOM     35  C   UNL     1       7.486   5.069  17.818  0.00  0.00    +0.000 C 
ATOM     36  C   UNL     1       7.750   6.500  18.252  0.00  0.00    +0.000 C 
ATOM     37  F   UNL     1       8.581   4.321  18.108  0.00  0.00    +0.000 F 
ATOM     38  C   UNL     1       6.134   4.476  18.284  0.00  0.00    +0.000 C 
ENDBRANCH  32  33
ENDBRANCH   6  32
TORSDOF 7
ENDMDL
MODEL 2
REMARK VINA RESULT:     -10.2      1.974      3.013
REMARK  Name = 
REMARK  9 active torsions:
REMARK  status: ('A' for Active; 'I' for Inactive)
REMARK    1  A    between atoms: C_1  and  N_2
REMARK    2  A    between atoms: C_6  and  C_7
REMARK    3  A    between atoms: C_7  and  C_8
REMARK    4  A    between atoms: C_8  and  C_9
REMARK    5  A    between atoms: C_13  and  N_14
REMARK    6  A    between atoms: C_19  and  C_20
REMARK    7  A    between atoms: C_20  and  N_21
REMARK    8  A    between atoms: C_23  and  C_24
REMARK    9  A    between atoms: C_28  and  C_29
REMARK                            x       y       z     vdW  Elec       q    Type
REMARK                         _______ _______ _______ _____ _____    ______ ____
ROOT
ATOM      1  N   UNL     1       1.506   8.119  20.182  0.00  0.00    +0.000 N 
ATOM      2  C   UNL     1       1.591   6.774  20.708  0.00  0.00    +0.000 C 
ATOM      3  C   UNL     1       2.252   6.002  19.639  0.00  0.00    +0.000 A 
ATOM      4  C   UNL     1       2.668   6.859  18.627  0.00  0.00    +0.000 A 
ATOM      5  C   UNL     1       3.390   6.370  17.550  0.00  0.00    +0.000 A 
ATOM      6  C   UNL     1       3.668   4.980  17.496  0.00  0.00    +0.000 A 
ATOM      7  C   UNL     1       3.178   4.131  18.518  0.00  0.00    +0.000 A 
ATOM      8  C   UNL     1       2.463   4.628  19.609  0.00  0.00    +0.000 A 
ATOM      9  C   UNL     1       2.165   8.227  18.952  0.00  0.00    +0.000 C 
ATOM     10  O   UNL     1       2.314   9.184  18.213  0.00  0.00    +0.000 OA
ENDROOT
BRANCH   1  15
ATOM     11  C   UNL     1      -0.693  11.129  20.650  0.00  0.00    +0.000 A 
ATOM     12  C   UNL     1      -0.771  11.159  22.047  0.00  0.00    +0.000 A 
ATOM     13  C   UNL     1      -0.171  10.161  22.837  0.00  0.00    +0.000 A 
ATOM     14  C   UNL     1       0.562   9.113  22.259  0.00  0.00    +0.000 A 
ATOM     15  C   UNL     1       0.696   9.057  20.879  0.00  0.00    +0.000 A 
ATOM     16  C   UNL     1       0.026  10.045  20.123  0.00  0.00    +0.000 A 
BRANCH  11  17
ATOM     17  C   UNL     1      -1.361  12.208  19.645  0.00  0.00    +0.000 C 
ATOM     18  C   UNL     1      -2.909  12.172  19.560  0.00  0.00    +0.000 C 
ATOM     19  O   UNL     1      -2.898  11.883  18.150  0.00  0.00    +0.000 OA
ATOM     20  C   UNL     1      -1.456  11.823  18.134  0.00  0.00    +0.000 C 
BRANCH  17  21
ATOM     21  C   UNL     1      -0.795  13.636  19.864  0.00  0.00    +0.000 C 
BRANCH  21  27
ATOM     22  C   UNL     1       1.922  13.049  18.359  0.00  0.00    +0.000 C 
ATOM     23  N   UNL     1       1.758  13.432  19.736  0.00  0.00    +0.000 N 
ATOM     24  C   UNL     1       2.780  13.584  20.629  0.00  0.00    +0.000 A 
ATOM     25  N   UNL     1       2.284  13.886  21.804  0.00  0.00    +0.000 NA
ATOM     26  N   UNL     1       0.918  13.930  21.684  0.00  0.00    +0.000 NA
ATOM     27  C   UNL     1       0.596  13.688  20.427  0.00  0.00    +0.000 A 
ENDBRANCH  21  27
ENDBRANCH  17  21
ENDBRANCH  11  17
ENDBRANCH   1  15
BRANCH   8  28
ATOM     28  C   UNL     1       1.941   3.705  20.684  0.00  0.00    +0.000 C 
ATOM     29  F   UNL     1       0.584   3.687  20.785  0.00  0.00    +0.000 F 
ATOM     30  F   UNL     1       2.323   2.414  20.487  0.00  0.00    +0.000 F 
ATOM     31  F   UNL     1       2.390   4.051  21.922  0.00  0.00    +0.000 F 
ENDBRANCH   8  28
BRANCH   6  32
ATOM     32  C   UNL     1       4.580   4.417  16.414  0.00  0.00    +0.000 C 
BRANCH  32  33
ATOM     33  N   UNL     1       5.930   4.055  16.877  0.00  0.00    +0.000 NA
ATOM     34  C   UNL     1       6.955   5.029  16.438  0.00  0.00    +0.000 C 
ATOM     35  C   UNL     1       7.496   5.079  17.890  0.00  0.00    +0.000 C 
ATOM     36  C   UNL     1       7.778   6.467  18.437  0.00  0.00    +0.000 C 
ATOM     37  F   UNL     1       8.570   4.289  18.145  0.00  0.00    +0.000 F 
ATOM     38  C   UNL     1       6.123   4.481  18.281  0.00  0.00    +0.000 C 
ENDBRANCH  32  33
ENDBRANCH   6  32
TORSDOF 7
ENDMDL
MODEL 3
REMARK VINA RESULT:     -10.1      2.117      3.171
REMARK  Name = 
REMARK  9 active torsions:
REMARK  status: ('A' for Active; 'I' for Inactive)
REMARK    1  A    between atoms: C_1  and  N_2
REMARK    2  A    between atoms: C_6  and  C_7
REMARK    3  A    between atoms: C_7  and  C_8
REMARK    4  A    between atoms: C_8  and  C_9
REMARK    5  A    between atoms: C_13  and  N_14
REMARK    6  A    between atoms: C_19  and  C_20
REMARK    7  A    between atoms: C_20  and  N_21
REMARK    8  A    between atoms: C_23  and  C_24
REMARK    9  A    between atoms: C_28  and  C_29
REMARK                            x       y       z     vdW  Elec       q    Type
REMARK                         _______ _______ _______ _____ _____    ______ ____
ROOT
ATOM      1  N   UNL     1       1.446   7.977  20.341  0.00  0.00    +0.000 N 
ATOM      2  C   UNL     1       1.537   6.618  20.829  0.00  0.00    +0.000 C 
ATOM      3  C   UNL     1       2.199   5.878  19.737  0.00  0.00    +0.000 A 
ATOM      4  C   UNL     1       2.610   6.765  18.749  0.00  0.00    +0.000 A 
ATOM      5  C   UNL     1       3.331   6.308  17.657  0.00  0.00    +0.000 A 
ATOM      6  C   UNL     1       3.613   4.922  17.564  0.00  0.00    +0.000 A 
ATOM      7  C   UNL     1       3.128   4.042  18.563  0.00  0.00    +0.000 A 
ATOM      8  C   UNL     1       2.413   4.506  19.669  0.00  0.00    +0.000 A 
ATOM      9  C   UNL     1       2.103   8.121  19.113  0.00  0.00    +0.000 C 
ATOM     10  O   UNL     1       2.247   9.099  18.401  0.00  0.00    +0.000 OA
ENDROOT
BRANCH   1  15
ATOM     11  C   UNL     1      -0.578  11.081  20.956  0.00  0.00    +0.000 A 
ATOM     12  C   UNL     1      -0.798  10.960  22.333  0.00  0.00    +0.000 A 
ATOM     13  C   UNL     1      -0.353   9.834  23.051  0.00  0.00    +0.000 A 
ATOM     14  C   UNL     1       0.362   8.803  22.423  0.00  0.00    +0.000 A 
ATOM     15  C   UNL     1       0.635   8.892  21.066  0.00  0.00    +0.000 A 
ATOM     16  C   UNL     1       0.117  10.009  20.374  0.00  0.00    +0.000 A 
BRANCH  11  17
ATOM     17  C   UNL     1      -1.061  12.317  20.029  0.00  0.00    +0.000 C 
ATOM     18  C   UNL     1      -2.286  12.031  19.122  0.00  0.00    +0.000 C 
ATOM     19  O   UNL     1      -1.548  12.305  17.917  0.00  0.00    +0.000 OA
ATOM     20  C   UNL     1      -0.333  12.521  18.663  0.00  0.00    +0.000 C 
BRANCH  17  21
ATOM     21  C   UNL     1      -1.196  13.634  20.839  0.00  0.00    +0.000 C 
BRANCH  21  27
ATOM     22  C   UNL     1       0.151  16.089  19.374  0.00  0.00    +0.000 C 
ATOM     23  N   UNL     1       0.654  15.381  20.520  0.00  0.00    +0.000 N 
ATOM     24  C   UNL     1       1.833  15.657  21.152  0.00  0.00    +0.000 A 
ATOM     25  N   UNL     1       2.016  14.795  22.121  0.00  0.00    +0.000 NA
ATOM     26  N   UNL     1       0.945  13.936  22.125  0.00  0.00    +0.000 NA
ATOM     27  C   UNL     1       0.103  14.306  21.179  0.00  0.00    +0.000 A 
ENDBRANCH  21  27
ENDBRANCH  17  21
ENDBRANCH  11  17
ENDBRANCH   1  15
BRANCH   8  28
ATOM     28  C   UNL     1       1.897   3.552  20.718  0.00  0.00    +0.000 C 
ATOM     29  F   UNL     1       2.217   2.250  20.486  0.00  0.00    +0.000 F 
ATOM     30  F   UNL     1       2.369   3.844  21.960  0.00  0.00    +0.000 F 
ATOM     31  F   UNL     1       0.538   3.576  20.812  0.00  0.00    +0.000 F 
ENDBRANCH   8  28
BRANCH   6  32
ATOM     32  C   UNL     1       4.525   4.392  16.465  0.00  0.00    +0.000 C 
BRANCH  32  33
ATOM     33  N   UNL     1       5.881   4.034  16.912  0.00  0.00    +0.000 NA
ATOM     34  C   UNL     1       6.901   4.999  16.441  0.00  0.00    +0.000 C 
ATOM     35  C   UNL     1       7.465   5.071  17.884  0.00  0.00    +0.000 C 
ATOM     36  C   UNL     1       7.758   6.467  18.404  0.00  0.00    +0.000 C 
ATOM     37  F   UNL     1       8.541   4.282  18.134  0.00  0.00    +0.000 F 
ATOM     38  C   UNL     1       6.097   4.482  18.306  0.00  0.00    +0.000 C 
ENDBRANCH  32  33
ENDBRANCH   6  32
TORSDOF 7
ENDMDL
MODEL 4
REMARK VINA RESULT:     -10.1      1.992      2.884
REMARK  Name = 
REMARK  9 active torsions:
REMARK  status: ('A' for Active; 'I' for Inactive)
REMARK    1  A    between atoms: C_1  and  N_2
REMARK    2  A    between atoms: C_6  and  C_7
REMARK    3  A    between atoms: C_7  and  C_8
REMARK    4  A    between atoms: C_8  and  C_9
REMARK    5  A    between atoms: C_13  and  N_14
REMARK    6  A    between atoms: C_19  and  C_20
REMARK    7  A    between atoms: C_20  and  N_21
REMARK    8  A    between atoms: C_23  and  C_24
REMARK    9  A    between atoms: C_28  and  C_29
REMARK                            x       y       z     vdW  Elec       q    Type
REMARK                         _______ _______ _______ _____ _____    ______ ____
ROOT
ATOM      1  N   UNL     1       1.499   7.991  20.238  0.00  0.00    +0.000 N 
ATOM      2  C   UNL     1       1.568   6.637  20.743  0.00  0.00    +0.000 C 
ATOM      3  C   UNL     1       2.219   5.873  19.662  0.00  0.00    +0.000 A 
ATOM      4  C   UNL     1       2.645   6.740  18.663  0.00  0.00    +0.000 A 
ATOM      5  C   UNL     1       3.361   6.259  17.578  0.00  0.00    +0.000 A 
ATOM      6  C   UNL     1       3.620   4.866  17.503  0.00  0.00    +0.000 A 
ATOM      7  C   UNL     1       3.120   4.007  18.512  0.00  0.00    +0.000 A 
ATOM      8  C   UNL     1       2.411   4.497  19.611  0.00  0.00    +0.000 A 
ATOM      9  C   UNL     1       2.160   8.109  19.009  0.00  0.00    +0.000 C 
ATOM     10  O   UNL     1       2.321   9.076  18.285  0.00  0.00    +0.000 OA
ENDROOT
BRANCH   1  15
ATOM     11  C   UNL     1      -0.619  11.048  20.764  0.00  0.00    +0.000 A 
ATOM     12  C   UNL     1      -0.729  11.032  22.159  0.00  0.00    +0.000 A 
ATOM     13  C   UNL     1      -0.178   9.989  22.926  0.00  0.00    +0.000 A 
ATOM     14  C   UNL     1       0.538   8.940  22.327  0.00  0.00    +0.000 A 
ATOM     15  C   UNL     1       0.702   8.928  20.949  0.00  0.00    +0.000 A 
ATOM     16  C   UNL     1       0.080   9.962  20.215  0.00  0.00    +0.000 A 
BRANCH  11  17
ATOM     17  C   UNL     1      -1.230  12.182  19.783  0.00  0.00    +0.000 C 
ATOM     18  C   UNL     1      -2.628  11.867  19.188  0.00  0.00    +0.000 C 
ATOM     19  O   UNL     1      -2.144  11.925  17.834  0.00  0.00    +0.000 OA
ATOM     20  C   UNL     1      -0.792  12.151  18.284  0.00  0.00    +0.000 C 
BRANCH  17  21
ATOM     21  C   UNL     1      -1.137  13.601  20.405  0.00  0.00    +0.000 C 
BRANCH  21  27
ATOM     22  C   UNL     1       2.002  13.539  20.769  0.00  0.00    +0.000 C 
ATOM     23  N   UNL     1       1.241  14.443  19.949  0.00  0.00    +0.000 N 
ATOM     24  C   UNL     1       1.776  15.452  19.199  0.00  0.00    +0.000 A 
ATOM     25  N   UNL     1       0.808  16.116  18.617  0.00  0.00    +0.000 NA
ATOM     26  N   UNL     1      -0.380  15.539  18.991  0.00  0.00    +0.000 NA
ATOM     27  C   UNL     1      -0.121  14.507  19.771  0.00  0.00    +0.000 A 
ENDBRANCH  21  27
ENDBRANCH  17  21
ENDBRANCH  11  17
ENDBRANCH   1  15
BRANCH   8  28
ATOM     28  C   UNL     1       1.878   3.564  20.671  0.00  0.00    +0.000 C 
ATOM     29  F   UNL     1       0.525   3.605  20.813  0.00  0.00    +0.000 F 
ATOM     30  F   UNL     1       2.194   2.265  20.422  0.00  0.00    +0.000 F 
ATOM     31  F   UNL     1       2.378   3.848  21.905  0.00  0.00    +0.000 F 
ENDBRANCH   8  28
BRANCH   6  32
ATOM     32  C   UNL     1       4.525   4.308  16.412  0.00  0.00    +0.000 C 
BRANCH  32  33
ATOM     33  N   UNL     1       5.890   3.979  16.855  0.00  0.00    +0.000 NA
ATOM     34  C   UNL     1       6.888   4.961  16.374  0.00  0.00    +0.000 C 
ATOM     35  C   UNL     1       7.458   5.052  17.814  0.00  0.00    +0.000 C 
ATOM     36  C   UNL     1       7.726   6.456  18.325  0.00  0.00    +0.000 C 
ATOM     37  F   UNL     1       8.550   4.285  18.064  0.00  0.00    +0.000 F 
ATOM     38  C   UNL     1       6.102   4.439  18.245  0.00  0.00    +0.000 C 
ENDBRANCH  32  33
ENDBRANCH   6  32
TORSDOF 7
ENDMDL
MODEL 5
REMARK VINA RESULT:     -10.1      1.977      2.874
REMARK  Name = 
REMARK  9 active torsions:
REMARK  status: ('A' for Active; 'I' for Inactive)
REMARK    1  A    between atoms: C_1  and  N_2
REMARK    2  A    between atoms: C_6  and  C_7
REMARK    3  A    between atoms: C_7  and  C_8
REMARK    4  A    between atoms: C_8  and  C_9
REMARK    5  A    between atoms: C_13  and  N_14
REMARK    6  A    between atoms: C_19  and  C_20
REMARK    7  A    between atoms: C_20  and  N_21
REMARK    8  A    between atoms: C_23  and  C_24
REMARK    9  A    between atoms: C_28  and  C_29
REMARK                            x       y       z     vdW  Elec       q    Type
REMARK                         _______ _______ _______ _____ _____    ______ ____
ROOT
ATOM      1  N   UNL     1       1.462   8.013  20.295  0.00  0.00    +0.000 N 
ATOM      2  C   UNL     1       1.546   6.656  20.790  0.00  0.00    +0.000 C 
ATOM      3  C   UNL     1       2.203   5.907  19.702  0.00  0.00    +0.000 A 
ATOM      4  C   UNL     1       2.618   6.786  18.709  0.00  0.00    +0.000 A 
ATOM      5  C   UNL     1       3.336   6.321  17.619  0.00  0.00    +0.000 A 
ATOM      6  C   UNL     1       3.611   4.932  17.532  0.00  0.00    +0.000 A 
ATOM      7  C   UNL     1       3.122   4.060  18.536  0.00  0.00    +0.000 A 
ATOM      8  C   UNL     1       2.410   4.534  19.640  0.00  0.00    +0.000 A 
ATOM      9  C   UNL     1       2.118   8.147  19.066  0.00  0.00    +0.000 C 
ATOM     10  O   UNL     1       2.267   9.121  18.349  0.00  0.00    +0.000 OA
ENDROOT
BRANCH   1  15
ATOM     11  C   UNL     1      -0.691  11.041  20.847  0.00  0.00    +0.000 A 
ATOM     12  C   UNL     1      -0.796  11.015  22.243  0.00  0.00    +0.000 A 
ATOM     13  C   UNL     1      -0.229   9.974  23.002  0.00  0.00    +0.000 A 
ATOM     14  C   UNL     1       0.496   8.937  22.394  0.00  0.00    +0.000 A 
ATOM     15  C   UNL     1       0.656   8.936  21.015  0.00  0.00    +0.000 A 
ATOM     16  C   UNL     1       0.018   9.967  20.289  0.00  0.00    +0.000 A 
BRANCH  11  17
ATOM     17  C   UNL     1      -1.320  12.174  19.876  0.00  0.00    +0.000 C 
ATOM     18  C   UNL     1      -2.033  13.348  20.595  0.00  0.00    +0.000 C 
ATOM     19  O   UNL     1      -3.292  13.071  19.955  0.00  0.00    +0.000 OA
ATOM     20  C   UNL     1      -2.745  11.912  19.292  0.00  0.00    +0.000 C 
BRANCH  17  21
ATOM     21  C   UNL     1      -0.307  12.643  18.798  0.00  0.00    +0.000 C 
BRANCH  21  27
ATOM     22  C   UNL     1      -0.016  15.789  18.743  0.00  0.00    +0.000 C 
ATOM     23  N   UNL     1       0.922  14.841  19.281  0.00  0.00    +0.000 N 
ATOM     24  C   UNL     1       2.122  15.166  19.846  0.00  0.00    +0.000 A 
ATOM     25  N   UNL     1       2.752  14.068  20.184  0.00  0.00    +0.000 NA
ATOM     26  N   UNL     1       1.957  13.005  19.833  0.00  0.00    +0.000 NA
ATOM     27  C   UNL     1       0.835  13.468  19.316  0.00  0.00    +0.000 A 
ENDBRANCH  21  27
ENDBRANCH  17  21
ENDBRANCH  11  17
ENDBRANCH   1  15
BRANCH   8  28
ATOM     28  C   UNL     1       1.889   3.587  20.694  0.00  0.00    +0.000 C 
ATOM     29  F   UNL     1       2.235   2.288  20.489  0.00  0.00    +0.000 F 
ATOM     30  F   UNL     1       2.333   3.907  21.940  0.00  0.00    +0.000 F 
ATOM     31  F   UNL     1       0.529   3.591  20.762  0.00  0.00    +0.000 F 
ENDBRANCH   8  28
BRANCH   6  32
ATOM     32  C   UNL     1       4.518   4.392  16.435  0.00  0.00    +0.000 C 
BRANCH  32  33
ATOM     33  N   UNL     1       5.875   4.034  16.882  0.00  0.00    +0.000 NA
ATOM     34  C   UNL     1       6.896   4.993  16.405  0.00  0.00    +0.000 C 
ATOM     35  C   UNL     1       7.463   5.072  17.846  0.00  0.00    +0.000 C 
ATOM     36  C   UNL     1       7.760   6.470  18.358  0.00  0.00    +0.000 C 
ATOM     37  F   UNL     1       8.537   4.281  18.100  0.00  0.00    +0.000 F 
ATOM     38  C   UNL     1       6.093   4.489  18.274  0.00  0.00    +0.000 C 
ENDBRANCH  32  33
ENDBRANCH   6  32
TORSDOF 7
ENDMDL
MODEL 6
REMARK VINA RESULT:      -9.9      3.389      9.112
REMARK  Name = 
REMARK  9 active torsions:
REMARK  status: ('A' for Active; 'I' for Inactive)
REMARK    1  A    between atoms: C_1  and  N_2
REMARK    2  A    between atoms: C_6  and  C_7
REMARK    3  A    between atoms: C_7  and  C_8
REMARK    4  A    between atoms: C_8  and  C_9
REMARK    5  A    between atoms: C_13  and  N_14
REMARK    6  A    between atoms: C_19  and  C_20
REMARK    7  A    between atoms: C_20  and  N_21
REMARK    8  A    between atoms: C_23  and  C_24
REMARK    9  A    between atoms: C_28  and  C_29
REMARK                            x       y       z     vdW  Elec       q    Type
REMARK                         _______ _______ _______ _____ _____    ______ ____
ROOT
ATOM      1  N   UNL     1       2.298   7.372  19.388  0.00  0.00    +0.000 N 
ATOM      2  C   UNL     1       1.522   7.708  20.561  0.00  0.00    +0.000 C 
ATOM      3  C   UNL     1       1.011   9.065  20.288  0.00  0.00    +0.000 A 
ATOM      4  C   UNL     1       1.330   9.435  18.987  0.00  0.00    +0.000 A 
ATOM      5  C   UNL     1       0.881  10.642  18.473  0.00  0.00    +0.000 A 
ATOM      6  C   UNL     1       0.117  11.492  19.313  0.00  0.00    +0.000 A 
ATOM      7  C   UNL     1      -0.139  11.105  20.652  0.00  0.00    +0.000 A 
ATOM      8  C   UNL     1       0.303   9.882  21.162  0.00  0.00    +0.000 A 
ATOM      9  C   UNL     1       2.188   8.361  18.404  0.00  0.00    +0.000 C 
ATOM     10  O   UNL     1       2.683   8.434  17.293  0.00  0.00    +0.000 OA
ENDROOT
BRANCH   1  15
ATOM     11  C   UNL     1       5.369   5.276  18.849  0.00  0.00    +0.000 A 
ATOM     12  C   UNL     1       4.882   4.024  19.242  0.00  0.00    +0.000 A 
ATOM     13  C   UNL     1       3.579   3.870  19.751  0.00  0.00    +0.000 A 
ATOM     14  C   UNL     1       2.701   4.960  19.852  0.00  0.00    +0.000 A 
ATOM     15  C   UNL     1       3.125   6.217  19.445  0.00  0.00    +0.000 A 
ATOM     16  C   UNL     1       4.460   6.335  18.998  0.00  0.00    +0.000 A 
BRANCH  11  17
ATOM     17  C   UNL     1       6.852   5.572  18.271  0.00  0.00    +0.000 C 
ATOM     18  C   UNL     1       7.906   5.998  19.326  0.00  0.00    +0.000 C 
ATOM     19  O   UNL     1       8.144   7.264  18.683  0.00  0.00    +0.000 OA
ATOM     20  C   UNL     1       7.129   6.996  17.693  0.00  0.00    +0.000 C 
BRANCH  17  21
ATOM     21  C   UNL     1       7.349   4.438  17.336  0.00  0.00    +0.000 C 
BRANCH  21  27
ATOM     22  C   UNL     1       4.701   3.445  15.926  0.00  0.00    +0.000 C 
ATOM     23  N   UNL     1       5.795   4.151  15.316  0.00  0.00    +0.000 N 
ATOM     24  C   UNL     1       5.865   4.489  13.995  0.00  0.00    +0.000 A 
ATOM     25  N   UNL     1       7.013   5.076  13.759  0.00  0.00    +0.000 NA
ATOM     26  N   UNL     1       7.710   5.121  14.941  0.00  0.00    +0.000 NA
ATOM     27  C   UNL     1       6.964   4.592  15.892  0.00  0.00    +0.000 A 
ENDBRANCH  21  27
ENDBRANCH  17  21
ENDBRANCH  11  17
ENDBRANCH   1  15
BRANCH   8  28
ATOM     28  C   UNL     1       0.028   9.492  22.594  0.00  0.00    +0.000 C 
ATOM     29  F   UNL     1      -0.581  10.465  23.324  0.00  0.00    +0.000 F 
ATOM     30  F   UNL     1      -0.768   8.393  22.686  0.00  0.00    +0.000 F 
ATOM     31  F   UNL     1       1.170   9.193  23.274  0.00  0.00    +0.000 F 
ENDBRANCH   8  28
BRANCH   6  32
ATOM     32  C   UNL     1      -0.522  12.756  18.754  0.00  0.00    +0.000 C 
BRANCH  32  33
ATOM     33  N   UNL     1       0.426  13.843  18.456  0.00  0.00    +0.000 NA
ATOM     34  C   UNL     1      -0.159  15.181  18.697  0.00  0.00    +0.000 C 
ATOM     35  C   UNL     1       1.112  15.567  19.498  0.00  0.00    +0.000 C 
ATOM     36  C   UNL     1       0.865  16.266  20.822  0.00  0.00    +0.000 C 
ATOM     37  F   UNL     1       2.052  16.264  18.810  0.00  0.00    +0.000 F 
ATOM     38  C   UNL     1       1.354  14.040  19.592  0.00  0.00    +0.000 C 
ENDBRANCH  32  33
ENDBRANCH   6  32
TORSDOF 7
ENDMDL
MODEL 7
REMARK VINA RESULT:      -9.8      2.249      3.316
REMARK  Name = 
REMARK  9 active torsions:
REMARK  status: ('A' for Active; 'I' for Inactive)
REMARK    1  A    between atoms: C_1  and  N_2
REMARK    2  A    between atoms: C_6  and  C_7
REMARK    3  A    between atoms: C_7  and  C_8
REMARK    4  A    between atoms: C_8  and  C_9
REMARK    5  A    between atoms: C_13  and  N_14
REMARK    6  A    between atoms: C_19  and  C_20
REMARK    7  A    between atoms: C_20  and  N_21
REMARK    8  A    between atoms: C_23  and  C_24
REMARK    9  A    between atoms: C_28  and  C_29
REMARK                            x       y       z     vdW  Elec       q    Type
REMARK                         _______ _______ _______ _____ _____    ______ ____
ROOT
ATOM      1  N   UNL     1       1.670   7.859  20.055  0.00  0.00    +0.000 N 
ATOM      2  C   UNL     1       1.695   6.564  20.700  0.00  0.00    +0.000 C 
ATOM      3  C   UNL     1       2.333   5.673  19.711  0.00  0.00    +0.000 A 
ATOM      4  C   UNL     1       2.793   6.420  18.633  0.00  0.00    +0.000 A 
ATOM      5  C   UNL     1       3.504   5.808  17.612  0.00  0.00    +0.000 A 
ATOM      6  C   UNL     1       3.725   4.409  17.685  0.00  0.00    +0.000 A 
ATOM      7  C   UNL     1       3.191   3.674  18.772  0.00  0.00    +0.000 A 
ATOM      8  C   UNL     1       2.487   4.295  19.806  0.00  0.00    +0.000 A 
ATOM      9  C   UNL     1       2.344   7.829  18.829  0.00  0.00    +0.000 C 
ATOM     10  O   UNL     1       2.539   8.711  18.010  0.00  0.00    +0.000 OA
ENDROOT
BRANCH   1  15
ATOM     11  C   UNL     1      -0.632  10.823  20.212  0.00  0.00    +0.000 A 
ATOM     12  C   UNL     1      -0.549  11.125  21.576  0.00  0.00    +0.000 A 
ATOM     13  C   UNL     1       0.197  10.324  22.461  0.00  0.00    +0.000 A 
ATOM     14  C   UNL     1       0.918   9.209  22.006  0.00  0.00    +0.000 A 
ATOM     15  C   UNL     1       0.894   8.886  20.656  0.00  0.00    +0.000 A 
ATOM     16  C   UNL     1       0.083   9.682  19.816  0.00  0.00    +0.000 A 
BRANCH  11  17
ATOM     17  C   UNL     1      -1.475  11.659  19.111  0.00  0.00    +0.000 C 
ATOM     18  C   UNL     1      -2.755  12.358  19.640  0.00  0.00    +0.000 C 
ATOM     19  O   UNL     1      -3.611  11.627  18.744  0.00  0.00    +0.000 OA
ATOM     20  C   UNL     1      -2.496  10.869  18.233  0.00  0.00    +0.000 C 
BRANCH  17  21
ATOM     21  C   UNL     1      -0.567  12.600  18.276  0.00  0.00    +0.000 C 
BRANCH  21  27
ATOM     22  C   UNL     1       2.570  12.249  18.118  0.00  0.00    +0.000 C 
ATOM     23  N   UNL     1       1.840  13.159  18.960  0.00  0.00    +0.000 N 
ATOM     24  C   UNL     1       2.409  14.018  19.856  0.00  0.00    +0.000 A 
ATOM     25  N   UNL     1       1.464  14.665  20.494  0.00  0.00    +0.000 NA
ATOM     26  N   UNL     1       0.257  14.223  20.013  0.00  0.00    +0.000 NA
ATOM     27  C   UNL     1       0.480  13.336  19.062  0.00  0.00    +0.000 A 
ENDBRANCH  21  27
ENDBRANCH  17  21
ENDBRANCH  11  17
ENDBRANCH   1  15
BRANCH   8  28
ATOM     28  C   UNL     1       1.918   3.493  20.951  0.00  0.00    +0.000 C 
ATOM     29  F   UNL     1       2.205   2.164  20.891  0.00  0.00    +0.000 F 
ATOM     30  F   UNL     1       2.370   3.925  22.159  0.00  0.00    +0.000 F 
ATOM     31  F   UNL     1       0.559   3.565  21.005  0.00  0.00    +0.000 F 
ENDBRANCH   8  28
BRANCH   6  32
ATOM     32  C   UNL     1       4.622   3.715  16.669  0.00  0.00    +0.000 C 
BRANCH  32  33
ATOM     33  N   UNL     1       5.617   4.592  16.030  0.00  0.00    +0.000 NA
ATOM     34  C   UNL     1       6.762   3.834  15.476  0.00  0.00    +0.000 C 
ATOM     35  C   UNL     1       6.609   4.619  14.147  0.00  0.00    +0.000 C 
ATOM     36  C   UNL     1       6.666   3.781  12.882  0.00  0.00    +0.000 C 
ATOM     37  F   UNL     1       7.434   5.686  13.996  0.00  0.00    +0.000 F 
ATOM     38  C   UNL     1       5.185   4.946  14.659  0.00  0.00    +0.000 C 
ENDBRANCH  32  33
ENDBRANCH   6  32
TORSDOF 7
ENDMDL
MODEL 8
REMARK VINA RESULT:      -9.8      1.628      2.344
REMARK  Name = 
REMARK  9 active torsions:
REMARK  status: ('A' for Active; 'I' for Inactive)
REMARK    1  A    between atoms: C_1  and  N_2
REMARK    2  A    between atoms: C_6  and  C_7
REMARK    3  A    between atoms: C_7  and  C_8
REMARK    4  A    between atoms: C_8  and  C_9
REMARK    5  A    between atoms: C_13  and  N_14
REMARK    6  A    between atoms: C_19  and  C_20
REMARK    7  A    between atoms: C_20  and  N_21
REMARK    8  A    between atoms: C_23  and  C_24
REMARK    9  A    between atoms: C_28  and  C_29
REMARK                            x       y       z     vdW  Elec       q    Type
REMARK                         _______ _______ _______ _____ _____    ______ ____
ROOT
ATOM      1  N   UNL     1       1.359   8.285  20.317  0.00  0.00    +0.000 N 
ATOM      2  C   UNL     1       1.536   6.955  20.860  0.00  0.00    +0.000 C 
ATOM      3  C   UNL     1       2.211   6.205  19.782  0.00  0.00    +0.000 A 
ATOM      4  C   UNL     1       2.548   7.070  18.747  0.00  0.00    +0.000 A 
ATOM      5  C   UNL     1       3.266   6.606  17.656  0.00  0.00    +0.000 A 
ATOM      6  C   UNL     1       3.622   5.234  17.614  0.00  0.00    +0.000 A 
ATOM      7  C   UNL     1       3.211   4.373  18.661  0.00  0.00    +0.000 A 
ATOM      8  C   UNL     1       2.499   4.846  19.765  0.00  0.00    +0.000 A 
ATOM      9  C   UNL     1       1.976   8.411  19.068  0.00  0.00    +0.000 C 
ATOM     10  O   UNL     1       2.049   9.364  18.311  0.00  0.00    +0.000 OA
ENDROOT
BRANCH   1  15
ATOM     11  C   UNL     1      -0.826  11.293  20.853  0.00  0.00    +0.000 A 
ATOM     12  C   UNL     1      -0.999  11.225  22.240  0.00  0.00    +0.000 A 
ATOM     13  C   UNL     1      -0.467  10.163  22.995  0.00  0.00    +0.000 A 
ATOM     14  C   UNL     1       0.289   9.146  22.393  0.00  0.00    +0.000 A 
ATOM     15  C   UNL     1       0.517   9.185  21.024  0.00  0.00    +0.000 A 
ATOM     16  C   UNL     1      -0.087  10.237  20.299  0.00  0.00    +0.000 A 
BRANCH  11  17
ATOM     17  C   UNL     1      -1.409  12.453  19.886  0.00  0.00    +0.000 C 
ATOM     18  C   UNL     1      -1.978  11.966  18.528  0.00  0.00    +0.000 C 
ATOM     19  O   UNL     1      -1.041  12.753  17.770  0.00  0.00    +0.000 OA
ATOM     20  C   UNL     1      -0.391  13.210  18.975  0.00  0.00    +0.000 C 
BRANCH  17  21
ATOM     21  C   UNL     1      -2.367  13.413  20.640  0.00  0.00    +0.000 C 
BRANCH  21  27
ATOM     22  C   UNL     1      -4.022  12.885  23.281  0.00  0.00    +0.000 C 
ATOM     23  N   UNL     1      -4.476  12.722  21.926  0.00  0.00    +0.000 N 
ATOM     24  C   UNL     1      -5.718  12.284  21.567  0.00  0.00    +0.000 A 
ATOM     25  N   UNL     1      -5.787  12.201  20.261  0.00  0.00    +0.000 NA
ATOM     26  N   UNL     1      -4.571  12.587  19.753  0.00  0.00    +0.000 NA
ATOM     27  C   UNL     1      -3.785  12.934  20.754  0.00  0.00    +0.000 A 
ENDBRANCH  21  27
ENDBRANCH  17  21
ENDBRANCH  11  17
ENDBRANCH   1  15
BRANCH   8  28
ATOM     28  C   UNL     1       2.061   3.911  20.867  0.00  0.00    +0.000 C 
ATOM     29  F   UNL     1       2.488   4.279  22.105  0.00  0.00    +0.000 F 
ATOM     30  F   UNL     1       0.707   3.806  20.948  0.00  0.00    +0.000 F 
ATOM     31  F   UNL     1       2.531   2.646  20.685  0.00  0.00    +0.000 F 
ENDBRANCH   8  28
BRANCH   6  32
ATOM     32  C   UNL     1       4.534   4.707  16.514  0.00  0.00    +0.000 C 
BRANCH  32  33
ATOM     33  N   UNL     1       5.854   4.248  16.978  0.00  0.00    +0.000 NA
ATOM     34  C   UNL     1       6.950   5.131  16.519  0.00  0.00    +0.000 C 
ATOM     35  C   UNL     1       7.500   5.163  17.968  0.00  0.00    +0.000 C 
ATOM     36  C   UNL     1       7.892   6.534  18.490  0.00  0.00    +0.000 C 
ATOM     37  F   UNL     1       8.510   4.295  18.234  0.00  0.00    +0.000 F 
ATOM     38  C   UNL     1       6.086   4.681  18.374  0.00  0.00    +0.000 C 
ENDBRANCH  32  33
ENDBRANCH   6  32
TORSDOF 7
ENDMDL
MODEL 9
REMARK VINA RESULT:      -9.8      1.655      2.296
REMARK  Name = 
REMARK  9 active torsions:
REMARK  status: ('A' for Active; 'I' for Inactive)
REMARK    1  A    between atoms: C_1  and  N_2
REMARK    2  A    between atoms: C_6  and  C_7
REMARK    3  A    between atoms: C_7  and  C_8
REMARK    4  A    between atoms: C_8  and  C_9
REMARK    5  A    between atoms: C_13  and  N_14
REMARK    6  A    between atoms: C_19  and  C_20
REMARK    7  A    between atoms: C_20  and  N_21
REMARK    8  A    between atoms: C_23  and  C_24
REMARK    9  A    between atoms: C_28  and  C_29
REMARK                            x       y       z     vdW  Elec       q    Type
REMARK                         _______ _______ _______ _____ _____    ______ ____
ROOT
ATOM      1  N   UNL     1       1.638   7.858  20.173  0.00  0.00    +0.000 N 
ATOM      2  C   UNL     1       1.715   6.563  20.813  0.00  0.00    +0.000 C 
ATOM      3  C   UNL     1       2.292   5.677  19.784  0.00  0.00    +0.000 A 
ATOM      4  C   UNL     1       2.674   6.427  18.678  0.00  0.00    +0.000 A 
ATOM      5  C   UNL     1       3.320   5.821  17.612  0.00  0.00    +0.000 A 
ATOM      6  C   UNL     1       3.555   4.423  17.670  0.00  0.00    +0.000 A 
ATOM      7  C   UNL     1       3.100   3.684  18.790  0.00  0.00    +0.000 A 
ATOM      8  C   UNL     1       2.462   4.300  19.868  0.00  0.00    +0.000 A 
ATOM      9  C   UNL     1       2.229   7.834  18.905  0.00  0.00    +0.000 C 
ATOM     10  O   UNL     1       2.363   8.716  18.075  0.00  0.00    +0.000 OA
ENDROOT
BRANCH   1  15
ATOM     11  C   UNL     1       0.476  11.348  20.938  0.00  0.00    +0.000 A 
ATOM     12  C   UNL     1      -0.285  11.105  22.087  0.00  0.00    +0.000 A 
ATOM     13  C   UNL     1      -0.483   9.799  22.575  0.00  0.00    +0.000 A 
ATOM     14  C   UNL     1       0.106   8.689  21.949  0.00  0.00    +0.000 A 
ATOM     15  C   UNL     1       0.896   8.880  20.825  0.00  0.00    +0.000 A 
ATOM     16  C   UNL     1       1.016  10.201  20.336  0.00  0.00    +0.000 A 
BRANCH  11  17
ATOM     17  C   UNL     1       0.750  12.800  20.279  0.00  0.00    +0.000 C 
ATOM     18  C   UNL     1       1.798  12.827  19.136  0.00  0.00    +0.000 C 
ATOM     19  O   UNL     1       2.654  13.742  19.844  0.00  0.00    +0.000 OA
ATOM     20  C   UNL     1       1.781  13.732  20.992  0.00  0.00    +0.000 C 
BRANCH  17  21
ATOM     21  C   UNL     1      -0.568  13.533  19.915  0.00  0.00    +0.000 C 
BRANCH  21  27
ATOM     22  C   UNL     1      -3.485  12.712  20.814  0.00  0.00    +0.000 C 
ATOM     23  N   UNL     1      -2.832  12.376  19.578  0.00  0.00    +0.000 N 
ATOM     24  C   UNL     1      -3.382  11.613  18.588  0.00  0.00    +0.000 A 
ATOM     25  N   UNL     1      -2.506  11.456  17.627  0.00  0.00    +0.000 NA
ATOM     26  N   UNL     1      -1.362  12.121  17.990  0.00  0.00    +0.000 NA
ATOM     27  C   UNL     1      -1.565  12.706  19.155  0.00  0.00    +0.000 A 
ENDBRANCH  21  27
ENDBRANCH  17  21
ENDBRANCH  11  17
ENDBRANCH   1  15
BRANCH   8  28
ATOM     28  C   UNL     1       1.975   3.494  21.048  0.00  0.00    +0.000 C 
ATOM     29  F   UNL     1       2.371   2.193  21.028  0.00  0.00    +0.000 F 
ATOM     30  F   UNL     1       2.406   4.003  22.234  0.00  0.00    +0.000 F 
ATOM     31  F   UNL     1       0.616   3.456  21.120  0.00  0.00    +0.000 F 
ENDBRANCH   8  28
BRANCH   6  32
ATOM     32  C   UNL     1       4.388   3.736  16.595  0.00  0.00    +0.000 C 
BRANCH  32  33
ATOM     33  N   UNL     1       5.541   4.518  16.120  0.00  0.00    +0.000 NA
ATOM     34  C   UNL     1       6.596   3.662  15.531  0.00  0.00    +0.000 C 
ATOM     35  C   UNL     1       6.648   4.610  14.305  0.00  0.00    +0.000 C 
ATOM     36  C   UNL     1       6.665   3.927  12.949  0.00  0.00    +0.000 C 
ATOM     37  F   UNL     1       7.629   5.548  14.329  0.00  0.00    +0.000 F 
ATOM     38  C   UNL     1       5.257   5.091  14.785  0.00  0.00    +0.000 C 
ENDBRANCH  32  33
ENDBRANCH   6  32
TORSDOF 7
ENDMDL
