MODEL 1
REMARK VINA RESULT:      -8.6      0.000      0.000
REMARK  Name = 
REMARK  7 active torsions:
REMARK  status: ('A' for Active; 'I' for Inactive)
REMARK    1  A    between atoms: C_1  and  C_2
REMARK    2  A    between atoms: C_2  and  C_3
REMARK    3  A    between atoms: C_2  and  C_10
REMARK    4  A    between atoms: C_3  and  C_4
REMARK    5  A    between atoms: N_8  and  C_9
REMARK    6  A    between atoms: C_14  and  C_15
REMARK    7  A    between atoms: C_17  and  C_18
REMARK                            x       y       z     vdW  Elec       q    Type
REMARK                         _______ _______ _______ _____ _____    ______ ____
ROOT
ATOM      1  C   UNL     1       2.283   7.466  19.295  0.00  0.00    +0.000 A 
ATOM      2  C   UNL     1       2.304   8.085  18.040  0.00  0.00    +0.000 A 
ATOM      3  C   UNL     1       1.627   9.289  17.832  0.00  0.00    +0.000 A 
ATOM      4  C   UNL     1       0.930   9.892  18.882  0.00  0.00    +0.000 A 
ATOM      5  C   UNL     1       0.915   9.310  20.152  0.00  0.00    +0.000 A 
ATOM      6  C   UNL     1       1.589   8.097  20.339  0.00  0.00    +0.000 A 
ENDROOT
BRANCH   5   7
ATOM      7  C   UNL     1       0.208   9.939  21.263  0.00  0.00    +0.000 A 
ATOM      8  C   UNL     1      -0.535  11.100  21.342  0.00  0.00    +0.000 A 
ATOM      9  C   UNL     1      -1.011  11.183  22.677  0.00  0.00    +0.000 A 
ATOM     10  N   UNL     1      -0.557  10.148  23.404  0.00  0.00    +0.000 NA
ATOM     11  N   UNL     1       0.156   9.416  22.532  0.00  0.00    +0.000 N 
ATOM     12  H   UNL     1       0.589   8.561  22.864  0.00  0.00    +0.000 HD
BRANCH   9  13
ATOM     13  C   UNL     1      -1.890  12.221  23.231  0.00  0.00    +0.000 A 
ATOM     14  C   UNL     1      -1.450  13.534  23.373  0.00  0.00    +0.000 A 
ATOM     15  C   UNL     1      -2.311  14.475  23.931  0.00  0.00    +0.000 A 
ATOM     16  C   UNL     1      -3.583  14.080  24.329  0.00  0.00    +0.000 A 
ATOM     17  C   UNL     1      -3.945  12.755  24.150  0.00  0.00    +0.000 A 
ATOM     18  N   UNL     1      -3.133  11.821  23.609  0.00  0.00    +0.000 NA
ENDBRANCH   9  13
ENDBRANCH   5   7
BRANCH   1  20
ATOM     19  C   UNL     1       4.088   5.860  18.458  0.00  0.00    +0.000 C 
ATOM     20  C   UNL     1       3.018   6.155  19.521  0.00  0.00    +0.000 C 
BRANCH  20  21
ATOM     21  C   UNL     1       2.058   4.974  19.763  0.00  0.00    +0.000 C 
BRANCH  21  22
ATOM     22  C   UNL     1       2.251   3.790  18.872  0.00  0.00    +0.000 A 
ATOM     23  N   UNL     1       1.683   3.580  17.701  0.00  0.00    +0.000 NA
ATOM     24  N   UNL     1       2.164   2.397  17.191  0.00  0.00    +0.000 NA
ATOM     25  C   UNL     1       3.028   1.916  18.052  0.00  0.00    +0.000 A 
ATOM     26  N   UNL     1       3.097   2.740  19.134  0.00  0.00    +0.000 N 
ATOM     27  C   UNL     1       3.908   2.532  20.302  0.00  0.00    +0.000 C 
ENDBRANCH  21  22
ENDBRANCH  20  21
ENDBRANCH   1  20
TORSDOF 5
ENDMDL
MODEL 2
REMARK VINA RESULT:      -8.6      1.787      2.341
REMARK  Name = 
REMARK  7 active torsions:
REMARK  status: ('A' for Active; 'I' for Inactive)
REMARK    1  A    between atoms: C_1  and  C_2
REMARK    2  A    between atoms: C_2  and  C_3
REMARK    3  A    between atoms: C_2  and  C_10
REMARK    4  A    between atoms: C_3  and  C_4
REMARK    5  A    between atoms: N_8  and  C_9
REMARK    6  A    between atoms: C_14  and  C_15
REMARK    7  A    between atoms: C_17  and  C_18
REMARK                            x       y       z     vdW  Elec       q    Type
REMARK                         _______ _______ _______ _____ _____    ______ ____
ROOT
ATOM      1  C   UNL     1       2.409   6.796  19.263  0.00  0.00    +0.000 A 
ATOM      2  C   UNL     1       2.532   7.386  17.999  0.00  0.00    +0.000 A 
ATOM      3  C   UNL     1       2.033   8.670  17.767  0.00  0.00    +0.000 A 
ATOM      4  C   UNL     1       1.419   9.383  18.799  0.00  0.00    +0.000 A 
ATOM      5  C   UNL     1       1.308   8.828  20.078  0.00  0.00    +0.000 A 
ATOM      6  C   UNL     1       1.801   7.535  20.290  0.00  0.00    +0.000 A 
ENDROOT
BRANCH   5   7
ATOM      7  C   UNL     1       0.685   9.568  21.171  0.00  0.00    +0.000 A 
ATOM      8  C   UNL     1      -0.054  10.734  21.189  0.00  0.00    +0.000 A 
ATOM      9  C   UNL     1      -0.427  10.952  22.542  0.00  0.00    +0.000 A 
ATOM     10  N   UNL     1       0.087   9.994  23.332  0.00  0.00    +0.000 NA
ATOM     11  N   UNL     1       0.733   9.175  22.485  0.00  0.00    +0.000 N 
ATOM     12  H   UNL     1       1.194   8.356  22.867  0.00  0.00    +0.000 HD
BRANCH   9  13
ATOM     13  C   UNL     1      -1.265  12.043  23.054  0.00  0.00    +0.000 A 
ATOM     14  C   UNL     1      -2.632  11.867  23.252  0.00  0.00    +0.000 A 
ATOM     15  C   UNL     1      -3.388  12.942  23.712  0.00  0.00    +0.000 A 
ATOM     16  C   UNL     1      -2.761  14.157  23.962  0.00  0.00    +0.000 A 
ATOM     17  C   UNL     1      -1.396  14.248  23.743  0.00  0.00    +0.000 A 
ATOM     18  N   UNL     1      -0.636  13.223  23.301  0.00  0.00    +0.000 NA
ENDBRANCH   9  13
ENDBRANCH   5   7
BRANCH   1  20
ATOM     19  C   UNL     1       2.327   4.713  20.744  0.00  0.00    +0.000 C 
ATOM     20  C   UNL     1       2.949   5.397  19.516  0.00  0.00    +0.000 C 
BRANCH  20  21
ATOM     21  C   UNL     1       4.490   5.349  19.507  0.00  0.00    +0.000 C 
BRANCH  21  22
ATOM     22  C   UNL     1       5.113   4.828  18.253  0.00  0.00    +0.000 A 
ATOM     23  N   UNL     1       4.505   4.188  17.274  0.00  0.00    +0.000 NA
ATOM     24  N   UNL     1       5.427   3.924  16.288  0.00  0.00    +0.000 NA
ATOM     25  C   UNL     1       6.576   4.423  16.678  0.00  0.00    +0.000 A 
ATOM     26  N   UNL     1       6.436   4.975  17.913  0.00  0.00    +0.000 N 
ATOM     27  C   UNL     1       7.480   5.591  18.685  0.00  0.00    +0.000 C 
ENDBRANCH  21  22
ENDBRANCH  20  21
ENDBRANCH   1  20
TORSDOF 5
ENDMDL
MODEL 3
REMARK VINA RESULT:      -8.5      3.025      5.413
REMARK  Name = 
REMARK  7 active torsions:
REMARK  status: ('A' for Active; 'I' for Inactive)
REMARK    1  A    between atoms: C_1  and  C_2
REMARK    2  A    between atoms: C_2  and  C_3
REMARK    3  A    between atoms: C_2  and  C_10
REMARK    4  A    between atoms: C_3  and  C_4
REMARK    5  A    between atoms: N_8  and  C_9
REMARK    6  A    between atoms: C_14  and  C_15
REMARK    7  A    between atoms: C_17  and  C_18
REMARK                            x       y       z     vdW  Elec       q    Type
REMARK                         _______ _______ _______ _____ _____    ______ ____
ROOT
ATOM      1  C   UNL     1       4.680   4.913  16.610  0.00  0.00    +0.000 A 
ATOM      2  C   UNL     1       4.328   3.594  16.922  0.00  0.00    +0.000 A 
ATOM      3  C   UNL     1       3.406   3.328  17.936  0.00  0.00    +0.000 A 
ATOM      4  C   UNL     1       2.815   4.379  18.641  0.00  0.00    +0.000 A 
ATOM      5  C   UNL     1       3.127   5.706  18.333  0.00  0.00    +0.000 A 
ATOM      6  C   UNL     1       4.064   5.955  17.322  0.00  0.00    +0.000 A 
ENDROOT
BRANCH   5   7
ATOM      7  C   UNL     1       2.503   6.815  19.048  0.00  0.00    +0.000 A 
ATOM      8  C   UNL     1       2.070   8.055  18.625  0.00  0.00    +0.000 A 
ATOM      9  C   UNL     1       1.512   8.696  19.763  0.00  0.00    +0.000 A 
ATOM     10  N   UNL     1       1.628   7.912  20.849  0.00  0.00    +0.000 NA
ATOM     11  N   UNL     1       2.209   6.791  20.389  0.00  0.00    +0.000 N 
ATOM     12  H   UNL     1       2.384   6.037  21.045  0.00  0.00    +0.000 HD
BRANCH   9  13
ATOM     13  C   UNL     1       0.875  10.018  19.800  0.00  0.00    +0.000 A 
ATOM     14  C   UNL     1       0.832  10.826  18.666  0.00  0.00    +0.000 A 
ATOM     15  C   UNL     1       0.242  12.084  18.761  0.00  0.00    +0.000 A 
ATOM     16  C   UNL     1      -0.286  12.498  19.978  0.00  0.00    +0.000 A 
ATOM     17  C   UNL     1      -0.207  11.632  21.056  0.00  0.00    +0.000 A 
ATOM     18  N   UNL     1       0.356  10.406  20.995  0.00  0.00    +0.000 NA
ENDBRANCH   9  13
ENDBRANCH   5   7
BRANCH   1  20
ATOM     19  C   UNL     1       5.359   4.504  14.179  0.00  0.00    +0.000 C 
ATOM     20  C   UNL     1       5.686   5.204  15.508  0.00  0.00    +0.000 C 
BRANCH  20  21
ATOM     21  C   UNL     1       7.142   4.991  15.967  0.00  0.00    +0.000 C 
BRANCH  21  22
ATOM     22  C   UNL     1       7.418   5.299  17.403  0.00  0.00    +0.000 A 
ATOM     23  N   UNL     1       7.550   4.432  18.387  0.00  0.00    +0.000 NA
ATOM     24  N   UNL     1       7.844   5.123  19.539  0.00  0.00    +0.000 NA
ATOM     25  C   UNL     1       7.902   6.397  19.233  0.00  0.00    +0.000 A 
ATOM     26  N   UNL     1       7.617   6.559  17.912  0.00  0.00    +0.000 N 
ATOM     27  C   UNL     1       7.550   7.813  17.211  0.00  0.00    +0.000 C 
ENDBRANCH  21  22
ENDBRANCH  20  21
ENDBRANCH   1  20
TORSDOF 5
ENDMDL
MODEL 4
REMARK VINA RESULT:      -8.3      3.797     10.496
REMARK  Name = 
REMARK  7 active torsions:
REMARK  status: ('A' for Active; 'I' for Inactive)
REMARK    1  A    between atoms: C_1  and  C_2
REMARK    2  A    between atoms: C_2  and  C_3
REMARK    3  A    between atoms: C_2  and  C_10
REMARK    4  A    between atoms: C_3  and  C_4
REMARK    5  A    between atoms: N_8  and  C_9
REMARK    6  A    between atoms: C_14  and  C_15
REMARK    7  A    between atoms: C_17  and  C_18
REMARK                            x       y       z     vdW  Elec       q    Type
REMARK                         _______ _______ _______ _____ _____    ______ ____
ROOT
ATOM      1  C   UNL     1       2.244   6.759  19.893  0.00  0.00    +0.000 A 
ATOM      2  C   UNL     1       1.719   5.715  20.664  0.00  0.00    +0.000 A 
ATOM      3  C   UNL     1       2.148   4.401  20.462  0.00  0.00    +0.000 A 
ATOM      4  C   UNL     1       3.115   4.119  19.494  0.00  0.00    +0.000 A 
ATOM      5  C   UNL     1       3.676   5.146  18.729  0.00  0.00    +0.000 A 
ATOM      6  C   UNL     1       3.225   6.455  18.936  0.00  0.00    +0.000 A 
ENDROOT
BRANCH   5   7
ATOM      7  C   UNL     1       4.701   4.869  17.728  0.00  0.00    +0.000 A 
ATOM      8  C   UNL     1       4.673   4.906  16.348  0.00  0.00    +0.000 A 
ATOM      9  C   UNL     1       5.983   4.573  15.911  0.00  0.00    +0.000 A 
ATOM     10  N   UNL     1       6.776   4.303  16.962  0.00  0.00    +0.000 NA
ATOM     11  N   UNL     1       5.988   4.502  18.033  0.00  0.00    +0.000 N 
ATOM     12  H   UNL     1       6.389   4.368  18.955  0.00  0.00    +0.000 HD
BRANCH   9  13
ATOM     13  C   UNL     1       6.458   4.529  14.523  0.00  0.00    +0.000 A 
ATOM     14  C   UNL     1       5.858   3.695  13.583  0.00  0.00    +0.000 A 
ATOM     15  C   UNL     1       6.365   3.669  12.287  0.00  0.00    +0.000 A 
ATOM     16  C   UNL     1       7.452   4.473  11.966  0.00  0.00    +0.000 A 
ATOM     17  C   UNL     1       7.989   5.277  12.958  0.00  0.00    +0.000 A 
ATOM     18  N   UNL     1       7.517   5.327  14.222  0.00  0.00    +0.000 NA
ENDBRANCH   9  13
ENDBRANCH   5   7
BRANCH   1  20
ATOM     19  C   UNL     1       0.638   8.313  21.137  0.00  0.00    +0.000 C 
ATOM     20  C   UNL     1       1.776   8.189  20.111  0.00  0.00    +0.000 C 
BRANCH  20  21
ATOM     21  C   UNL     1       1.486   8.923  18.787  0.00  0.00    +0.000 C 
BRANCH  21  22
ATOM     22  C   UNL     1       0.879  10.282  18.920  0.00  0.00    +0.000 A 
ATOM     23  N   UNL     1       1.405  11.328  19.527  0.00  0.00    +0.000 NA
ATOM     24  N   UNL     1       0.546  12.392  19.382  0.00  0.00    +0.000 NA
ATOM     25  C   UNL     1      -0.480  11.980  18.675  0.00  0.00    +0.000 A 
ATOM     26  N   UNL     1      -0.329  10.659  18.385  0.00  0.00    +0.000 N 
ATOM     27  C   UNL     1      -1.261   9.844  17.655  0.00  0.00    +0.000 C 
ENDBRANCH  21  22
ENDBRANCH  20  21
ENDBRANCH   1  20
TORSDOF 5
ENDMDL
MODEL 5
REMARK VINA RESULT:      -8.3      1.465      2.102
REMARK  Name = 
REMARK  7 active torsions:
REMARK  status: ('A' for Active; 'I' for Inactive)
REMARK    1  A    between atoms: C_1  and  C_2
REMARK    2  A    between atoms: C_2  and  C_3
REMARK    3  A    between atoms: C_2  and  C_10
REMARK    4  A    between atoms: C_3  and  C_4
REMARK    5  A    between atoms: N_8  and  C_9
REMARK    6  A    between atoms: C_14  and  C_15
REMARK    7  A    between atoms: C_17  and  C_18
REMARK                            x       y       z     vdW  Elec       q    Type
REMARK                         _______ _______ _______ _____ _____    ______ ____
ROOT
ATOM      1  C   UNL     1       2.209   7.193  19.255  0.00  0.00    +0.000 A 
ATOM      2  C   UNL     1       2.413   7.867  18.045  0.00  0.00    +0.000 A 
ATOM      3  C   UNL     1       1.946   9.172  17.873  0.00  0.00    +0.000 A 
ATOM      4  C   UNL     1       1.280   9.822  18.915  0.00  0.00    +0.000 A 
ATOM      5  C   UNL     1       1.086   9.184  20.143  0.00  0.00    +0.000 A 
ATOM      6  C   UNL     1       1.549   7.871  20.294  0.00  0.00    +0.000 A 
ENDROOT
BRANCH   5   7
ATOM      7  C   UNL     1       0.409   9.857  21.247  0.00  0.00    +0.000 A 
ATOM      8  C   UNL     1      -0.415  10.964  21.282  0.00  0.00    +0.000 A 
ATOM      9  C   UNL     1      -0.804  11.132  22.637  0.00  0.00    +0.000 A 
ATOM     10  N   UNL     1      -0.221  10.202  23.413  0.00  0.00    +0.000 NA
ATOM     11  N   UNL     1       0.485   9.448  22.555  0.00  0.00    +0.000 N 
ATOM     12  H   UNL     1       1.006   8.659  22.925  0.00  0.00    +0.000 HD
BRANCH   9  13
ATOM     13  C   UNL     1      -1.722  12.149  23.166  0.00  0.00    +0.000 A 
ATOM     14  C   UNL     1      -1.322  13.477  23.300  0.00  0.00    +0.000 A 
ATOM     15  C   UNL     1      -2.220  14.397  23.833  0.00  0.00    +0.000 A 
ATOM     16  C   UNL     1      -3.486  13.969  24.216  0.00  0.00    +0.000 A 
ATOM     17  C   UNL     1      -3.806  12.632  24.046  0.00  0.00    +0.000 A 
ATOM     18  N   UNL     1      -2.958  11.717  23.529  0.00  0.00    +0.000 NA
ENDBRANCH   9  13
ENDBRANCH   5   7
BRANCH   1  20
ATOM     19  C   UNL     1       2.178   5.092  20.711  0.00  0.00    +0.000 C 
ATOM     20  C   UNL     1       2.715   5.772  19.442  0.00  0.00    +0.000 C 
BRANCH  20  21
ATOM     21  C   UNL     1       4.246   5.667  19.296  0.00  0.00    +0.000 C 
BRANCH  21  22
ATOM     22  C   UNL     1       4.733   5.052  18.024  0.00  0.00    +0.000 A 
ATOM     23  N   UNL     1       4.399   3.874  17.537  0.00  0.00    +0.000 NA
ATOM     24  N   UNL     1       5.033   3.708  16.327  0.00  0.00    +0.000 NA
ATOM     25  C   UNL     1       5.728   4.796  16.093  0.00  0.00    +0.000 A 
ATOM     26  N   UNL     1       5.593   5.655  17.139  0.00  0.00    +0.000 N 
ATOM     27  C   UNL     1       6.230   6.938  17.265  0.00  0.00    +0.000 C 
ENDBRANCH  21  22
ENDBRANCH  20  21
ENDBRANCH   1  20
TORSDOF 5
ENDMDL
MODEL 6
REMARK VINA RESULT:      -8.2      3.698      5.460
REMARK  Name = 
REMARK  7 active torsions:
REMARK  status: ('A' for Active; 'I' for Inactive)
REMARK    1  A    between atoms: C_1  and  C_2
REMARK    2  A    between atoms: C_2  and  C_3
REMARK    3  A    between atoms: C_2  and  C_10
REMARK    4  A    between atoms: C_3  and  C_4
REMARK    5  A    between atoms: N_8  and  C_9
REMARK    6  A    between atoms: C_14  and  C_15
REMARK    7  A    between atoms: C_17  and  C_18
REMARK                            x       y       z     vdW  Elec       q    Type
REMARK                         _______ _______ _______ _____ _____    ______ ____
ROOT
ATOM      1  C   UNL     1       4.452   4.838  16.962  0.00  0.00    +0.000 A 
ATOM      2  C   UNL     1       4.169   3.643  17.633  0.00  0.00    +0.000 A 
ATOM      3  C   UNL     1       3.311   3.636  18.735  0.00  0.00    +0.000 A 
ATOM      4  C   UNL     1       2.717   4.823  19.170  0.00  0.00    +0.000 A 
ATOM      5  C   UNL     1       2.960   6.026  18.500  0.00  0.00    +0.000 A 
ATOM      6  C   UNL     1       3.833   6.017  17.406  0.00  0.00    +0.000 A 
ENDROOT
BRANCH   5   7
ATOM      7  C   UNL     1       2.331   7.271  18.931  0.00  0.00    +0.000 A 
ATOM      8  C   UNL     1       1.988   8.415  18.239  0.00  0.00    +0.000 A 
ATOM      9  C   UNL     1       1.371   9.283  19.179  0.00  0.00    +0.000 A 
ATOM     10  N   UNL     1       1.365   8.725  20.402  0.00  0.00    +0.000 NA
ATOM     11  N   UNL     1       1.932   7.520  20.220  0.00  0.00    +0.000 N 
ATOM     12  H   UNL     1       2.020   6.905  21.023  0.00  0.00    +0.000 HD
BRANCH   9  13
ATOM     13  C   UNL     1       0.792  10.604  18.903  0.00  0.00    +0.000 A 
ATOM     14  C   UNL     1       1.580  11.752  18.923  0.00  0.00    +0.000 A 
ATOM     15  C   UNL     1       0.977  12.984  18.684  0.00  0.00    +0.000 A 
ATOM     16  C   UNL     1      -0.389  13.035  18.432  0.00  0.00    +0.000 A 
ATOM     17  C   UNL     1      -1.100  11.847  18.426  0.00  0.00    +0.000 A 
ATOM     18  N   UNL     1      -0.543  10.637  18.651  0.00  0.00    +0.000 NA
ENDBRANCH   9  13
ENDBRANCH   5   7
BRANCH   1  20
ATOM     19  C   UNL     1       5.734   3.441  15.245  0.00  0.00    +0.000 C 
ATOM     20  C   UNL     1       5.388   4.846  15.763  0.00  0.00    +0.000 C 
BRANCH  20  21
ATOM     21  C   UNL     1       6.627   5.735  15.989  0.00  0.00    +0.000 C 
BRANCH  21  22
ATOM     22  C   UNL     1       7.208   5.697  17.365  0.00  0.00    +0.000 A 
ATOM     23  N   UNL     1       7.419   4.627  18.106  0.00  0.00    +0.000 NA
ATOM     24  N   UNL     1       8.009   5.023  19.283  0.00  0.00    +0.000 NA
ATOM     25  C   UNL     1       8.163   6.324  19.231  0.00  0.00    +0.000 A 
ATOM     26  N   UNL     1       7.653   6.794  18.060  0.00  0.00    +0.000 N 
ATOM     27  C   UNL     1       7.607   8.172  17.654  0.00  0.00    +0.000 C 
ENDBRANCH  21  22
ENDBRANCH  20  21
ENDBRANCH   1  20
TORSDOF 5
ENDMDL
MODEL 7
REMARK VINA RESULT:      -8.2      1.555      1.882
REMARK  Name = 
REMARK  7 active torsions:
REMARK  status: ('A' for Active; 'I' for Inactive)
REMARK    1  A    between atoms: C_1  and  C_2
REMARK    2  A    between atoms: C_2  and  C_3
REMARK    3  A    between atoms: C_2  and  C_10
REMARK    4  A    between atoms: C_3  and  C_4
REMARK    5  A    between atoms: N_8  and  C_9
REMARK    6  A    between atoms: C_14  and  C_15
REMARK    7  A    between atoms: C_17  and  C_18
REMARK                            x       y       z     vdW  Elec       q    Type
REMARK                         _______ _______ _______ _____ _____    ______ ____
ROOT
ATOM      1  C   UNL     1       2.117   7.439  19.127  0.00  0.00    +0.000 A 
ATOM      2  C   UNL     1       2.353   8.171  17.958  0.00  0.00    +0.000 A 
ATOM      3  C   UNL     1       1.913   9.492  17.848  0.00  0.00    +0.000 A 
ATOM      4  C   UNL     1       1.242  10.100  18.912  0.00  0.00    +0.000 A 
ATOM      5  C   UNL     1       1.016   9.401  20.102  0.00  0.00    +0.000 A 
ATOM      6  C   UNL     1       1.453   8.074  20.190  0.00  0.00    +0.000 A 
ENDROOT
BRANCH   5   7
ATOM      7  C   UNL     1       0.334  10.029  21.229  0.00  0.00    +0.000 A 
ATOM      8  C   UNL     1      -0.497  11.128  21.304  0.00  0.00    +0.000 A 
ATOM      9  C   UNL     1      -0.889  11.243  22.664  0.00  0.00    +0.000 A 
ATOM     10  N   UNL     1      -0.302  10.288  23.406  0.00  0.00    +0.000 NA
ATOM     11  N   UNL     1       0.410   9.571  22.521  0.00  0.00    +0.000 N 
ATOM     12  H   UNL     1       0.935   8.772  22.861  0.00  0.00    +0.000 HD
BRANCH   9  13
ATOM     13  C   UNL     1      -1.814  12.234  23.229  0.00  0.00    +0.000 A 
ATOM     14  C   UNL     1      -1.420  13.556  23.420  0.00  0.00    +0.000 A 
ATOM     15  C   UNL     1      -2.324  14.451  23.986  0.00  0.00    +0.000 A 
ATOM     16  C   UNL     1      -3.590  14.003  24.344  0.00  0.00    +0.000 A 
ATOM     17  C   UNL     1      -3.904  12.673  24.117  0.00  0.00    +0.000 A 
ATOM     18  N   UNL     1      -3.051  11.783  23.567  0.00  0.00    +0.000 NA
ENDBRANCH   9  13
ENDBRANCH   5   7
BRANCH   1  20
ATOM     19  C   UNL     1       2.066   5.282  20.499  0.00  0.00    +0.000 C 
ATOM     20  C   UNL     1       2.594   6.001  19.247  0.00  0.00    +0.000 C 
BRANCH  20  21
ATOM     21  C   UNL     1       4.118   5.868  19.065  0.00  0.00    +0.000 C 
BRANCH  21  22
ATOM     22  C   UNL     1       4.571   5.419  17.713  0.00  0.00    +0.000 A 
ATOM     23  N   UNL     1       5.129   6.162  16.778  0.00  0.00    +0.000 NA
ATOM     24  N   UNL     1       5.435   5.356  15.707  0.00  0.00    +0.000 NA
ATOM     25  C   UNL     1       5.075   4.133  16.016  0.00  0.00    +0.000 A 
ATOM     26  N   UNL     1       4.505   4.127  17.252  0.00  0.00    +0.000 N 
ATOM     27  C   UNL     1       3.956   2.980  17.922  0.00  0.00    +0.000 C 
ENDBRANCH  21  22
ENDBRANCH  20  21
ENDBRANCH   1  20
TORSDOF 5
ENDMDL
MODEL 8
REMARK VINA RESULT:      -8.2      3.146      5.422
REMARK  Name = 
REMARK  7 active torsions:
REMARK  status: ('A' for Active; 'I' for Inactive)
REMARK    1  A    between atoms: C_1  and  C_2
REMARK    2  A    between atoms: C_2  and  C_3
REMARK    3  A    between atoms: C_2  and  C_10
REMARK    4  A    between atoms: C_3  and  C_4
REMARK    5  A    between atoms: N_8  and  C_9
REMARK    6  A    between atoms: C_14  and  C_15
REMARK    7  A    between atoms: C_17  and  C_18
REMARK                            x       y       z     vdW  Elec       q    Type
REMARK                         _______ _______ _______ _____ _____    ______ ____
ROOT
ATOM      1  C   UNL     1       4.831   4.882  16.436  0.00  0.00    +0.000 A 
ATOM      2  C   UNL     1       4.588   3.625  17.001  0.00  0.00    +0.000 A 
ATOM      3  C   UNL     1       3.717   3.492  18.084  0.00  0.00    +0.000 A 
ATOM      4  C   UNL     1       3.069   4.613  18.607  0.00  0.00    +0.000 A 
ATOM      5  C   UNL     1       3.271   5.877  18.044  0.00  0.00    +0.000 A 
ATOM      6  C   UNL     1       4.158   5.995  16.967  0.00  0.00    +0.000 A 
ENDROOT
BRANCH   5   7
ATOM      7  C   UNL     1       2.586   7.055  18.567  0.00  0.00    +0.000 A 
ATOM      8  C   UNL     1       1.880   7.267  19.734  0.00  0.00    +0.000 A 
ATOM      9  C   UNL     1       1.471   8.627  19.715  0.00  0.00    +0.000 A 
ATOM     10  N   UNL     1       1.868   9.222  18.577  0.00  0.00    +0.000 NA
ATOM     11  N   UNL     1       2.542   8.265  17.919  0.00  0.00    +0.000 N 
ATOM     12  H   UNL     1       2.954   8.498  17.021  0.00  0.00    +0.000 HD
BRANCH   9  13
ATOM     13  C   UNL     1       0.733   9.334  20.769  0.00  0.00    +0.000 A 
ATOM     14  C   UNL     1      -0.116  10.395  20.463  0.00  0.00    +0.000 A 
ATOM     15  C   UNL     1      -0.771  11.052  21.501  0.00  0.00    +0.000 A 
ATOM     16  C   UNL     1      -0.562  10.633  22.810  0.00  0.00    +0.000 A 
ATOM     17  C   UNL     1       0.295   9.567  23.028  0.00  0.00    +0.000 A 
ATOM     18  N   UNL     1       0.941   8.908  22.042  0.00  0.00    +0.000 NA
ENDBRANCH   9  13
ENDBRANCH   5   7
BRANCH   1  20
ATOM     19  C   UNL     1       5.739   3.840  14.285  0.00  0.00    +0.000 C 
ATOM     20  C   UNL     1       5.781   5.029  15.258  0.00  0.00    +0.000 C 
BRANCH  20  21
ATOM     21  C   UNL     1       7.209   5.409  15.696  0.00  0.00    +0.000 C 
BRANCH  21  22
ATOM     22  C   UNL     1       7.435   5.482  17.172  0.00  0.00    +0.000 A 
ATOM     23  N   UNL     1       7.593   4.468  17.999  0.00  0.00    +0.000 NA
ATOM     24  N   UNL     1       7.821   4.967  19.260  0.00  0.00    +0.000 NA
ATOM     25  C   UNL     1       7.815   6.276  19.174  0.00  0.00    +0.000 A 
ATOM     26  N   UNL     1       7.551   6.646  17.891  0.00  0.00    +0.000 N 
ATOM     27  C   UNL     1       7.429   7.995  17.410  0.00  0.00    +0.000 C 
ENDBRANCH  21  22
ENDBRANCH  20  21
ENDBRANCH   1  20
TORSDOF 5
ENDMDL
MODEL 9
REMARK VINA RESULT:      -8.2      6.158      8.381
REMARK  Name = 
REMARK  7 active torsions:
REMARK  status: ('A' for Active; 'I' for Inactive)
REMARK    1  A    between atoms: C_1  and  C_2
REMARK    2  A    between atoms: C_2  and  C_3
REMARK    3  A    between atoms: C_2  and  C_10
REMARK    4  A    between atoms: C_3  and  C_4
REMARK    5  A    between atoms: N_8  and  C_9
REMARK    6  A    between atoms: C_14  and  C_15
REMARK    7  A    between atoms: C_17  and  C_18
REMARK                            x       y       z     vdW  Elec       q    Type
REMARK                         _______ _______ _______ _____ _____    ______ ____
ROOT
ATOM      1  C   UNL     1       4.383   5.451  17.105  0.00  0.00    +0.000 A 
ATOM      2  C   UNL     1       4.852   4.612  16.087  0.00  0.00    +0.000 A 
ATOM      3  C   UNL     1       6.150   4.757  15.592  0.00  0.00    +0.000 A 
ATOM      4  C   UNL     1       6.997   5.736  16.117  0.00  0.00    +0.000 A 
ATOM      5  C   UNL     1       6.563   6.569  17.153  0.00  0.00    +0.000 A 
ATOM      6  C   UNL     1       5.255   6.418  17.629  0.00  0.00    +0.000 A 
ENDROOT
BRANCH   5   7
ATOM      7  C   UNL     1       7.444   7.583  17.725  0.00  0.00    +0.000 A 
ATOM      8  C   UNL     1       7.637   8.914  17.416  0.00  0.00    +0.000 A 
ATOM      9  C   UNL     1       8.598   9.406  18.339  0.00  0.00    +0.000 A 
ATOM     10  N   UNL     1       9.011   8.423  19.156  0.00  0.00    +0.000 NA
ATOM     11  N   UNL     1       8.296   7.351  18.776  0.00  0.00    +0.000 N 
ATOM     12  H   UNL     1       8.435   6.479  19.276  0.00  0.00    +0.000 HD
BRANCH   9  13
ATOM     13  C   UNL     1       9.091  10.785  18.438  0.00  0.00    +0.000 A 
ATOM     14  C   UNL     1      10.147  11.111  19.286  0.00  0.00    +0.000 A 
ATOM     15  C   UNL     1      10.558  12.439  19.366  0.00  0.00    +0.000 A 
ATOM     16  C   UNL     1       9.908  13.399  18.601  0.00  0.00    +0.000 A 
ATOM     17  C   UNL     1       8.870  12.992  17.780  0.00  0.00    +0.000 A 
ATOM     18  N   UNL     1       8.451  11.712  17.678  0.00  0.00    +0.000 NA
ENDBRANCH   9  13
ENDBRANCH   5   7
BRANCH   1  20
ATOM     19  C   UNL     1       2.680   6.175  18.869  0.00  0.00    +0.000 C 
ATOM     20  C   UNL     1       2.970   5.295  17.643  0.00  0.00    +0.000 C 
BRANCH  20  21
ATOM     21  C   UNL     1       2.575   3.819  17.845  0.00  0.00    +0.000 C 
BRANCH  21  22
ATOM     22  C   UNL     1       3.164   3.150  19.045  0.00  0.00    +0.000 A 
ATOM     23  N   UNL     1       4.401   2.716  19.182  0.00  0.00    +0.000 NA
ATOM     24  N   UNL     1       4.546   2.208  20.452  0.00  0.00    +0.000 NA
ATOM     25  C   UNL     1       3.399   2.357  21.071  0.00  0.00    +0.000 A 
ATOM     26  N   UNL     1       2.495   2.918  20.222  0.00  0.00    +0.000 N 
ATOM     27  C   UNL     1       1.120   3.207  20.525  0.00  0.00    +0.000 C 
ENDBRANCH  21  22
ENDBRANCH  20  21
ENDBRANCH   1  20
TORSDOF 5
ENDMDL
