MODEL 1
REMARK VINA RESULT:      -8.6      0.000      0.000
REMARK  Name = 
REMARK  8 active torsions:
REMARK  status: ('A' for Active; 'I' for Inactive)
REMARK    1  A    between atoms: C_1  and  C_2
REMARK    2  A    between atoms: C_4  and  C_5
REMARK    3  A    between atoms: N_7  and  C_8
REMARK    4  A    between atoms: C_12  and  C_13
REMARK    5  A    between atoms: C_13  and  C_14
REMARK    6  A    between atoms: C_14  and  C_15
REMARK    7  A    between atoms: N_19  and  C_20
REMARK    8  A    between atoms: C_26  and  C_27
REMARK                            x       y       z     vdW  Elec       q    Type
REMARK                         _______ _______ _______ _____ _____    ______ ____
ROOT
ATOM      1  C   UNL     1       3.175   5.759  19.798  0.00  0.00    +0.000 A 
ATOM      2  C   UNL     1       2.888   4.418  20.050  0.00  0.00    +0.000 A 
ATOM      3  C   UNL     1       3.804   3.422  19.721  0.00  0.00    +0.000 A 
ATOM      4  C   UNL     1       5.029   3.763  19.161  0.00  0.00    +0.000 A 
ATOM      5  C   UNL     1       5.378   5.105  18.902  0.00  0.00    +0.000 A 
ATOM      6  C   UNL     1       4.396   6.083  19.192  0.00  0.00    +0.000 A 
ENDROOT
BRANCH   1   9
ATOM      7  C   UNL     1       2.066   7.947  19.394  0.00  0.00    +0.000 C 
ATOM      8  O   UNL     1       2.561   8.203  18.298  0.00  0.00    +0.000 OA
ATOM      9  N   UNL     1       2.304   6.812  20.149  0.00  0.00    +0.000 N 
ATOM     10  H   UNL     1       1.708   6.695  20.966  0.00  0.00    +0.000 HD
BRANCH   7  14
ATOM     11  C   UNL     1      -0.371   9.818  23.281  0.00  0.00    +0.000 C 
ATOM     12  C   UNL     1      -0.052   9.759  21.819  0.00  0.00    +0.000 A 
ATOM     13  C   UNL     1       0.878   8.880  21.333  0.00  0.00    +0.000 A 
ATOM     14  C   UNL     1       1.077   8.910  19.968  0.00  0.00    +0.000 A 
ATOM     15  N   UNL     1       0.431   9.743  19.115  0.00  0.00    +0.000 NA
ATOM     16  C   UNL     1      -0.465  10.577  19.682  0.00  0.00    +0.000 A 
ATOM     17  N   UNL     1      -0.721  10.599  21.011  0.00  0.00    +0.000 NA
BRANCH  16  18
ATOM     18  C   UNL     1      -1.256  11.554  18.843  0.00  0.00    +0.000 C 
ATOM     19  C   UNL     1      -2.567  11.083  18.248  0.00  0.00    +0.000 C 
ATOM     20  C   UNL     1      -2.557  12.169  19.284  0.00  0.00    +0.000 C 
ENDBRANCH  16  18
ENDBRANCH   7  14
ENDBRANCH   1   9
BRANCH   5  21
ATOM     21  C   UNL     1       6.838   5.488  18.362  0.00  0.00    +0.000 C 
ATOM     22  C   UNL     1       7.096   6.937  17.853  0.00  0.00    +0.000 C 
ATOM     23  O   UNL     1       8.328   7.011  18.625  0.00  0.00    +0.000 OA
ATOM     24  C   UNL     1       7.854   5.927  19.460  0.00  0.00    +0.000 C 
BRANCH  21  25
ATOM     25  C   UNL     1       7.418   4.399  17.446  0.00  0.00    +0.000 C 
BRANCH  25  26
ATOM     26  C   UNL     1       7.016   4.565  16.018  0.00  0.00    +0.000 A 
ATOM     27  N   UNL     1       7.657   5.279  15.112  0.00  0.00    +0.000 NA
ATOM     28  N   UNL     1       6.985   5.170  13.920  0.00  0.00    +0.000 NA
ATOM     29  C   UNL     1       5.949   4.390  14.118  0.00  0.00    +0.000 A 
ATOM     30  N   UNL     1       5.920   3.995  15.421  0.00  0.00    +0.000 N 
ATOM     31  C   UNL     1       4.927   3.140  16.010  0.00  0.00    +0.000 C 
ENDBRANCH  25  26
ENDBRANCH  21  25
ENDBRANCH   5  21
TORSDOF 6
ENDMDL
MODEL 2
REMARK VINA RESULT:      -8.3      1.273      1.440
REMARK  Name = 
REMARK  8 active torsions:
REMARK  status: ('A' for Active; 'I' for Inactive)
REMARK    1  A    between atoms: C_1  and  C_2
REMARK    2  A    between atoms: C_4  and  C_5
REMARK    3  A    between atoms: N_7  and  C_8
REMARK    4  A    between atoms: C_12  and  C_13
REMARK    5  A    between atoms: C_13  and  C_14
REMARK    6  A    between atoms: C_14  and  C_15
REMARK    7  A    between atoms: N_19  and  C_20
REMARK    8  A    between atoms: C_26  and  C_27
REMARK                            x       y       z     vdW  Elec       q    Type
REMARK                         _______ _______ _______ _____ _____    ______ ____
ROOT
ATOM      1  C   UNL     1       2.665   6.018  18.256  0.00  0.00    +0.000 A 
ATOM      2  C   UNL     1       2.071   4.807  17.901  0.00  0.00    +0.000 A 
ATOM      3  C   UNL     1       2.802   3.825  17.239  0.00  0.00    +0.000 A 
ATOM      4  C   UNL     1       4.145   4.036  16.949  0.00  0.00    +0.000 A 
ATOM      5  C   UNL     1       4.800   5.235  17.301  0.00  0.00    +0.000 A 
ATOM      6  C   UNL     1       4.007   6.233  17.918  0.00  0.00    +0.000 A 
ENDROOT
BRANCH   1   9
ATOM      7  C   UNL     1       1.823   8.339  18.547  0.00  0.00    +0.000 C 
ATOM      8  O   UNL     1       2.229   8.814  17.488  0.00  0.00    +0.000 OA
ATOM      9  N   UNL     1       1.984   7.030  18.967  0.00  0.00    +0.000 N 
ATOM     10  H   UNL     1       1.468   6.770  19.804  0.00  0.00    +0.000 HD
BRANCH   7  14
ATOM     11  C   UNL     1       0.234   9.498  23.095  0.00  0.00    +0.000 C 
ATOM     12  C   UNL     1       0.308   9.728  21.617  0.00  0.00    +0.000 A 
ATOM     13  C   UNL     1       1.057   8.915  20.811  0.00  0.00    +0.000 A 
ATOM     14  C   UNL     1       1.037   9.220  19.465  0.00  0.00    +0.000 A 
ATOM     15  N   UNL     1       0.349  10.254  18.921  0.00  0.00    +0.000 NA
ATOM     16  C   UNL     1      -0.359  11.004  19.791  0.00  0.00    +0.000 A 
ATOM     17  N   UNL     1      -0.396  10.762  21.122  0.00  0.00    +0.000 NA
BRANCH  16  18
ATOM     18  C   UNL     1      -1.173  12.184  19.314  0.00  0.00    +0.000 C 
ATOM     19  C   UNL     1      -2.564  11.919  18.776  0.00  0.00    +0.000 C 
ATOM     20  C   UNL     1      -2.383  12.710  20.039  0.00  0.00    +0.000 C 
ENDBRANCH  16  18
ENDBRANCH   7  14
ENDBRANCH   1   9
BRANCH   5  21
ATOM     21  C   UNL     1       6.374   5.416  17.063  0.00  0.00    +0.000 C 
ATOM     22  C   UNL     1       6.929   6.834  16.742  0.00  0.00    +0.000 C 
ATOM     23  O   UNL     1       7.994   6.662  17.721  0.00  0.00    +0.000 OA
ATOM     24  C   UNL     1       7.220   5.615  18.356  0.00  0.00    +0.000 C 
BRANCH  21  25
ATOM     25  C   UNL     1       6.951   4.309  16.165  0.00  0.00    +0.000 C 
BRANCH  25  26
ATOM     26  C   UNL     1       7.285   4.789  14.792  0.00  0.00    +0.000 A 
ATOM     27  N   UNL     1       8.270   5.610  14.477  0.00  0.00    +0.000 NA
ATOM     28  N   UNL     1       8.259   5.798  13.117  0.00  0.00    +0.000 NA
ATOM     29  C   UNL     1       7.272   5.087  12.627  0.00  0.00    +0.000 A 
ATOM     30  N   UNL     1       6.626   4.446  13.639  0.00  0.00    +0.000 N 
ATOM     31  C   UNL     1       5.489   3.580  13.485  0.00  0.00    +0.000 C 
ENDBRANCH  25  26
ENDBRANCH  21  25
ENDBRANCH   5  21
TORSDOF 6
ENDMDL
MODEL 3
REMARK VINA RESULT:      -8.2      1.472      1.981
REMARK  Name = 
REMARK  8 active torsions:
REMARK  status: ('A' for Active; 'I' for Inactive)
REMARK    1  A    between atoms: C_1  and  C_2
REMARK    2  A    between atoms: C_4  and  C_5
REMARK    3  A    between atoms: N_7  and  C_8
REMARK    4  A    between atoms: C_12  and  C_13
REMARK    5  A    between atoms: C_13  and  C_14
REMARK    6  A    between atoms: C_14  and  C_15
REMARK    7  A    between atoms: N_19  and  C_20
REMARK    8  A    between atoms: C_26  and  C_27
REMARK                            x       y       z     vdW  Elec       q    Type
REMARK                         _______ _______ _______ _____ _____    ______ ____
ROOT
ATOM      1  C   UNL     1       2.893   6.803  18.694  0.00  0.00    +0.000 A 
ATOM      2  C   UNL     1       2.372   5.647  19.276  0.00  0.00    +0.000 A 
ATOM      3  C   UNL     1       3.173   4.526  19.469  0.00  0.00    +0.000 A 
ATOM      4  C   UNL     1       4.515   4.561  19.104  0.00  0.00    +0.000 A 
ATOM      5  C   UNL     1       5.097   5.709  18.528  0.00  0.00    +0.000 A 
ATOM      6  C   UNL     1       4.235   6.807  18.292  0.00  0.00    +0.000 A 
ENDROOT
BRANCH   1   9
ATOM      7  C   UNL     1       1.571   8.736  19.528  0.00  0.00    +0.000 C 
ATOM      8  O   UNL     1       1.652   8.507  20.733  0.00  0.00    +0.000 OA
ATOM      9  N   UNL     1       2.138   7.982  18.515  0.00  0.00    +0.000 N 
ATOM     10  H   UNL     1       2.090   8.390  17.584  0.00  0.00    +0.000 HD
BRANCH   7  14
ATOM     11  C   UNL     1       1.355  13.652  18.941  0.00  0.00    +0.000 C 
ATOM     12  C   UNL     1       0.774  12.276  18.832  0.00  0.00    +0.000 A 
ATOM     13  C   UNL     1       1.484  11.174  19.224  0.00  0.00    +0.000 A 
ATOM     14  C   UNL     1       0.838   9.963  19.087  0.00  0.00    +0.000 A 
ATOM     15  N   UNL     1      -0.415   9.812  18.591  0.00  0.00    +0.000 NA
ATOM     16  C   UNL     1      -1.039  10.951  18.227  0.00  0.00    +0.000 A 
ATOM     17  N   UNL     1      -0.474  12.175  18.340  0.00  0.00    +0.000 NA
BRANCH  16  18
ATOM     18  C   UNL     1      -2.440  10.922  17.663  0.00  0.00    +0.000 C 
ATOM     19  C   UNL     1      -2.618  10.496  16.219  0.00  0.00    +0.000 C 
ATOM     20  C   UNL     1      -3.179   9.653  17.328  0.00  0.00    +0.000 C 
ENDBRANCH  16  18
ENDBRANCH   7  14
ENDBRANCH   1   9
BRANCH   5  21
ATOM     21  C   UNL     1       6.668   5.770  18.219  0.00  0.00    +0.000 C 
ATOM     22  C   UNL     1       7.286   7.109  17.719  0.00  0.00    +0.000 C 
ATOM     23  O   UNL     1       8.376   6.988  18.677  0.00  0.00    +0.000 OA
ATOM     24  C   UNL     1       7.573   6.067  19.454  0.00  0.00    +0.000 C 
BRANCH  21  25
ATOM     25  C   UNL     1       7.150   4.537  17.438  0.00  0.00    +0.000 C 
BRANCH  25  26
ATOM     26  C   UNL     1       6.883   4.637  15.973  0.00  0.00    +0.000 A 
ATOM     27  N   UNL     1       7.663   5.219  15.081  0.00  0.00    +0.000 NA
ATOM     28  N   UNL     1       7.081   5.087  13.845  0.00  0.00    +0.000 NA
ATOM     29  C   UNL     1       5.960   4.425  14.003  0.00  0.00    +0.000 A 
ATOM     30  N   UNL     1       5.787   4.130  15.321  0.00  0.00    +0.000 N 
ATOM     31  C   UNL     1       4.670   3.417  15.875  0.00  0.00    +0.000 C 
ENDBRANCH  25  26
ENDBRANCH  21  25
ENDBRANCH   5  21
TORSDOF 6
ENDMDL
MODEL 4
REMARK VINA RESULT:      -8.2      2.642      9.218
REMARK  Name = 
REMARK  8 active torsions:
REMARK  status: ('A' for Active; 'I' for Inactive)
REMARK    1  A    between atoms: C_1  and  C_2
REMARK    2  A    between atoms: C_4  and  C_5
REMARK    3  A    between atoms: N_7  and  C_8
REMARK    4  A    between atoms: C_12  and  C_13
REMARK    5  A    between atoms: C_13  and  C_14
REMARK    6  A    between atoms: C_14  and  C_15
REMARK    7  A    between atoms: N_19  and  C_20
REMARK    8  A    between atoms: C_26  and  C_27
REMARK                            x       y       z     vdW  Elec       q    Type
REMARK                         _______ _______ _______ _____ _____    ______ ____
ROOT
ATOM      1  C   UNL     1       1.424   8.224  20.751  0.00  0.00    +0.000 A 
ATOM      2  C   UNL     1       0.863   8.219  22.028  0.00  0.00    +0.000 A 
ATOM      3  C   UNL     1      -0.047   9.201  22.408  0.00  0.00    +0.000 A 
ATOM      4  C   UNL     1      -0.425  10.186  21.502  0.00  0.00    +0.000 A 
ATOM      5  C   UNL     1       0.099  10.227  20.193  0.00  0.00    +0.000 A 
ATOM      6  C   UNL     1       1.067   9.248  19.865  0.00  0.00    +0.000 A 
ENDROOT
BRANCH   1   9
ATOM      7  C   UNL     1       2.054   5.871  20.257  0.00  0.00    +0.000 C 
ATOM      8  O   UNL     1       1.003   5.327  20.588  0.00  0.00    +0.000 OA
ATOM      9  N   UNL     1       2.317   7.229  20.299  0.00  0.00    +0.000 N 
ATOM     10  H   UNL     1       3.187   7.522  19.860  0.00  0.00    +0.000 HD
BRANCH   7  14
ATOM     11  C   UNL     1       3.682   1.518  18.536  0.00  0.00    +0.000 C 
ATOM     12  C   UNL     1       3.880   2.954  18.911  0.00  0.00    +0.000 A 
ATOM     13  C   UNL     1       2.844   3.712  19.386  0.00  0.00    +0.000 A 
ATOM     14  C   UNL     1       3.154   5.017  19.710  0.00  0.00    +0.000 A 
ATOM     15  N   UNL     1       4.383   5.572  19.575  0.00  0.00    +0.000 NA
ATOM     16  C   UNL     1       5.343   4.753  19.096  0.00  0.00    +0.000 A 
ATOM     17  N   UNL     1       5.118   3.460  18.766  0.00  0.00    +0.000 NA
BRANCH  16  18
ATOM     18  C   UNL     1       6.757   5.246  18.901  0.00  0.00    +0.000 C 
ATOM     19  C   UNL     1       7.442   4.943  17.583  0.00  0.00    +0.000 C 
ATOM     20  C   UNL     1       7.130   6.362  17.961  0.00  0.00    +0.000 C 
ENDBRANCH  16  18
ENDBRANCH   7  14
ENDBRANCH   1   9
BRANCH   5  21
ATOM     21  C   UNL     1      -0.433  11.299  19.126  0.00  0.00    +0.000 C 
ATOM     22  C   UNL     1      -1.301  10.806  17.931  0.00  0.00    +0.000 C 
ATOM     23  O   UNL     1      -2.263  11.875  18.161  0.00  0.00    +0.000 OA
ATOM     24  C   UNL     1      -1.763  12.014  19.514  0.00  0.00    +0.000 C 
BRANCH  21  25
ATOM     25  C   UNL     1       0.661  12.302  18.723  0.00  0.00    +0.000 C 
BRANCH  25  26
ATOM     26  C   UNL     1       1.029  13.236  19.828  0.00  0.00    +0.000 A 
ATOM     27  N   UNL     1       1.768  12.937  20.879  0.00  0.00    +0.000 NA
ATOM     28  N   UNL     1       1.892  14.064  21.655  0.00  0.00    +0.000 NA
ATOM     29  C   UNL     1       1.230  15.028  21.062  0.00  0.00    +0.000 A 
ATOM     30  N   UNL     1       0.663  14.555  19.919  0.00  0.00    +0.000 N 
ATOM     31  C   UNL     1      -0.144  15.322  19.010  0.00  0.00    +0.000 C 
ENDBRANCH  25  26
ENDBRANCH  21  25
ENDBRANCH   5  21
TORSDOF 6
ENDMDL
MODEL 5
REMARK VINA RESULT:      -8.1      1.818      2.394
REMARK  Name = 
REMARK  8 active torsions:
REMARK  status: ('A' for Active; 'I' for Inactive)
REMARK    1  A    between atoms: C_1  and  C_2
REMARK    2  A    between atoms: C_4  and  C_5
REMARK    3  A    between atoms: N_7  and  C_8
REMARK    4  A    between atoms: C_12  and  C_13
REMARK    5  A    between atoms: C_13  and  C_14
REMARK    6  A    between atoms: C_14  and  C_15
REMARK    7  A    between atoms: N_19  and  C_20
REMARK    8  A    between atoms: C_26  and  C_27
REMARK                            x       y       z     vdW  Elec       q    Type
REMARK                         _______ _______ _______ _____ _____    ______ ____
ROOT
ATOM      1  C   UNL     1       2.626   6.127  18.367  0.00  0.00    +0.000 A 
ATOM      2  C   UNL     1       1.933   4.919  18.287  0.00  0.00    +0.000 A 
ATOM      3  C   UNL     1       2.450   3.850  17.561  0.00  0.00    +0.000 A 
ATOM      4  C   UNL     1       3.682   3.972  16.928  0.00  0.00    +0.000 A 
ATOM      5  C   UNL     1       4.432   5.165  16.991  0.00  0.00    +0.000 A 
ATOM      6  C   UNL     1       3.845   6.248  17.687  0.00  0.00    +0.000 A 
ENDROOT
BRANCH   1   9
ATOM      7  C   UNL     1       1.832   8.470  18.615  0.00  0.00    +0.000 C 
ATOM      8  O   UNL     1       1.860   8.799  17.431  0.00  0.00    +0.000 OA
ATOM      9  N   UNL     1       2.170   7.228  19.123  0.00  0.00    +0.000 N 
ATOM     10  H   UNL     1       1.959   7.084  20.109  0.00  0.00    +0.000 HD
BRANCH   7  14
ATOM     11  C   UNL     1       0.061   9.549  23.116  0.00  0.00    +0.000 C 
ATOM     12  C   UNL     1       0.513   9.934  21.741  0.00  0.00    +0.000 A 
ATOM     13  C   UNL     1       0.972   8.994  20.858  0.00  0.00    +0.000 A 
ATOM     14  C   UNL     1       1.349   9.469  19.618  0.00  0.00    +0.000 A 
ATOM     15  N   UNL     1       1.301  10.772  19.246  0.00  0.00    +0.000 NA
ATOM     16  C   UNL     1       0.839  11.628  20.181  0.00  0.00    +0.000 A 
ATOM     17  N   UNL     1       0.442  11.237  21.414  0.00  0.00    +0.000 NA
BRANCH  16  18
ATOM     18  C   UNL     1       0.732  13.107  19.893  0.00  0.00    +0.000 C 
ATOM     19  C   UNL     1      -0.384  13.576  18.981  0.00  0.00    +0.000 C 
ATOM     20  C   UNL     1      -0.372  13.982  20.426  0.00  0.00    +0.000 C 
ENDBRANCH  16  18
ENDBRANCH   7  14
ENDBRANCH   1   9
BRANCH   5  21
ATOM     21  C   UNL     1       5.900   5.250  16.353  0.00  0.00    +0.000 C 
ATOM     22  C   UNL     1       7.077   5.756  17.237  0.00  0.00    +0.000 C 
ATOM     23  O   UNL     1       7.912   4.647  16.798  0.00  0.00    +0.000 OA
ATOM     24  C   UNL     1       6.720   3.925  16.402  0.00  0.00    +0.000 C 
BRANCH  21  25
ATOM     25  C   UNL     1       5.881   5.860  14.942  0.00  0.00    +0.000 C 
BRANCH  25  26
ATOM     26  C   UNL     1       6.054   4.840  13.866  0.00  0.00    +0.000 A 
ATOM     27  N   UNL     1       5.195   3.887  13.557  0.00  0.00    +0.000 NA
ATOM     28  N   UNL     1       5.707   3.167  12.506  0.00  0.00    +0.000 NA
ATOM     29  C   UNL     1       6.865   3.695  12.191  0.00  0.00    +0.000 A 
ATOM     30  N   UNL     1       7.131   4.740  13.022  0.00  0.00    +0.000 N 
ATOM     31  C   UNL     1       8.313   5.556  12.982  0.00  0.00    +0.000 C 
ENDBRANCH  25  26
ENDBRANCH  21  25
ENDBRANCH   5  21
TORSDOF 6
ENDMDL
MODEL 6
REMARK VINA RESULT:      -8.1      2.581      9.271
REMARK  Name = 
REMARK  8 active torsions:
REMARK  status: ('A' for Active; 'I' for Inactive)
REMARK    1  A    between atoms: C_1  and  C_2
REMARK    2  A    between atoms: C_4  and  C_5
REMARK    3  A    between atoms: N_7  and  C_8
REMARK    4  A    between atoms: C_12  and  C_13
REMARK    5  A    between atoms: C_13  and  C_14
REMARK    6  A    between atoms: C_14  and  C_15
REMARK    7  A    between atoms: N_19  and  C_20
REMARK    8  A    between atoms: C_26  and  C_27
REMARK                            x       y       z     vdW  Elec       q    Type
REMARK                         _______ _______ _______ _____ _____    ______ ____
ROOT
ATOM      1  C   UNL     1       1.363   8.463  20.526  0.00  0.00    +0.000 A 
ATOM      2  C   UNL     1       0.878   8.445  21.834  0.00  0.00    +0.000 A 
ATOM      3  C   UNL     1       0.006   9.433  22.282  0.00  0.00    +0.000 A 
ATOM      4  C   UNL     1      -0.411  10.436  21.414  0.00  0.00    +0.000 A 
ATOM      5  C   UNL     1       0.033  10.491  20.077  0.00  0.00    +0.000 A 
ATOM      6  C   UNL     1       0.967   9.505  19.678  0.00  0.00    +0.000 A 
ENDROOT
BRANCH   1   9
ATOM      7  C   UNL     1       2.046   6.100  20.171  0.00  0.00    +0.000 C 
ATOM      8  O   UNL     1       1.128   5.551  20.775  0.00  0.00    +0.000 OA
ATOM      9  N   UNL     1       2.213   7.464  20.007  0.00  0.00    +0.000 N 
ATOM     10  H   UNL     1       2.951   7.742  19.363  0.00  0.00    +0.000 HD
BRANCH   7  14
ATOM     11  C   UNL     1       3.563   1.663  18.565  0.00  0.00    +0.000 C 
ATOM     12  C   UNL     1       3.747   3.136  18.764  0.00  0.00    +0.000 A 
ATOM     13  C   UNL     1       2.779   3.897  19.361  0.00  0.00    +0.000 A 
ATOM     14  C   UNL     1       3.069   5.239  19.500  0.00  0.00    +0.000 A 
ATOM     15  N   UNL     1       4.217   5.824  19.080  0.00  0.00    +0.000 NA
ATOM     16  C   UNL     1       5.114   5.000  18.500  0.00  0.00    +0.000 A 
ATOM     17  N   UNL     1       4.904   3.672  18.337  0.00  0.00    +0.000 NA
BRANCH  16  18
ATOM     18  C   UNL     1       6.436   5.524  17.991  0.00  0.00    +0.000 C 
ATOM     19  C   UNL     1       7.587   5.625  18.971  0.00  0.00    +0.000 C 
ATOM     20  C   UNL     1       7.662   4.668  17.817  0.00  0.00    +0.000 C 
ENDBRANCH  16  18
ENDBRANCH   7  14
ENDBRANCH   1   9
BRANCH   5  21
ATOM     21  C   UNL     1      -0.546  11.586  19.060  0.00  0.00    +0.000 C 
ATOM     22  C   UNL     1      -1.278  12.834  19.634  0.00  0.00    +0.000 C 
ATOM     23  O   UNL     1      -0.516  13.711  18.756  0.00  0.00    +0.000 OA
ATOM     24  C   UNL     1       0.477  12.668  18.601  0.00  0.00    +0.000 C 
BRANCH  21  25
ATOM     25  C   UNL     1      -1.270  10.939  17.868  0.00  0.00    +0.000 C 
BRANCH  25  26
ATOM     26  C   UNL     1      -2.730  11.246  17.838  0.00  0.00    +0.000 A 
ATOM     27  N   UNL     1      -3.468  11.602  18.873  0.00  0.00    +0.000 NA
ATOM     28  N   UNL     1      -4.753  11.811  18.437  0.00  0.00    +0.000 NA
ATOM     29  C   UNL     1      -4.776  11.583  17.146  0.00  0.00    +0.000 A 
ATOM     30  N   UNL     1      -3.534  11.216  16.727  0.00  0.00    +0.000 N 
ATOM     31  C   UNL     1      -3.176  10.881  15.376  0.00  0.00    +0.000 C 
ENDBRANCH  25  26
ENDBRANCH  21  25
ENDBRANCH   5  21
TORSDOF 6
ENDMDL
MODEL 7
REMARK VINA RESULT:      -8.1      2.754      8.898
REMARK  Name = 
REMARK  8 active torsions:
REMARK  status: ('A' for Active; 'I' for Inactive)
REMARK    1  A    between atoms: C_1  and  C_2
REMARK    2  A    between atoms: C_4  and  C_5
REMARK    3  A    between atoms: N_7  and  C_8
REMARK    4  A    between atoms: C_12  and  C_13
REMARK    5  A    between atoms: C_13  and  C_14
REMARK    6  A    between atoms: C_14  and  C_15
REMARK    7  A    between atoms: N_19  and  C_20
REMARK    8  A    between atoms: C_26  and  C_27
REMARK                            x       y       z     vdW  Elec       q    Type
REMARK                         _______ _______ _______ _____ _____    ______ ____
ROOT
ATOM      1  C   UNL     1       0.258   9.148  21.554  0.00  0.00    +0.000 A 
ATOM      2  C   UNL     1      -0.112   9.445  22.866  0.00  0.00    +0.000 A 
ATOM      3  C   UNL     1      -0.793  10.622  23.162  0.00  0.00    +0.000 A 
ATOM      4  C   UNL     1      -1.134  11.502  22.141  0.00  0.00    +0.000 A 
ATOM      5  C   UNL     1      -0.800  11.242  20.796  0.00  0.00    +0.000 A 
ATOM      6  C   UNL     1      -0.054  10.066  20.543  0.00  0.00    +0.000 A 
ENDROOT
BRANCH   1   9
ATOM      7  C   UNL     1       1.706   7.774  20.073  0.00  0.00    +0.000 C 
ATOM      8  O   UNL     1       1.981   8.633  19.238  0.00  0.00    +0.000 OA
ATOM      9  N   UNL     1       0.911   7.950  21.191  0.00  0.00    +0.000 N 
ATOM     10  H   UNL     1       0.899   7.174  21.849  0.00  0.00    +0.000 HD
BRANCH   7  14
ATOM     11  C   UNL     1       2.047   3.024  21.446  0.00  0.00    +0.000 C 
ATOM     12  C   UNL     1       2.445   4.191  20.596  0.00  0.00    +0.000 A 
ATOM     13  C   UNL     1       1.852   5.415  20.750  0.00  0.00    +0.000 A 
ATOM     14  C   UNL     1       2.312   6.415  19.918  0.00  0.00    +0.000 A 
ATOM     15  N   UNL     1       3.277   6.251  18.980  0.00  0.00    +0.000 NA
ATOM     16  C   UNL     1       3.803   5.012  18.895  0.00  0.00    +0.000 A 
ATOM     17  N   UNL     1       3.411   3.984  19.683  0.00  0.00    +0.000 NA
BRANCH  16  18
ATOM     18  C   UNL     1       4.890   4.697  17.894  0.00  0.00    +0.000 C 
ATOM     19  C   UNL     1       4.476   4.145  16.544  0.00  0.00    +0.000 C 
ATOM     20  C   UNL     1       5.125   5.496  16.640  0.00  0.00    +0.000 C 
ENDBRANCH  16  18
ENDBRANCH   7  14
ENDBRANCH   1   9
BRANCH   5  21
ATOM     21  C   UNL     1      -1.300  12.210  19.620  0.00  0.00    +0.000 C 
ATOM     22  C   UNL     1      -1.021  13.737  19.731  0.00  0.00    +0.000 C 
ATOM     23  O   UNL     1      -0.543  13.772  18.356  0.00  0.00    +0.000 OA
ATOM     24  C   UNL     1      -0.324  12.341  18.412  0.00  0.00    +0.000 C 
BRANCH  21  25
ATOM     25  C   UNL     1      -2.731  11.875  19.168  0.00  0.00    +0.000 C 
BRANCH  25  26
ATOM     26  C   UNL     1      -2.772  11.116  17.883  0.00  0.00    +0.000 A 
ATOM     27  N   UNL     1      -1.857  10.265  17.457  0.00  0.00    +0.000 NA
ATOM     28  N   UNL     1      -2.263   9.764  16.245  0.00  0.00    +0.000 NA
ATOM     29  C   UNL     1      -3.416  10.316  15.954  0.00  0.00    +0.000 A 
ATOM     30  N   UNL     1      -3.772  11.178  16.946  0.00  0.00    +0.000 N 
ATOM     31  C   UNL     1      -4.971  11.969  16.972  0.00  0.00    +0.000 C 
ENDBRANCH  25  26
ENDBRANCH  21  25
ENDBRANCH   5  21
TORSDOF 6
ENDMDL
MODEL 8
REMARK VINA RESULT:      -8.0      1.634      1.751
REMARK  Name = 
REMARK  8 active torsions:
REMARK  status: ('A' for Active; 'I' for Inactive)
REMARK    1  A    between atoms: C_1  and  C_2
REMARK    2  A    between atoms: C_4  and  C_5
REMARK    3  A    between atoms: N_7  and  C_8
REMARK    4  A    between atoms: C_12  and  C_13
REMARK    5  A    between atoms: C_13  and  C_14
REMARK    6  A    between atoms: C_14  and  C_15
REMARK    7  A    between atoms: N_19  and  C_20
REMARK    8  A    between atoms: C_26  and  C_27
REMARK                            x       y       z     vdW  Elec       q    Type
REMARK                         _______ _______ _______ _____ _____    ______ ____
ROOT
ATOM      1  C   UNL     1       2.649   6.562  18.520  0.00  0.00    +0.000 A 
ATOM      2  C   UNL     1       1.908   5.435  18.164  0.00  0.00    +0.000 A 
ATOM      3  C   UNL     1       2.514   4.361  17.520  0.00  0.00    +0.000 A 
ATOM      4  C   UNL     1       3.878   4.393  17.249  0.00  0.00    +0.000 A 
ATOM      5  C   UNL     1       4.677   5.500  17.603  0.00  0.00    +0.000 A 
ATOM      6  C   UNL     1       4.013   6.598  18.200  0.00  0.00    +0.000 A 
ENDROOT
BRANCH   1   9
ATOM      7  C   UNL     1       1.724   8.866  18.643  0.00  0.00    +0.000 C 
ATOM      8  O   UNL     1       1.800   9.158  17.452  0.00  0.00    +0.000 OA
ATOM      9  N   UNL     1       2.096   7.661  19.212  0.00  0.00    +0.000 N 
ATOM     10  H   UNL     1       1.839   7.537  20.189  0.00  0.00    +0.000 HD
BRANCH   7  14
ATOM     11  C   UNL     1      -0.623   9.954  22.870  0.00  0.00    +0.000 C 
ATOM     12  C   UNL     1       0.026  10.338  21.577  0.00  0.00    +0.000 A 
ATOM     13  C   UNL     1       0.576   9.394  20.753  0.00  0.00    +0.000 A 
ATOM     14  C   UNL     1       1.135   9.869  19.584  0.00  0.00    +0.000 A 
ATOM     15  N   UNL     1       1.176  11.177  19.227  0.00  0.00    +0.000 NA
ATOM     16  C   UNL     1       0.613  12.037  20.100  0.00  0.00    +0.000 A 
ATOM     17  N   UNL     1       0.039  11.646  21.261  0.00  0.00    +0.000 NA
BRANCH  16  18
ATOM     18  C   UNL     1       0.589  13.522  19.821  0.00  0.00    +0.000 C 
ATOM     19  C   UNL     1      -0.510  14.061  18.928  0.00  0.00    +0.000 C 
ATOM     20  C   UNL     1      -0.452  14.457  20.375  0.00  0.00    +0.000 C 
ENDBRANCH  16  18
ENDBRANCH   7  14
ENDBRANCH   1   9
BRANCH   5  21
ATOM     21  C   UNL     1       6.265   5.472  17.386  0.00  0.00    +0.000 C 
ATOM     22  C   UNL     1       7.007   6.807  17.084  0.00  0.00    +0.000 C 
ATOM     23  O   UNL     1       8.025   6.490  18.076  0.00  0.00    +0.000 OA
ATOM     24  C   UNL     1       7.112   5.551  18.693  0.00  0.00    +0.000 C 
BRANCH  21  25
ATOM     25  C   UNL     1       6.704   4.304  16.488  0.00  0.00    +0.000 C 
BRANCH  25  26
ATOM     26  C   UNL     1       7.080   4.740  15.111  0.00  0.00    +0.000 A 
ATOM     27  N   UNL     1       8.115   5.495  14.793  0.00  0.00    +0.000 NA
ATOM     28  N   UNL     1       8.129   5.659  13.430  0.00  0.00    +0.000 NA
ATOM     29  C   UNL     1       7.107   4.999  12.941  0.00  0.00    +0.000 A 
ATOM     30  N   UNL     1       6.413   4.415  13.956  0.00  0.00    +0.000 N 
ATOM     31  C   UNL     1       5.229   3.615  13.805  0.00  0.00    +0.000 C 
ENDBRANCH  25  26
ENDBRANCH  21  25
ENDBRANCH   5  21
TORSDOF 6
ENDMDL
MODEL 9
REMARK VINA RESULT:      -8.0      3.239      8.959
REMARK  Name = 
REMARK  8 active torsions:
REMARK  status: ('A' for Active; 'I' for Inactive)
REMARK    1  A    between atoms: C_1  and  C_2
REMARK    2  A    between atoms: C_4  and  C_5
REMARK    3  A    between atoms: N_7  and  C_8
REMARK    4  A    between atoms: C_12  and  C_13
REMARK    5  A    between atoms: C_13  and  C_14
REMARK    6  A    between atoms: C_14  and  C_15
REMARK    7  A    between atoms: N_19  and  C_20
REMARK    8  A    between atoms: C_26  and  C_27
REMARK                            x       y       z     vdW  Elec       q    Type
REMARK                         _______ _______ _______ _____ _____    ______ ____
ROOT
ATOM      1  C   UNL     1       0.697   9.099  21.558  0.00  0.00    +0.000 A 
ATOM      2  C   UNL     1      -0.146   9.273  22.656  0.00  0.00    +0.000 A 
ATOM      3  C   UNL     1      -0.743  10.505  22.906  0.00  0.00    +0.000 A 
ATOM      4  C   UNL     1      -0.521  11.571  22.041  0.00  0.00    +0.000 A 
ATOM      5  C   UNL     1       0.308  11.445  20.906  0.00  0.00    +0.000 A 
ATOM      6  C   UNL     1       0.945  10.195  20.722  0.00  0.00    +0.000 A 
ENDROOT
BRANCH   1   9
ATOM      7  C   UNL     1       1.851   7.534  20.011  0.00  0.00    +0.000 C 
ATOM      8  O   UNL     1       1.930   8.271  19.030  0.00  0.00    +0.000 OA
ATOM      9  N   UNL     1       1.293   7.862  21.234  0.00  0.00    +0.000 N 
ATOM     10  H   UNL     1       1.434   7.182  21.978  0.00  0.00    +0.000 HD
BRANCH   7  14
ATOM     11  C   UNL     1       2.061   2.814  21.507  0.00  0.00    +0.000 C 
ATOM     12  C   UNL     1       2.517   3.956  20.653  0.00  0.00    +0.000 A 
ATOM     13  C   UNL     1       1.932   5.190  20.749  0.00  0.00    +0.000 A 
ATOM     14  C   UNL     1       2.447   6.164  19.919  0.00  0.00    +0.000 A 
ATOM     15  N   UNL     1       3.458   5.968  19.037  0.00  0.00    +0.000 NA
ATOM     16  C   UNL     1       3.973   4.722  19.009  0.00  0.00    +0.000 A 
ATOM     17  N   UNL     1       3.527   3.717  19.798  0.00  0.00    +0.000 NA
BRANCH  16  18
ATOM     18  C   UNL     1       5.106   4.371  18.074  0.00  0.00    +0.000 C 
ATOM     19  C   UNL     1       4.764   4.017  16.641  0.00  0.00    +0.000 C 
ATOM     20  C   UNL     1       5.557   5.255  16.941  0.00  0.00    +0.000 C 
ENDBRANCH  16  18
ENDBRANCH   7  14
ENDBRANCH   1   9
BRANCH   5  21
ATOM     21  C   UNL     1       0.460  12.649  19.859  0.00  0.00    +0.000 C 
ATOM     22  C   UNL     1      -0.563  12.766  18.692  0.00  0.00    +0.000 C 
ATOM     23  O   UNL     1      -0.732  14.188  18.954  0.00  0.00    +0.000 OA
ATOM     24  C   UNL     1      -0.209  13.989  20.290  0.00  0.00    +0.000 C 
BRANCH  21  25
ATOM     25  C   UNL     1       1.921  12.851  19.423  0.00  0.00    +0.000 C 
BRANCH  25  26
ATOM     26  C   UNL     1       2.680  13.755  20.337  0.00  0.00    +0.000 A 
ATOM     27  N   UNL     1       3.085  13.459  21.558  0.00  0.00    +0.000 NA
ATOM     28  N   UNL     1       3.761  14.542  22.064  0.00  0.00    +0.000 NA
ATOM     29  C   UNL     1       3.758  15.476  21.145  0.00  0.00    +0.000 A 
ATOM     30  N   UNL     1       3.084  15.034  20.048  0.00  0.00    +0.000 N 
ATOM     31  C   UNL     1       2.870  15.786  18.842  0.00  0.00    +0.000 C 
ENDBRANCH  25  26
ENDBRANCH  21  25
ENDBRANCH   5  21
TORSDOF 6
ENDMDL
