MODEL 1
REMARK VINA RESULT:      -9.1      0.000      0.000
REMARK  Name = 
REMARK  8 active torsions:
REMARK  status: ('A' for Active; 'I' for Inactive)
REMARK    1  A    between atoms: C_1  and  C_2
REMARK    2  A    between atoms: C_2  and  C_3
REMARK    3  A    between atoms: C_2  and  C_11
REMARK    4  A    between atoms: C_3  and  C_4
REMARK    5  A    between atoms: C_8  and  C_9
REMARK    6  A    between atoms: C_9  and  O_10
REMARK    7  A    between atoms: C_15  and  N_16
REMARK    8  A    between atoms: C_23  and  C_24
REMARK                            x       y       z     vdW  Elec       q    Type
REMARK                         _______ _______ _______ _____ _____    ______ ____
ROOT
ATOM      1  C   UNL     1       4.542   5.655  17.586  0.00  0.00    +0.000 A 
ATOM      2  C   UNL     1       4.109   4.434  18.105  0.00  0.00    +0.000 A 
ATOM      3  C   UNL     1       3.003   4.373  18.963  0.00  0.00    +0.000 A 
ATOM      4  C   UNL     1       2.293   5.529  19.312  0.00  0.00    +0.000 A 
ATOM      5  C   UNL     1       2.699   6.766  18.824  0.00  0.00    +0.000 A 
ATOM      6  C   UNL     1       3.840   6.802  17.993  0.00  0.00    +0.000 A 
ENDROOT
BRANCH   5   7
ATOM      7  N   UNL     1       2.018   7.979  19.109  0.00  0.00    +0.000 N 
ATOM      8  C   UNL     1       1.438   8.181  20.419  0.00  0.00    +0.000 C 
ATOM      9  C   UNL     1       0.818   9.524  20.346  0.00  0.00    +0.000 A 
ATOM     10  C   UNL     1       1.074  10.088  19.100  0.00  0.00    +0.000 A 
ATOM     11  C   UNL     1       0.639  11.361  18.787  0.00  0.00    +0.000 A 
ATOM     12  C   UNL     1      -0.076  12.062  19.768  0.00  0.00    +0.000 A 
ATOM     13  C   UNL     1      -0.352  11.480  21.022  0.00  0.00    +0.000 A 
ATOM     14  C   UNL     1       0.092  10.186  21.332  0.00  0.00    +0.000 A 
ATOM     15  C   UNL     1       1.835   9.102  18.293  0.00  0.00    +0.000 C 
ATOM     16  O   UNL     1       2.189   9.318  17.150  0.00  0.00    +0.000 OA
BRANCH  14  17
ATOM     17  C   UNL     1      -0.216   9.547  22.664  0.00  0.00    +0.000 C 
ATOM     18  F   UNL     1      -0.967  10.332  23.488  0.00  0.00    +0.000 F 
ATOM     19  F   UNL     1      -0.908   8.384  22.538  0.00  0.00    +0.000 F 
ATOM     20  F   UNL     1       0.908   9.249  23.370  0.00  0.00    +0.000 F 
ENDBRANCH  14  17
ENDBRANCH   5   7
BRANCH   1  22
ATOM     21  C   UNL     1       7.021   6.282  17.328  0.00  0.00    +0.000 C 
ATOM     22  C   UNL     1       5.731   5.829  16.630  0.00  0.00    +0.000 C 
BRANCH  22  23
ATOM     23  C   UNL     1       5.975   4.532  15.810  0.00  0.00    +0.000 C 
BRANCH  23  24
ATOM     24  C   UNL     1       6.731   4.721  14.529  0.00  0.00    +0.000 A 
ATOM     25  N   UNL     1       7.796   5.534  14.481  0.00  0.00    +0.000 NA
ATOM     26  N   UNL     1       8.195   5.479  13.202  0.00  0.00    +0.000 N 
ATOM     27  C   UNL     1       7.421   4.667  12.427  0.00  0.00    +0.000 A 
ATOM     28  C   UNL     1       6.443   4.156  13.254  0.00  0.00    +0.000 A 
ATOM     29  H   UNL     1       9.001   6.030  12.925  0.00  0.00    +0.000 HD
BRANCH  28  30
ATOM     30  C   UNL     1       5.333   3.238  12.897  0.00  0.00    +0.000 C 
BRANCH  30  31
ATOM     31  O   UNL     1       4.771   3.566  11.632  0.00  0.00    +0.000 OA
ATOM     32  H   UNL     1       4.574   4.518  11.658  0.00  0.00    +0.000 HD
ENDBRANCH  30  31
ENDBRANCH  28  30
ENDBRANCH  23  24
ENDBRANCH  22  23
ENDBRANCH   1  22
TORSDOF 7
ENDMDL
MODEL 2
REMARK VINA RESULT:      -9.1      2.314      3.220
REMARK  Name = 
REMARK  8 active torsions:
REMARK  status: ('A' for Active; 'I' for Inactive)
REMARK    1  A    between atoms: C_1  and  C_2
REMARK    2  A    between atoms: C_2  and  C_3
REMARK    3  A    between atoms: C_2  and  C_11
REMARK    4  A    between atoms: C_3  and  C_4
REMARK    5  A    between atoms: C_8  and  C_9
REMARK    6  A    between atoms: C_9  and  O_10
REMARK    7  A    between atoms: C_15  and  N_16
REMARK    8  A    between atoms: C_23  and  C_24
REMARK                            x       y       z     vdW  Elec       q    Type
REMARK                         _______ _______ _______ _____ _____    ______ ____
ROOT
ATOM      1  C   UNL     1       4.419   4.983  18.306  0.00  0.00    +0.000 A 
ATOM      2  C   UNL     1       3.945   3.868  19.000  0.00  0.00    +0.000 A 
ATOM      3  C   UNL     1       2.851   3.978  19.867  0.00  0.00    +0.000 A 
ATOM      4  C   UNL     1       2.192   5.201  20.051  0.00  0.00    +0.000 A 
ATOM      5  C   UNL     1       2.640   6.336  19.385  0.00  0.00    +0.000 A 
ATOM      6  C   UNL     1       3.769   6.204  18.548  0.00  0.00    +0.000 A 
ENDROOT
BRANCH   5   7
ATOM      7  N   UNL     1       2.013   7.605  19.497  0.00  0.00    +0.000 N 
ATOM      8  C   UNL     1       1.389   7.985  20.745  0.00  0.00    +0.000 C 
ATOM      9  C   UNL     1       0.844   9.339  20.490  0.00  0.00    +0.000 A 
ATOM     10  C   UNL     1       1.182   9.741  19.201  0.00  0.00    +0.000 A 
ATOM     11  C   UNL     1       0.828  10.988  18.725  0.00  0.00    +0.000 A 
ATOM     12  C   UNL     1       0.110  11.832  19.584  0.00  0.00    +0.000 A 
ATOM     13  C   UNL     1      -0.249  11.413  20.882  0.00  0.00    +0.000 A 
ATOM     14  C   UNL     1       0.113  10.144  21.358  0.00  0.00    +0.000 A 
ATOM     15  C   UNL     1       1.924   8.633  18.550  0.00  0.00    +0.000 C 
ATOM     16  O   UNL     1       2.337   8.698  17.408  0.00  0.00    +0.000 OA
BRANCH  14  17
ATOM     17  C   UNL     1      -0.284   9.680  22.738  0.00  0.00    +0.000 C 
ATOM     18  F   UNL     1      -1.062  10.573  23.414  0.00  0.00    +0.000 F 
ATOM     19  F   UNL     1      -0.996   8.522  22.715  0.00  0.00    +0.000 F 
ATOM     20  F   UNL     1       0.790   9.453  23.540  0.00  0.00    +0.000 F 
ENDBRANCH  14  17
ENDBRANCH   5   7
BRANCH   1  22
ATOM     21  C   UNL     1       5.461   3.917  16.211  0.00  0.00    +0.000 C 
ATOM     22  C   UNL     1       5.600   4.966  17.324  0.00  0.00    +0.000 C 
BRANCH  22  23
ATOM     23  C   UNL     1       5.838   6.379  16.722  0.00  0.00    +0.000 C 
BRANCH  23  24
ATOM     24  C   UNL     1       6.881   7.201  17.418  0.00  0.00    +0.000 A 
ATOM     25  N   UNL     1       7.054   8.492  17.101  0.00  0.00    +0.000 NA
ATOM     26  N   UNL     1       8.063   8.892  17.887  0.00  0.00    +0.000 N 
ATOM     27  C   UNL     1       8.548   7.904  18.692  0.00  0.00    +0.000 A 
ATOM     28  C   UNL     1       7.808   6.775  18.411  0.00  0.00    +0.000 A 
ATOM     29  H   UNL     1       8.377   9.855  17.816  0.00  0.00    +0.000 HD
BRANCH  28  30
ATOM     30  C   UNL     1       7.953   5.419  18.997  0.00  0.00    +0.000 C 
BRANCH  30  31
ATOM     31  O   UNL     1       7.819   5.444  20.412  0.00  0.00    +0.000 OA
ATOM     32  H   UNL     1       7.687   4.523  20.691  0.00  0.00    +0.000 HD
ENDBRANCH  30  31
ENDBRANCH  28  30
ENDBRANCH  23  24
ENDBRANCH  22  23
ENDBRANCH   1  22
TORSDOF 7
ENDMDL
MODEL 3
REMARK VINA RESULT:      -8.9      4.172      8.871
REMARK  Name = 
REMARK  8 active torsions:
REMARK  status: ('A' for Active; 'I' for Inactive)
REMARK    1  A    between atoms: C_1  and  C_2
REMARK    2  A    between atoms: C_2  and  C_3
REMARK    3  A    between atoms: C_2  and  C_11
REMARK    4  A    between atoms: C_3  and  C_4
REMARK    5  A    between atoms: C_8  and  C_9
REMARK    6  A    between atoms: C_9  and  O_10
REMARK    7  A    between atoms: C_15  and  N_16
REMARK    8  A    between atoms: C_23  and  C_24
REMARK                            x       y       z     vdW  Elec       q    Type
REMARK                         _______ _______ _______ _____ _____    ______ ____
ROOT
ATOM      1  C   UNL     1      -0.528  10.756  20.494  0.00  0.00    +0.000 A 
ATOM      2  C   UNL     1      -0.459  10.940  21.876  0.00  0.00    +0.000 A 
ATOM      3  C   UNL     1       0.269  10.052  22.679  0.00  0.00    +0.000 A 
ATOM      4  C   UNL     1       0.959   8.969  22.120  0.00  0.00    +0.000 A 
ATOM      5  C   UNL     1       0.906   8.747  20.749  0.00  0.00    +0.000 A 
ATOM      6  C   UNL     1       0.134   9.634  19.969  0.00  0.00    +0.000 A 
ENDROOT
BRANCH   5   7
ATOM      7  N   UNL     1       1.598   7.689  20.102  0.00  0.00    +0.000 N 
ATOM      8  C   UNL     1       1.519   6.349  20.642  0.00  0.00    +0.000 C 
ATOM      9  C   UNL     1       2.353   5.532  19.731  0.00  0.00    +0.000 A 
ATOM     10  C   UNL     1       2.834   6.332  18.698  0.00  0.00    +0.000 A 
ATOM     11  C   UNL     1       3.609   5.802  17.685  0.00  0.00    +0.000 A 
ATOM     12  C   UNL     1       3.899   4.431  17.738  0.00  0.00    +0.000 A 
ATOM     13  C   UNL     1       3.428   3.629  18.797  0.00  0.00    +0.000 A 
ATOM     14  C   UNL     1       2.642   4.174  19.824  0.00  0.00    +0.000 A 
ATOM     15  C   UNL     1       2.365   7.720  18.930  0.00  0.00    +0.000 C 
ATOM     16  O   UNL     1       2.643   8.643  18.189  0.00  0.00    +0.000 OA
BRANCH  14  17
ATOM     17  C   UNL     1       2.150   3.327  20.971  0.00  0.00    +0.000 C 
ATOM     18  F   UNL     1       2.468   3.829  22.198  0.00  0.00    +0.000 F 
ATOM     19  F   UNL     1       0.798   3.186  20.975  0.00  0.00    +0.000 F 
ATOM     20  F   UNL     1       2.665   2.069  20.947  0.00  0.00    +0.000 F 
ENDBRANCH  14  17
ENDBRANCH   5   7
BRANCH   1  22
ATOM     21  C   UNL     1      -0.372  12.626  18.737  0.00  0.00    +0.000 C 
ATOM     22  C   UNL     1      -1.285  11.677  19.525  0.00  0.00    +0.000 C 
BRANCH  22  23
ATOM     23  C   UNL     1      -2.180  10.849  18.561  0.00  0.00    +0.000 C 
BRANCH  23  24
ATOM     24  C   UNL     1      -3.492  11.483  18.207  0.00  0.00    +0.000 A 
ATOM     25  N   UNL     1      -4.191  12.161  19.128  0.00  0.00    +0.000 NA
ATOM     26  N   UNL     1      -5.295  12.557  18.478  0.00  0.00    +0.000 N 
ATOM     27  C   UNL     1      -5.333  12.152  17.177  0.00  0.00    +0.000 A 
ATOM     28  C   UNL     1      -4.175  11.437  16.958  0.00  0.00    +0.000 A 
ATOM     29  H   UNL     1      -5.987  13.096  18.989  0.00  0.00    +0.000 HD
BRANCH  28  30
ATOM     30  C   UNL     1      -3.742  10.757  15.711  0.00  0.00    +0.000 C 
BRANCH  30  31
ATOM     31  O   UNL     1      -2.431  11.154  15.329  0.00  0.00    +0.000 OA
ATOM     32  H   UNL     1      -1.876  10.358  15.385  0.00  0.00    +0.000 HD
ENDBRANCH  30  31
ENDBRANCH  28  30
ENDBRANCH  23  24
ENDBRANCH  22  23
ENDBRANCH   1  22
TORSDOF 7
ENDMDL
MODEL 4
REMARK VINA RESULT:      -8.9      0.723      1.055
REMARK  Name = 
REMARK  8 active torsions:
REMARK  status: ('A' for Active; 'I' for Inactive)
REMARK    1  A    between atoms: C_1  and  C_2
REMARK    2  A    between atoms: C_2  and  C_3
REMARK    3  A    between atoms: C_2  and  C_11
REMARK    4  A    between atoms: C_3  and  C_4
REMARK    5  A    between atoms: C_8  and  C_9
REMARK    6  A    between atoms: C_9  and  O_10
REMARK    7  A    between atoms: C_15  and  N_16
REMARK    8  A    between atoms: C_23  and  C_24
REMARK                            x       y       z     vdW  Elec       q    Type
REMARK                         _______ _______ _______ _____ _____    ______ ____
ROOT
ATOM      1  C   UNL     1       4.058   5.503  17.373  0.00  0.00    +0.000 A 
ATOM      2  C   UNL     1       4.168   4.488  18.325  0.00  0.00    +0.000 A 
ATOM      3  C   UNL     1       3.596   4.634  19.595  0.00  0.00    +0.000 A 
ATOM      4  C   UNL     1       2.885   5.790  19.941  0.00  0.00    +0.000 A 
ATOM      5  C   UNL     1       2.761   6.828  19.024  0.00  0.00    +0.000 A 
ATOM      6  C   UNL     1       3.382   6.670  17.765  0.00  0.00    +0.000 A 
ENDROOT
BRANCH   5   7
ATOM      7  N   UNL     1       2.035   8.020  19.286  0.00  0.00    +0.000 N 
ATOM      8  C   UNL     1       1.441   8.220  20.590  0.00  0.00    +0.000 C 
ATOM      9  C   UNL     1       0.773   9.539  20.493  0.00  0.00    +0.000 A 
ATOM     10  C   UNL     1       1.016  10.093  19.239  0.00  0.00    +0.000 A 
ATOM     11  C   UNL     1       0.536  11.344  18.905  0.00  0.00    +0.000 A 
ATOM     12  C   UNL     1      -0.209  12.034  19.872  0.00  0.00    +0.000 A 
ATOM     13  C   UNL     1      -0.471  11.461  21.133  0.00  0.00    +0.000 A 
ATOM     14  C   UNL     1       0.019  10.189  21.466  0.00  0.00    +0.000 A 
ATOM     15  C   UNL     1       1.816   9.123  18.451  0.00  0.00    +0.000 C 
ATOM     16  O   UNL     1       2.168   9.334  17.307  0.00  0.00    +0.000 OA
BRANCH  14  17
ATOM     17  C   UNL     1      -0.273   9.560  22.805  0.00  0.00    +0.000 C 
ATOM     18  F   UNL     1      -0.865   8.335  22.718  0.00  0.00    +0.000 F 
ATOM     19  F   UNL     1       0.849   9.369  23.549  0.00  0.00    +0.000 F 
ATOM     20  F   UNL     1      -1.110  10.316  23.564  0.00  0.00    +0.000 F 
ENDBRANCH  14  17
ENDBRANCH   5   7
BRANCH   1  22
ATOM     21  C   UNL     1       4.874   6.816  15.320  0.00  0.00    +0.000 C 
ATOM     22  C   UNL     1       4.636   5.437  15.952  0.00  0.00    +0.000 C 
BRANCH  22  23
ATOM     23  C   UNL     1       5.937   4.587  15.922  0.00  0.00    +0.000 C 
BRANCH  23  24
ATOM     24  C   UNL     1       6.843   4.849  14.757  0.00  0.00    +0.000 A 
ATOM     25  N   UNL     1       7.905   5.655  14.888  0.00  0.00    +0.000 NA
ATOM     26  N   UNL     1       8.456   5.676  13.666  0.00  0.00    +0.000 N 
ATOM     27  C   UNL     1       7.783   4.918  12.754  0.00  0.00    +0.000 A 
ATOM     28  C   UNL     1       6.712   4.365  13.424  0.00  0.00    +0.000 A 
ATOM     29  H   UNL     1       9.290   6.237  13.523  0.00  0.00    +0.000 HD
BRANCH  28  30
ATOM     30  C   UNL     1       5.653   3.479  12.879  0.00  0.00    +0.000 C 
BRANCH  30  31
ATOM     31  O   UNL     1       6.207   2.339  12.234  0.00  0.00    +0.000 OA
ATOM     32  H   UNL     1       6.217   2.541  11.283  0.00  0.00    +0.000 HD
ENDBRANCH  30  31
ENDBRANCH  28  30
ENDBRANCH  23  24
ENDBRANCH  22  23
ENDBRANCH   1  22
TORSDOF 7
ENDMDL
MODEL 5
REMARK VINA RESULT:      -8.8      4.471      8.784
REMARK  Name = 
REMARK  8 active torsions:
REMARK  status: ('A' for Active; 'I' for Inactive)
REMARK    1  A    between atoms: C_1  and  C_2
REMARK    2  A    between atoms: C_2  and  C_3
REMARK    3  A    between atoms: C_2  and  C_11
REMARK    4  A    between atoms: C_3  and  C_4
REMARK    5  A    between atoms: C_8  and  C_9
REMARK    6  A    between atoms: C_9  and  O_10
REMARK    7  A    between atoms: C_15  and  N_16
REMARK    8  A    between atoms: C_23  and  C_24
REMARK                            x       y       z     vdW  Elec       q    Type
REMARK                         _______ _______ _______ _____ _____    ______ ____
ROOT
ATOM      1  C   UNL     1       0.363  10.127  20.127  0.00  0.00    +0.000 A 
ATOM      2  C   UNL     1       0.470  10.268  21.512  0.00  0.00    +0.000 A 
ATOM      3  C   UNL     1       1.117   9.294  22.283  0.00  0.00    +0.000 A 
ATOM      4  C   UNL     1       1.688   8.161  21.688  0.00  0.00    +0.000 A 
ATOM      5  C   UNL     1       1.595   7.980  20.313  0.00  0.00    +0.000 A 
ATOM      6  C   UNL     1       0.903   8.958  19.566  0.00  0.00    +0.000 A 
ENDROOT
BRANCH   5   7
ATOM      7  N   UNL     1       2.170   6.874  19.630  0.00  0.00    +0.000 N 
ATOM      8  C   UNL     1       3.157   7.108  18.599  0.00  0.00    +0.000 C 
ATOM      9  C   UNL     1       3.516   5.754  18.117  0.00  0.00    +0.000 A 
ATOM     10  C   UNL     1       2.829   4.798  18.859  0.00  0.00    +0.000 A 
ATOM     11  C   UNL     1       3.016   3.448  18.636  0.00  0.00    +0.000 A 
ATOM     12  C   UNL     1       3.919   3.075  17.631  0.00  0.00    +0.000 A 
ATOM     13  C   UNL     1       4.598   4.046  16.866  0.00  0.00    +0.000 A 
ATOM     14  C   UNL     1       4.402   5.416  17.098  0.00  0.00    +0.000 A 
ATOM     15  C   UNL     1       1.953   5.505  19.827  0.00  0.00    +0.000 C 
ATOM     16  O   UNL     1       1.223   4.921  20.604  0.00  0.00    +0.000 OA
BRANCH  14  17
ATOM     17  C   UNL     1       5.108   6.462  16.271  0.00  0.00    +0.000 C 
ATOM     18  F   UNL     1       5.987   7.222  16.985  0.00  0.00    +0.000 F 
ATOM     19  F   UNL     1       5.834   5.923  15.256  0.00  0.00    +0.000 F 
ATOM     20  F   UNL     1       4.245   7.343  15.699  0.00  0.00    +0.000 F 
ENDBRANCH  14  17
ENDBRANCH   5   7
BRANCH   1  22
ATOM     21  C   UNL     1       0.646  12.209  18.647  0.00  0.00    +0.000 C 
ATOM     22  C   UNL     1      -0.312  11.140  19.192  0.00  0.00    +0.000 C 
BRANCH  22  23
ATOM     23  C   UNL     1      -1.048  10.417  18.030  0.00  0.00    +0.000 C 
BRANCH  23  24
ATOM     24  C   UNL     1      -2.404  10.962  17.697  0.00  0.00    +0.000 A 
ATOM     25  N   UNL     1      -3.038  11.777  18.551  0.00  0.00    +0.000 NA
ATOM     26  N   UNL     1      -4.207  12.040  17.949  0.00  0.00    +0.000 N 
ATOM     27  C   UNL     1      -4.349  11.418  16.744  0.00  0.00    +0.000 A 
ATOM     28  C   UNL     1      -3.193  10.692  16.543  0.00  0.00    +0.000 A 
ATOM     29  H   UNL     1      -4.867  12.648  18.423  0.00  0.00    +0.000 HD
BRANCH  28  30
ATOM     30  C   UNL     1      -2.853   9.816  15.394  0.00  0.00    +0.000 C 
BRANCH  30  31
ATOM     31  O   UNL     1      -2.942  10.516  14.159  0.00  0.00    +0.000 OA
ATOM     32  H   UNL     1      -3.808  10.958  14.156  0.00  0.00    +0.000 HD
ENDBRANCH  30  31
ENDBRANCH  28  30
ENDBRANCH  23  24
ENDBRANCH  22  23
ENDBRANCH   1  22
TORSDOF 7
ENDMDL
MODEL 6
REMARK VINA RESULT:      -8.8      3.778      9.594
REMARK  Name = 
REMARK  8 active torsions:
REMARK  status: ('A' for Active; 'I' for Inactive)
REMARK    1  A    between atoms: C_1  and  C_2
REMARK    2  A    between atoms: C_2  and  C_3
REMARK    3  A    between atoms: C_2  and  C_11
REMARK    4  A    between atoms: C_3  and  C_4
REMARK    5  A    between atoms: C_8  and  C_9
REMARK    6  A    between atoms: C_9  and  O_10
REMARK    7  A    between atoms: C_15  and  N_16
REMARK    8  A    between atoms: C_23  and  C_24
REMARK                            x       y       z     vdW  Elec       q    Type
REMARK                         _______ _______ _______ _____ _____    ______ ____
ROOT
ATOM      1  C   UNL     1       0.146  10.060  20.811  0.00  0.00    +0.000 A 
ATOM      2  C   UNL     1       0.117  11.034  19.812  0.00  0.00    +0.000 A 
ATOM      3  C   UNL     1       0.794  10.837  18.601  0.00  0.00    +0.000 A 
ATOM      4  C   UNL     1       1.502   9.654  18.352  0.00  0.00    +0.000 A 
ATOM      5  C   UNL     1       1.563   8.664  19.326  0.00  0.00    +0.000 A 
ATOM      6  C   UNL     1       0.905   8.907  20.551  0.00  0.00    +0.000 A 
ENDROOT
BRANCH   5   7
ATOM      7  N   UNL     1       2.237   7.427  19.142  0.00  0.00    +0.000 N 
ATOM      8  C   UNL     1       1.928   6.311  20.008  0.00  0.00    +0.000 C 
ATOM      9  C   UNL     1       2.811   5.220  19.534  0.00  0.00    +0.000 A 
ATOM     10  C   UNL     1       3.538   5.655  18.430  0.00  0.00    +0.000 A 
ATOM     11  C   UNL     1       4.410   4.812  17.770  0.00  0.00    +0.000 A 
ATOM     12  C   UNL     1       4.541   3.503  18.255  0.00  0.00    +0.000 A 
ATOM     13  C   UNL     1       3.819   3.072  19.387  0.00  0.00    +0.000 A 
ATOM     14  C   UNL     1       2.935   3.934  20.054  0.00  0.00    +0.000 A 
ATOM     15  C   UNL     1       3.186   7.074  18.174  0.00  0.00    +0.000 C 
ATOM     16  O   UNL     1       3.679   7.723  17.273  0.00  0.00    +0.000 OA
BRANCH  14  17
ATOM     17  C   UNL     1       2.173   3.488  21.277  0.00  0.00    +0.000 C 
ATOM     18  F   UNL     1       0.819   3.521  21.121  0.00  0.00    +0.000 F 
ATOM     19  F   UNL     1       2.467   2.210  21.638  0.00  0.00    +0.000 F 
ATOM     20  F   UNL     1       2.434   4.262  22.363  0.00  0.00    +0.000 F 
ENDBRANCH  14  17
ENDBRANCH   5   7
BRANCH   1  22
ATOM     21  C   UNL     1       0.137   9.416  23.300  0.00  0.00    +0.000 C 
ATOM     22  C   UNL     1      -0.570  10.172  22.165  0.00  0.00    +0.000 C 
BRANCH  22  23
ATOM     23  C   UNL     1      -0.794  11.660  22.551  0.00  0.00    +0.000 C 
BRANCH  23  24
ATOM     24  C   UNL     1      -2.228  12.090  22.627  0.00  0.00    +0.000 A 
ATOM     25  N   UNL     1      -2.991  11.732  23.670  0.00  0.00    +0.000 NA
ATOM     26  N   UNL     1      -4.193  12.260  23.395  0.00  0.00    +0.000 N 
ATOM     27  C   UNL     1      -4.231  12.936  22.212  0.00  0.00    +0.000 A 
ATOM     28  C   UNL     1      -2.966  12.843  21.670  0.00  0.00    +0.000 A 
ATOM     29  H   UNL     1      -4.947  12.111  24.058  0.00  0.00    +0.000 HD
BRANCH  28  30
ATOM     30  C   UNL     1      -2.484  13.388  20.376  0.00  0.00    +0.000 C 
BRANCH  30  31
ATOM     31  O   UNL     1      -2.990  12.642  19.275  0.00  0.00    +0.000 OA
ATOM     32  H   UNL     1      -3.655  12.034  19.639  0.00  0.00    +0.000 HD
ENDBRANCH  30  31
ENDBRANCH  28  30
ENDBRANCH  23  24
ENDBRANCH  22  23
ENDBRANCH   1  22
TORSDOF 7
ENDMDL
MODEL 7
REMARK VINA RESULT:      -8.7      1.352      2.128
REMARK  Name = 
REMARK  8 active torsions:
REMARK  status: ('A' for Active; 'I' for Inactive)
REMARK    1  A    between atoms: C_1  and  C_2
REMARK    2  A    between atoms: C_2  and  C_3
REMARK    3  A    between atoms: C_2  and  C_11
REMARK    4  A    between atoms: C_3  and  C_4
REMARK    5  A    between atoms: C_8  and  C_9
REMARK    6  A    between atoms: C_9  and  O_10
REMARK    7  A    between atoms: C_15  and  N_16
REMARK    8  A    between atoms: C_23  and  C_24
REMARK                            x       y       z     vdW  Elec       q    Type
REMARK                         _______ _______ _______ _____ _____    ______ ____
ROOT
ATOM      1  C   UNL     1       3.465   3.777  19.016  0.00  0.00    +0.000 A 
ATOM      2  C   UNL     1       3.110   2.999  20.119  0.00  0.00    +0.000 A 
ATOM      3  C   UNL     1       2.375   3.551  21.177  0.00  0.00    +0.000 A 
ATOM      4  C   UNL     1       1.963   4.889  21.152  0.00  0.00    +0.000 A 
ATOM      5  C   UNL     1       2.306   5.700  20.075  0.00  0.00    +0.000 A 
ATOM      6  C   UNL     1       3.080   5.128  19.042  0.00  0.00    +0.000 A 
ENDROOT
BRANCH   5   7
ATOM      7  N   UNL     1       1.905   7.057  19.961  0.00  0.00    +0.000 N 
ATOM      8  C   UNL     1       1.285   7.715  21.091  0.00  0.00    +0.000 C 
ATOM      9  C   UNL     1       1.001   9.087  20.610  0.00  0.00    +0.000 A 
ATOM     10  C   UNL     1       1.480   9.233  19.312  0.00  0.00    +0.000 A 
ATOM     11  C   UNL     1       1.378  10.438  18.643  0.00  0.00    +0.000 A 
ATOM     12  C   UNL     1       0.770  11.506  19.318  0.00  0.00    +0.000 A 
ATOM     13  C   UNL     1       0.267  11.348  20.626  0.00  0.00    +0.000 A 
ATOM     14  C   UNL     1       0.373  10.121  21.298  0.00  0.00    +0.000 A 
ATOM     15  C   UNL     1       2.053   7.935  18.880  0.00  0.00    +0.000 C 
ATOM     16  O   UNL     1       2.537   7.761  17.778  0.00  0.00    +0.000 OA
BRANCH  14  17
ATOM     17  C   UNL     1      -0.179   9.938  22.690  0.00  0.00    +0.000 C 
ATOM     18  F   UNL     1       0.763   9.587  23.612  0.00  0.00    +0.000 F 
ATOM     19  F   UNL     1      -0.760  11.067  23.175  0.00  0.00    +0.000 F 
ATOM     20  F   UNL     1      -1.126   8.964  22.749  0.00  0.00    +0.000 F 
ENDBRANCH  14  17
ENDBRANCH   5   7
BRANCH   1  22
ATOM     21  C   UNL     1       3.826   1.871  17.331  0.00  0.00    +0.000 C 
ATOM     22  C   UNL     1       4.255   3.267  17.802  0.00  0.00    +0.000 C 
BRANCH  22  23
ATOM     23  C   UNL     1       4.190   4.287  16.631  0.00  0.00    +0.000 C 
BRANCH  23  24
ATOM     24  C   UNL     1       5.518   4.713  16.083  0.00  0.00    +0.000 A 
ATOM     25  N   UNL     1       6.375   5.412  16.841  0.00  0.00    +0.000 NA
ATOM     26  N   UNL     1       7.422   5.635  16.034  0.00  0.00    +0.000 N 
ATOM     27  C   UNL     1       7.266   5.112  14.785  0.00  0.00    +0.000 A 
ATOM     28  C   UNL     1       6.028   4.506  14.769  0.00  0.00    +0.000 A 
ATOM     29  H   UNL     1       8.209   6.161  16.400  0.00  0.00    +0.000 HD
BRANCH  28  30
ATOM     30  C   UNL     1       5.365   3.809  13.638  0.00  0.00    +0.000 C 
BRANCH  30  31
ATOM     31  O   UNL     1       6.284   3.002  12.913  0.00  0.00    +0.000 OA
ATOM     32  H   UNL     1       5.808   2.684  12.127  0.00  0.00    +0.000 HD
ENDBRANCH  30  31
ENDBRANCH  28  30
ENDBRANCH  23  24
ENDBRANCH  22  23
ENDBRANCH   1  22
TORSDOF 7
ENDMDL
MODEL 8
REMARK VINA RESULT:      -8.7      2.272      2.777
REMARK  Name = 
REMARK  8 active torsions:
REMARK  status: ('A' for Active; 'I' for Inactive)
REMARK    1  A    between atoms: C_1  and  C_2
REMARK    2  A    between atoms: C_2  and  C_3
REMARK    3  A    between atoms: C_2  and  C_11
REMARK    4  A    between atoms: C_3  and  C_4
REMARK    5  A    between atoms: C_8  and  C_9
REMARK    6  A    between atoms: C_9  and  O_10
REMARK    7  A    between atoms: C_15  and  N_16
REMARK    8  A    between atoms: C_23  and  C_24
REMARK                            x       y       z     vdW  Elec       q    Type
REMARK                         _______ _______ _______ _____ _____    ______ ____
ROOT
ATOM      1  C   UNL     1       4.597   5.043  16.964  0.00  0.00    +0.000 A 
ATOM      2  C   UNL     1       3.899   3.861  16.707  0.00  0.00    +0.000 A 
ATOM      3  C   UNL     1       2.643   3.633  17.286  0.00  0.00    +0.000 A 
ATOM      4  C   UNL     1       2.047   4.585  18.122  0.00  0.00    +0.000 A 
ATOM      5  C   UNL     1       2.715   5.771  18.409  0.00  0.00    +0.000 A 
ATOM      6  C   UNL     1       3.995   5.957  17.844  0.00  0.00    +0.000 A 
ENDROOT
BRANCH   5   7
ATOM      7  N   UNL     1       2.169   6.797  19.225  0.00  0.00    +0.000 N 
ATOM      8  C   UNL     1       2.020   8.132  18.687  0.00  0.00    +0.000 C 
ATOM      9  C   UNL     1       1.439   8.917  19.802  0.00  0.00    +0.000 A 
ATOM     10  C   UNL     1       1.210   8.080  20.890  0.00  0.00    +0.000 A 
ATOM     11  C   UNL     1       0.633   8.558  22.050  0.00  0.00    +0.000 A 
ATOM     12  C   UNL     1       0.291   9.917  22.094  0.00  0.00    +0.000 A 
ATOM     13  C   UNL     1       0.544  10.766  20.997  0.00  0.00    +0.000 A 
ATOM     14  C   UNL     1       1.132  10.274  19.822  0.00  0.00    +0.000 A 
ATOM     15  C   UNL     1       1.683   6.719  20.537  0.00  0.00    +0.000 C 
ATOM     16  O   UNL     1       1.620   5.779  21.304  0.00  0.00    +0.000 OA
BRANCH  14  17
ATOM     17  C   UNL     1       1.424  11.179  18.650  0.00  0.00    +0.000 C 
ATOM     18  F   UNL     1       1.961  10.530  17.578  0.00  0.00    +0.000 F 
ATOM     19  F   UNL     1       0.311  11.801  18.180  0.00  0.00    +0.000 F 
ATOM     20  F   UNL     1       2.309  12.163  18.962  0.00  0.00    +0.000 F 
ENDBRANCH  14  17
ENDBRANCH   5   7
BRANCH   1  22
ATOM     21  C   UNL     1       7.008   5.806  17.424  0.00  0.00    +0.000 C 
ATOM     22  C   UNL     1       5.969   5.396  16.371  0.00  0.00    +0.000 C 
BRANCH  22  23
ATOM     23  C   UNL     1       6.507   4.233  15.491  0.00  0.00    +0.000 C 
BRANCH  23  24
ATOM     24  C   UNL     1       7.063   4.646  14.161  0.00  0.00    +0.000 A 
ATOM     25  N   UNL     1       8.046   5.554  14.086  0.00  0.00    +0.000 NA
ATOM     26  N   UNL     1       8.268   5.692  12.771  0.00  0.00    +0.000 N 
ATOM     27  C   UNL     1       7.460   4.910  12.000  0.00  0.00    +0.000 A 
ATOM     28  C   UNL     1       6.647   4.214  12.869  0.00  0.00    +0.000 A 
ATOM     29  H   UNL     1       8.984   6.345  12.470  0.00  0.00    +0.000 HD
BRANCH  28  30
ATOM     30  C   UNL     1       5.571   3.247  12.538  0.00  0.00    +0.000 C 
BRANCH  30  31
ATOM     31  O   UNL     1       6.083   2.111  11.852  0.00  0.00    +0.000 OA
ATOM     32  H   UNL     1       5.383   1.437  11.877  0.00  0.00    +0.000 HD
ENDBRANCH  30  31
ENDBRANCH  28  30
ENDBRANCH  23  24
ENDBRANCH  22  23
ENDBRANCH   1  22
TORSDOF 7
ENDMDL
MODEL 9
REMARK VINA RESULT:      -8.7      4.148      8.562
REMARK  Name = 
REMARK  8 active torsions:
REMARK  status: ('A' for Active; 'I' for Inactive)
REMARK    1  A    between atoms: C_1  and  C_2
REMARK    2  A    between atoms: C_2  and  C_3
REMARK    3  A    between atoms: C_2  and  C_11
REMARK    4  A    between atoms: C_3  and  C_4
REMARK    5  A    between atoms: C_8  and  C_9
REMARK    6  A    between atoms: C_9  and  O_10
REMARK    7  A    between atoms: C_15  and  N_16
REMARK    8  A    between atoms: C_23  and  C_24
REMARK                            x       y       z     vdW  Elec       q    Type
REMARK                         _______ _______ _______ _____ _____    ______ ____
ROOT
ATOM      1  C   UNL     1       0.456  11.212  20.653  0.00  0.00    +0.000 A 
ATOM      2  C   UNL     1      -0.121  11.076  21.917  0.00  0.00    +0.000 A 
ATOM      3  C   UNL     1      -0.131   9.836  22.568  0.00  0.00    +0.000 A 
ATOM      4  C   UNL     1       0.449   8.704  21.981  0.00  0.00    +0.000 A 
ATOM      5  C   UNL     1       1.025   8.797  20.719  0.00  0.00    +0.000 A 
ATOM      6  C   UNL     1       0.986  10.050  20.069  0.00  0.00    +0.000 A 
ENDROOT
BRANCH   5   7
ATOM      7  N   UNL     1       1.657   7.705  20.067  0.00  0.00    +0.000 N 
ATOM      8  C   UNL     1       1.550   6.378  20.633  0.00  0.00    +0.000 C 
ATOM      9  C   UNL     1       2.323   5.518  19.707  0.00  0.00    +0.000 A 
ATOM     10  C   UNL     1       2.794   6.283  18.645  0.00  0.00    +0.000 A 
ATOM     11  C   UNL     1       3.515   5.710  17.615  0.00  0.00    +0.000 A 
ATOM     12  C   UNL     1       3.759   4.331  17.681  0.00  0.00    +0.000 A 
ATOM     13  C   UNL     1       3.298   3.563  18.769  0.00  0.00    +0.000 A 
ATOM     14  C   UNL     1       2.567   4.151  19.813  0.00  0.00    +0.000 A 
ATOM     15  C   UNL     1       2.382   7.691  18.869  0.00  0.00    +0.000 C 
ATOM     16  O   UNL     1       2.667   8.591  18.103  0.00  0.00    +0.000 OA
BRANCH  14  17
ATOM     17  C   UNL     1       2.087   3.341  20.991  0.00  0.00    +0.000 C 
ATOM     18  F   UNL     1       2.548   2.057  20.998  0.00  0.00    +0.000 F 
ATOM     19  F   UNL     1       2.472   3.872  22.182  0.00  0.00    +0.000 F 
ATOM     20  F   UNL     1       0.732   3.242  21.036  0.00  0.00    +0.000 F 
ENDBRANCH  14  17
ENDBRANCH   5   7
BRANCH   1  22
ATOM     21  C   UNL     1       1.966  12.991  19.575  0.00  0.00    +0.000 C 
ATOM     22  C   UNL     1       0.531  12.526  19.861  0.00  0.00    +0.000 C 
BRANCH  22  23
ATOM     23  C   UNL     1      -0.288  12.425  18.544  0.00  0.00    +0.000 C 
BRANCH  23  24
ATOM     24  C   UNL     1      -1.769  12.278  18.724  0.00  0.00    +0.000 A 
ATOM     25  N   UNL     1      -2.399  12.910  19.724  0.00  0.00    +0.000 NA
ATOM     26  N   UNL     1      -3.680  12.536  19.595  0.00  0.00    +0.000 N 
ATOM     27  C   UNL     1      -3.894  11.683  18.554  0.00  0.00    +0.000 A 
ATOM     28  C   UNL     1      -2.666  11.479  17.960  0.00  0.00    +0.000 A 
ATOM     29  H   UNL     1      -4.356  12.897  20.261  0.00  0.00    +0.000 HD
BRANCH  28  30
ATOM     30  C   UNL     1      -2.346  10.611  16.799  0.00  0.00    +0.000 C 
BRANCH  30  31
ATOM     31  O   UNL     1      -2.354  11.346  15.581  0.00  0.00    +0.000 OA
ATOM     32  H   UNL     1      -1.436  11.626  15.424  0.00  0.00    +0.000 HD
ENDBRANCH  30  31
ENDBRANCH  28  30
ENDBRANCH  23  24
ENDBRANCH  22  23
ENDBRANCH   1  22
TORSDOF 7
ENDMDL
