MODEL 1
REMARK VINA RESULT:      -9.4      0.000      0.000
REMARK  Name = 
REMARK  7 active torsions:
REMARK  status: ('A' for Active; 'I' for Inactive)
REMARK    1  A    between atoms: C_1  and  C_2
REMARK    2  A    between atoms: C_2  and  S_3
REMARK    3  A    between atoms: C_2  and  C_10
REMARK    4  A    between atoms: S_3  and  C_4
REMARK    5  A    between atoms: N_8  and  C_9
REMARK    6  A    between atoms: C_15  and  N_16
REMARK    7  A    between atoms: C_17  and  C_19
REMARK                            x       y       z     vdW  Elec       q    Type
REMARK                         _______ _______ _______ _____ _____    ______ ____
ROOT
ATOM      1  C   UNL     1       4.548   5.150  17.904  0.00  0.00    +0.000 A 
ATOM      2  C   UNL     1       4.621   3.837  18.407  0.00  0.00    +0.000 A 
ATOM      3  C   UNL     1       3.819   3.439  19.473  0.00  0.00    +0.000 A 
ATOM      4  C   UNL     1       2.967   4.352  20.086  0.00  0.00    +0.000 A 
ATOM      5  F   UNL     1       2.143   3.869  21.026  0.00  0.00    +0.000 F 
ATOM      6  C   UNL     1       2.904   5.688  19.664  0.00  0.00    +0.000 A 
ATOM      7  C   UNL     1       3.671   6.061  18.544  0.00  0.00    +0.000 A 
ENDROOT
BRANCH   6   8
ATOM      8  N   UNL     1       2.105   6.683  20.298  0.00  0.00    +0.000 N 
ATOM      9  C   UNL     1       1.839   7.936  19.761  0.00  0.00    +0.000 C 
ATOM     10  O   UNL     1       2.152   8.305  18.631  0.00  0.00    +0.000 OA
ATOM     11  H   UNL     1       1.552   6.433  21.111  0.00  0.00    +0.000 HD
BRANCH   9  12
ATOM     12  C   UNL     1       1.046   8.887  20.612  0.00  0.00    +0.000 A 
ATOM     13  C   UNL     1       1.093   8.701  21.989  0.00  0.00    +0.000 A 
ATOM     14  C   UNL     1       0.334   9.525  22.803  0.00  0.00    +0.000 A 
ATOM     15  C   UNL     1      -0.458  10.515  22.225  0.00  0.00    +0.000 A 
ATOM     16  C   UNL     1      -1.265  11.332  23.035  0.00  0.00    +0.000 A 
ATOM     17  C   UNL     1      -2.069  12.312  22.464  0.00  0.00    +0.000 A 
ATOM     18  C   UNL     1      -2.051  12.483  21.085  0.00  0.00    +0.000 A 
ATOM     19  C   UNL     1      -1.239  11.666  20.280  0.00  0.00    +0.000 A 
ATOM     20  C   UNL     1      -0.437  10.660  20.815  0.00  0.00    +0.000 A 
ATOM     21  N   UNL     1       0.308   9.862  20.007  0.00  0.00    +0.000 NA
ENDBRANCH   9  12
ENDBRANCH   6   8
BRANCH   1  23
ATOM     22  C   UNL     1       4.887   6.663  15.852  0.00  0.00    +0.000 C 
ATOM     23  C   UNL     1       5.446   5.526  16.713  0.00  0.00    +0.000 C 
BRANCH  23  24
ATOM     24  S   UNL     1       5.741   4.032  15.670  0.00  0.00    +0.000 S 
BRANCH  24  25
ATOM     25  C   UNL     1       6.810   4.618  14.447  0.00  0.00    +0.000 A 
ATOM     26  N   UNL     1       7.815   5.453  14.591  0.00  0.00    +0.000 NA
ATOM     27  N   UNL     1       8.316   5.718  13.331  0.00  0.00    +0.000 NA
ATOM     28  C   UNL     1       7.612   5.024  12.465  0.00  0.00    +0.000 A 
ATOM     29  N   UNL     1       6.676   4.287  13.129  0.00  0.00    +0.000 N 
ATOM     30  C   UNL     1       5.742   3.370  12.537  0.00  0.00    +0.000 C 
ENDBRANCH  24  25
ENDBRANCH  23  24
ENDBRANCH   1  23
TORSDOF 5
ENDMDL
MODEL 2
REMARK VINA RESULT:      -9.3      5.285      8.311
REMARK  Name = 
REMARK  7 active torsions:
REMARK  status: ('A' for Active; 'I' for Inactive)
REMARK    1  A    between atoms: C_1  and  C_2
REMARK    2  A    between atoms: C_2  and  S_3
REMARK    3  A    between atoms: C_2  and  C_10
REMARK    4  A    between atoms: S_3  and  C_4
REMARK    5  A    between atoms: N_8  and  C_9
REMARK    6  A    between atoms: C_15  and  N_16
REMARK    7  A    between atoms: C_17  and  C_19
REMARK                            x       y       z     vdW  Elec       q    Type
REMARK                         _______ _______ _______ _____ _____    ______ ____
ROOT
ATOM      1  C   UNL     1       3.942   5.456  17.433  0.00  0.00    +0.000 A 
ATOM      2  C   UNL     1       4.454   4.428  16.619  0.00  0.00    +0.000 A 
ATOM      3  C   UNL     1       5.731   4.523  16.072  0.00  0.00    +0.000 A 
ATOM      4  C   UNL     1       6.500   5.663  16.286  0.00  0.00    +0.000 A 
ATOM      5  F   UNL     1       7.758   5.634  15.828  0.00  0.00    +0.000 F 
ATOM      6  C   UNL     1       6.010   6.742  17.037  0.00  0.00    +0.000 A 
ATOM      7  C   UNL     1       4.745   6.605  17.638  0.00  0.00    +0.000 A 
ENDROOT
BRANCH   6   8
ATOM      8  N   UNL     1       6.722   7.962  17.229  0.00  0.00    +0.000 N 
ATOM      9  C   UNL     1       7.803   8.113  18.087  0.00  0.00    +0.000 C 
ATOM     10  O   UNL     1       8.359   7.201  18.696  0.00  0.00    +0.000 OA
ATOM     11  H   UNL     1       6.558   8.738  16.597  0.00  0.00    +0.000 HD
BRANCH   9  12
ATOM     12  C   UNL     1       8.376   9.496  18.224  0.00  0.00    +0.000 A 
ATOM     13  C   UNL     1       7.853  10.485  17.400  0.00  0.00    +0.000 A 
ATOM     14  C   UNL     1       8.391  11.761  17.461  0.00  0.00    +0.000 A 
ATOM     15  C   UNL     1       9.441  12.018  18.340  0.00  0.00    +0.000 A 
ATOM     16  C   UNL     1      10.024  13.296  18.384  0.00  0.00    +0.000 A 
ATOM     17  C   UNL     1      11.081  13.557  19.248  0.00  0.00    +0.000 A 
ATOM     18  C   UNL     1      11.541  12.542  20.080  0.00  0.00    +0.000 A 
ATOM     19  C   UNL     1      10.951  11.268  20.035  0.00  0.00    +0.000 A 
ATOM     20  C   UNL     1       9.905  10.964  19.166  0.00  0.00    +0.000 A 
ATOM     21  N   UNL     1       9.381   9.711  19.120  0.00  0.00    +0.000 NA
ENDBRANCH   9  12
ENDBRANCH   6   8
BRANCH   1  23
ATOM     22  C   UNL     1       2.392   5.818  19.454  0.00  0.00    +0.000 C 
ATOM     23  C   UNL     1       2.532   5.285  18.024  0.00  0.00    +0.000 C 
BRANCH  23  24
ATOM     24  S   UNL     1       2.053   3.504  17.965  0.00  0.00    +0.000 S 
BRANCH  24  25
ATOM     25  C   UNL     1       1.997   3.063  19.634  0.00  0.00    +0.000 A 
ATOM     26  N   UNL     1       0.951   3.065  20.431  0.00  0.00    +0.000 NA
ATOM     27  N   UNL     1       1.397   2.742  21.698  0.00  0.00    +0.000 NA
ATOM     28  C   UNL     1       2.694   2.536  21.627  0.00  0.00    +0.000 A 
ATOM     29  N   UNL     1       3.106   2.691  20.337  0.00  0.00    +0.000 N 
ATOM     30  C   UNL     1       4.445   2.509  19.847  0.00  0.00    +0.000 C 
ENDBRANCH  24  25
ENDBRANCH  23  24
ENDBRANCH   1  23
TORSDOF 5
ENDMDL
MODEL 3
REMARK VINA RESULT:      -9.0      2.183      3.210
REMARK  Name = 
REMARK  7 active torsions:
REMARK  status: ('A' for Active; 'I' for Inactive)
REMARK    1  A    between atoms: C_1  and  C_2
REMARK    2  A    between atoms: C_2  and  S_3
REMARK    3  A    between atoms: C_2  and  C_10
REMARK    4  A    between atoms: S_3  and  C_4
REMARK    5  A    between atoms: N_8  and  C_9
REMARK    6  A    between atoms: C_15  and  N_16
REMARK    7  A    between atoms: C_17  and  C_19
REMARK                            x       y       z     vdW  Elec       q    Type
REMARK                         _______ _______ _______ _____ _____    ______ ____
ROOT
ATOM      1  C   UNL     1       4.557   4.654  16.705  0.00  0.00    +0.000 A 
ATOM      2  C   UNL     1       4.021   3.390  17.018  0.00  0.00    +0.000 A 
ATOM      3  C   UNL     1       2.841   3.279  17.748  0.00  0.00    +0.000 A 
ATOM      4  C   UNL     1       2.200   4.421  18.218  0.00  0.00    +0.000 A 
ATOM      5  F   UNL     1       1.011   4.243  18.810  0.00  0.00    +0.000 F 
ATOM      6  C   UNL     1       2.727   5.700  17.988  0.00  0.00    +0.000 A 
ATOM      7  C   UNL     1       3.885   5.801  17.194  0.00  0.00    +0.000 A 
ENDROOT
BRANCH   6   8
ATOM      8  N   UNL     1       2.155   6.899  18.505  0.00  0.00    +0.000 N 
ATOM      9  C   UNL     1       1.928   7.142  19.852  0.00  0.00    +0.000 C 
ATOM     10  O   UNL     1       2.295   6.418  20.776  0.00  0.00    +0.000 OA
ATOM     11  H   UNL     1       2.049   7.703  17.894  0.00  0.00    +0.000 HD
BRANCH   9  12
ATOM     12  C   UNL     1       1.237   8.429  20.205  0.00  0.00    +0.000 A 
ATOM     13  C   UNL     1       1.333   9.474  19.293  0.00  0.00    +0.000 A 
ATOM     14  C   UNL     1       0.753  10.692  19.606  0.00  0.00    +0.000 A 
ATOM     15  C   UNL     1       0.095  10.842  20.825  0.00  0.00    +0.000 A 
ATOM     16  C   UNL     1      -0.463  12.084  21.175  0.00  0.00    +0.000 A 
ATOM     17  C   UNL     1      -1.109  12.246  22.395  0.00  0.00    +0.000 A 
ATOM     18  C   UNL     1      -1.211  11.158  23.255  0.00  0.00    +0.000 A 
ATOM     19  C   UNL     1      -0.656   9.918  22.899  0.00  0.00    +0.000 A 
ATOM     20  C   UNL     1       0.018   9.725  21.694  0.00  0.00    +0.000 A 
ATOM     21  N   UNL     1       0.576   8.523  21.395  0.00  0.00    +0.000 NA
ENDBRANCH   9  12
ENDBRANCH   6   8
BRANCH   1  23
ATOM     22  C   UNL     1       5.934   3.650  14.777  0.00  0.00    +0.000 C 
ATOM     23  C   UNL     1       5.854   4.712  15.880  0.00  0.00    +0.000 C 
BRANCH  23  24
ATOM     24  S   UNL     1       7.308   4.561  17.007  0.00  0.00    +0.000 S 
BRANCH  24  25
ATOM     25  C   UNL     1       7.611   6.197  17.469  0.00  0.00    +0.000 A 
ATOM     26  N   UNL     1       7.558   7.269  16.710  0.00  0.00    +0.000 NA
ATOM     27  N   UNL     1       7.979   8.339  17.477  0.00  0.00    +0.000 NA
ATOM     28  C   UNL     1       8.255   7.886  18.679  0.00  0.00    +0.000 A 
ATOM     29  N   UNL     1       8.002   6.548  18.729  0.00  0.00    +0.000 N 
ATOM     30  C   UNL     1       8.141   5.700  19.881  0.00  0.00    +0.000 C 
ENDBRANCH  24  25
ENDBRANCH  23  24
ENDBRANCH   1  23
TORSDOF 5
ENDMDL
MODEL 4
REMARK VINA RESULT:      -8.9      1.404      2.084
REMARK  Name = 
REMARK  7 active torsions:
REMARK  status: ('A' for Active; 'I' for Inactive)
REMARK    1  A    between atoms: C_1  and  C_2
REMARK    2  A    between atoms: C_2  and  S_3
REMARK    3  A    between atoms: C_2  and  C_10
REMARK    4  A    between atoms: S_3  and  C_4
REMARK    5  A    between atoms: N_8  and  C_9
REMARK    6  A    between atoms: C_15  and  N_16
REMARK    7  A    between atoms: C_17  and  C_19
REMARK                            x       y       z     vdW  Elec       q    Type
REMARK                         _______ _______ _______ _____ _____    ______ ____
ROOT
ATOM      1  C   UNL     1       5.284   4.864  19.067  0.00  0.00    +0.000 A 
ATOM      2  C   UNL     1       4.960   3.547  19.447  0.00  0.00    +0.000 A 
ATOM      3  C   UNL     1       3.708   3.247  19.976  0.00  0.00    +0.000 A 
ATOM      4  C   UNL     1       2.774   4.259  20.180  0.00  0.00    +0.000 A 
ATOM      5  F   UNL     1       1.554   3.879  20.582  0.00  0.00    +0.000 F 
ATOM      6  C   UNL     1       3.071   5.596  19.877  0.00  0.00    +0.000 A 
ATOM      7  C   UNL     1       4.315   5.876  19.282  0.00  0.00    +0.000 A 
ENDROOT
BRANCH   6   8
ATOM      8  N   UNL     1       2.183   6.682  20.130  0.00  0.00    +0.000 N 
ATOM      9  C   UNL     1       2.049   7.793  19.310  0.00  0.00    +0.000 C 
ATOM     10  O   UNL     1       2.580   7.933  18.210  0.00  0.00    +0.000 OA
ATOM     11  H   UNL     1       1.479   6.589  20.855  0.00  0.00    +0.000 HD
BRANCH   9  12
ATOM     12  C   UNL     1       1.123   8.880  19.781  0.00  0.00    +0.000 A 
ATOM     13  C   UNL     1       0.765   9.855  18.858  0.00  0.00    +0.000 A 
ATOM     14  C   UNL     1      -0.045  10.902  19.269  0.00  0.00    +0.000 A 
ATOM     15  C   UNL     1      -0.475  10.953  20.593  0.00  0.00    +0.000 A 
ATOM     16  C   UNL     1      -1.263  12.030  21.035  0.00  0.00    +0.000 A 
ATOM     17  C   UNL     1      -1.684  12.096  22.359  0.00  0.00    +0.000 A 
ATOM     18  C   UNL     1      -1.329  11.074  23.233  0.00  0.00    +0.000 A 
ATOM     19  C   UNL     1      -0.546   9.998  22.784  0.00  0.00    +0.000 A 
ATOM     20  C   UNL     1      -0.087   9.910  21.471  0.00  0.00    +0.000 A 
ATOM     21  N   UNL     1       0.700   8.875  21.078  0.00  0.00    +0.000 NA
ENDBRANCH   9  12
ENDBRANCH   6   8
BRANCH   1  23
ATOM     22  C   UNL     1       7.713   5.587  19.503  0.00  0.00    +0.000 C 
ATOM     23  C   UNL     1       6.676   5.130  18.471  0.00  0.00    +0.000 C 
BRANCH  23  24
ATOM     24  S   UNL     1       6.539   6.378  17.118  0.00  0.00    +0.000 S 
BRANCH  24  25
ATOM     25  C   UNL     1       6.671   5.417  15.690  0.00  0.00    +0.000 A 
ATOM     26  N   UNL     1       7.663   5.392  14.827  0.00  0.00    +0.000 NA
ATOM     27  N   UNL     1       7.288   4.558  13.791  0.00  0.00    +0.000 NA
ATOM     28  C   UNL     1       6.091   4.089  14.067  0.00  0.00    +0.000 A 
ATOM     29  N   UNL     1       5.681   4.576  15.272  0.00  0.00    +0.000 N 
ATOM     30  C   UNL     1       4.446   4.262  15.937  0.00  0.00    +0.000 C 
ENDBRANCH  24  25
ENDBRANCH  23  24
ENDBRANCH   1  23
TORSDOF 5
ENDMDL
MODEL 5
REMARK VINA RESULT:      -8.7      2.210      3.060
REMARK  Name = 
REMARK  7 active torsions:
REMARK  status: ('A' for Active; 'I' for Inactive)
REMARK    1  A    between atoms: C_1  and  C_2
REMARK    2  A    between atoms: C_2  and  S_3
REMARK    3  A    between atoms: C_2  and  C_10
REMARK    4  A    between atoms: S_3  and  C_4
REMARK    5  A    between atoms: N_8  and  C_9
REMARK    6  A    between atoms: C_15  and  N_16
REMARK    7  A    between atoms: C_17  and  C_19
REMARK                            x       y       z     vdW  Elec       q    Type
REMARK                         _______ _______ _______ _____ _____    ______ ____
ROOT
ATOM      1  C   UNL     1       4.497   4.751  16.681  0.00  0.00    +0.000 A 
ATOM      2  C   UNL     1       3.886   3.500  16.889  0.00  0.00    +0.000 A 
ATOM      3  C   UNL     1       2.694   3.399  17.601  0.00  0.00    +0.000 A 
ATOM      4  C   UNL     1       2.115   4.535  18.158  0.00  0.00    +0.000 A 
ATOM      5  F   UNL     1       0.912   4.379  18.727  0.00  0.00    +0.000 F 
ATOM      6  C   UNL     1       2.717   5.796  18.034  0.00  0.00    +0.000 A 
ATOM      7  C   UNL     1       3.886   5.893  17.257  0.00  0.00    +0.000 A 
ENDROOT
BRANCH   6   8
ATOM      8  N   UNL     1       2.209   6.980  18.643  0.00  0.00    +0.000 N 
ATOM      9  C   UNL     1       1.984   7.129  20.004  0.00  0.00    +0.000 C 
ATOM     10  O   UNL     1       2.302   6.315  20.869  0.00  0.00    +0.000 OA
ATOM     11  H   UNL     1       2.154   7.835  18.098  0.00  0.00    +0.000 HD
BRANCH   9  12
ATOM     12  C   UNL     1       1.364   8.422  20.456  0.00  0.00    +0.000 A 
ATOM     13  C   UNL     1       1.068   8.546  21.808  0.00  0.00    +0.000 A 
ATOM     14  C   UNL     1       0.448   9.703  22.254  0.00  0.00    +0.000 A 
ATOM     15  C   UNL     1       0.136  10.706  21.339  0.00  0.00    +0.000 A 
ATOM     16  C   UNL     1      -0.529  11.867  21.769  0.00  0.00    +0.000 A 
ATOM     17  C   UNL     1      -0.857  12.867  20.861  0.00  0.00    +0.000 A 
ATOM     18  C   UNL     1      -0.504  12.709  19.525  0.00  0.00    +0.000 A 
ATOM     19  C   UNL     1       0.165  11.549  19.102  0.00  0.00    +0.000 A 
ATOM     20  C   UNL     1       0.490  10.517  19.980  0.00  0.00    +0.000 A 
ATOM     21  N   UNL     1       1.104   9.390  19.532  0.00  0.00    +0.000 NA
ENDBRANCH   9  12
ENDBRANCH   6   8
BRANCH   1  23
ATOM     22  C   UNL     1       5.884   3.743  14.765  0.00  0.00    +0.000 C 
ATOM     23  C   UNL     1       5.803   4.800  15.871  0.00  0.00    +0.000 C 
BRANCH  23  24
ATOM     24  S   UNL     1       7.243   4.630  17.013  0.00  0.00    +0.000 S 
BRANCH  24  25
ATOM     25  C   UNL     1       7.551   6.260  17.493  0.00  0.00    +0.000 A 
ATOM     26  N   UNL     1       7.421   7.349  16.768  0.00  0.00    +0.000 NA
ATOM     27  N   UNL     1       7.880   8.408  17.528  0.00  0.00    +0.000 NA
ATOM     28  C   UNL     1       8.256   7.932  18.694  0.00  0.00    +0.000 A 
ATOM     29  N   UNL     1       8.031   6.588  18.728  0.00  0.00    +0.000 N 
ATOM     30  C   UNL     1       8.273   5.715  19.844  0.00  0.00    +0.000 C 
ENDBRANCH  24  25
ENDBRANCH  23  24
ENDBRANCH   1  23
TORSDOF 5
ENDMDL
MODEL 6
REMARK VINA RESULT:      -8.7      1.295      1.595
REMARK  Name = 
REMARK  7 active torsions:
REMARK  status: ('A' for Active; 'I' for Inactive)
REMARK    1  A    between atoms: C_1  and  C_2
REMARK    2  A    between atoms: C_2  and  S_3
REMARK    3  A    between atoms: C_2  and  C_10
REMARK    4  A    between atoms: S_3  and  C_4
REMARK    5  A    between atoms: N_8  and  C_9
REMARK    6  A    between atoms: C_15  and  N_16
REMARK    7  A    between atoms: C_17  and  C_19
REMARK                            x       y       z     vdW  Elec       q    Type
REMARK                         _______ _______ _______ _____ _____    ______ ____
ROOT
ATOM      1  C   UNL     1       5.252   4.796  19.032  0.00  0.00    +0.000 A 
ATOM      2  C   UNL     1       4.875   3.447  19.173  0.00  0.00    +0.000 A 
ATOM      3  C   UNL     1       3.628   3.107  19.692  0.00  0.00    +0.000 A 
ATOM      4  C   UNL     1       2.757   4.102  20.125  0.00  0.00    +0.000 A 
ATOM      5  F   UNL     1       1.534   3.707  20.503  0.00  0.00    +0.000 F 
ATOM      6  C   UNL     1       3.111   5.458  20.065  0.00  0.00    +0.000 A 
ATOM      7  C   UNL     1       4.346   5.790  19.478  0.00  0.00    +0.000 A 
ENDROOT
BRANCH   6   8
ATOM      8  N   UNL     1       2.290   6.514  20.558  0.00  0.00    +0.000 N 
ATOM      9  C   UNL     1       1.947   7.646  19.832  0.00  0.00    +0.000 C 
ATOM     10  O   UNL     1       2.199   7.830  18.643  0.00  0.00    +0.000 OA
ATOM     11  H   UNL     1       1.780   6.383  21.426  0.00  0.00    +0.000 HD
BRANCH   9  12
ATOM     12  C   UNL     1       1.142   8.695  20.546  0.00  0.00    +0.000 A 
ATOM     13  C   UNL     1       0.661   8.377  21.811  0.00  0.00    +0.000 A 
ATOM     14  C   UNL     1      -0.128   9.299  22.479  0.00  0.00    +0.000 A 
ATOM     15  C   UNL     1      -0.424  10.516  21.867  0.00  0.00    +0.000 A 
ATOM     16  C   UNL     1      -1.257  11.444  22.515  0.00  0.00    +0.000 A 
ATOM     17  C   UNL     1      -1.568  12.654  21.906  0.00  0.00    +0.000 A 
ATOM     18  C   UNL     1      -1.030  12.939  20.655  0.00  0.00    +0.000 A 
ATOM     19  C   UNL     1      -0.194  12.010  20.015  0.00  0.00    +0.000 A 
ATOM     20  C   UNL     1       0.121  10.778  20.586  0.00  0.00    +0.000 A 
ATOM     21  N   UNL     1       0.902   9.885  19.924  0.00  0.00    +0.000 NA
ENDBRANCH   9  12
ENDBRANCH   6   8
BRANCH   1  23
ATOM     22  C   UNL     1       7.660   5.589  19.467  0.00  0.00    +0.000 C 
ATOM     23  C   UNL     1       6.634   5.109  18.435  0.00  0.00    +0.000 C 
BRANCH  23  24
ATOM     24  S   UNL     1       6.455   6.363  17.093  0.00  0.00    +0.000 S 
BRANCH  24  25
ATOM     25  C   UNL     1       6.664   5.427  15.657  0.00  0.00    +0.000 A 
ATOM     26  N   UNL     1       7.670   5.466  14.812  0.00  0.00    +0.000 NA
ATOM     27  N   UNL     1       7.359   4.624  13.761  0.00  0.00    +0.000 NA
ATOM     28  C   UNL     1       6.185   4.090  14.009  0.00  0.00    +0.000 A 
ATOM     29  N   UNL     1       5.727   4.540  15.212  0.00  0.00    +0.000 N 
ATOM     30  C   UNL     1       4.499   4.153  15.851  0.00  0.00    +0.000 C 
ENDBRANCH  24  25
ENDBRANCH  23  24
ENDBRANCH   1  23
TORSDOF 5
ENDMDL
MODEL 7
REMARK VINA RESULT:      -8.7      0.778      1.472
REMARK  Name = 
REMARK  7 active torsions:
REMARK  status: ('A' for Active; 'I' for Inactive)
REMARK    1  A    between atoms: C_1  and  C_2
REMARK    2  A    between atoms: C_2  and  S_3
REMARK    3  A    between atoms: C_2  and  C_10
REMARK    4  A    between atoms: S_3  and  C_4
REMARK    5  A    between atoms: N_8  and  C_9
REMARK    6  A    between atoms: C_15  and  N_16
REMARK    7  A    between atoms: C_17  and  C_19
REMARK                            x       y       z     vdW  Elec       q    Type
REMARK                         _______ _______ _______ _____ _____    ______ ____
ROOT
ATOM      1  C   UNL     1       4.715   5.450  17.647  0.00  0.00    +0.000 A 
ATOM      2  C   UNL     1       4.890   4.279  18.410  0.00  0.00    +0.000 A 
ATOM      3  C   UNL     1       4.071   4.013  19.504  0.00  0.00    +0.000 A 
ATOM      4  C   UNL     1       3.096   4.929  19.886  0.00  0.00    +0.000 A 
ATOM      5  F   UNL     1       2.271   4.553  20.873  0.00  0.00    +0.000 F 
ATOM      6  C   UNL     1       2.923   6.140  19.198  0.00  0.00    +0.000 A 
ATOM      7  C   UNL     1       3.713   6.366  18.056  0.00  0.00    +0.000 A 
ENDROOT
BRANCH   6   8
ATOM      8  N   UNL     1       1.992   7.146  19.587  0.00  0.00    +0.000 N 
ATOM      9  C   UNL     1       1.879   8.388  18.978  0.00  0.00    +0.000 C 
ATOM     10  O   UNL     1       2.474   8.737  17.960  0.00  0.00    +0.000 OA
ATOM     11  H   UNL     1       1.246   6.910  20.233  0.00  0.00    +0.000 HD
BRANCH   9  12
ATOM     12  C   UNL     1       0.896   9.354  19.578  0.00  0.00    +0.000 A 
ATOM     13  C   UNL     1       0.376  10.335  18.740  0.00  0.00    +0.000 A 
ATOM     14  C   UNL     1      -0.493  11.275  19.270  0.00  0.00    +0.000 A 
ATOM     15  C   UNL     1      -0.820  11.218  20.623  0.00  0.00    +0.000 A 
ATOM     16  C   UNL     1      -1.668  12.189  21.182  0.00  0.00    +0.000 A 
ATOM     17  C   UNL     1      -1.988  12.147  22.535  0.00  0.00    +0.000 A 
ATOM     18  C   UNL     1      -1.472  11.122  23.320  0.00  0.00    +0.000 A 
ATOM     19  C   UNL     1      -0.629  10.152  22.754  0.00  0.00    +0.000 A 
ATOM     20  C   UNL     1      -0.269  10.175  21.408  0.00  0.00    +0.000 A 
ATOM     21  N   UNL     1       0.579   9.243  20.899  0.00  0.00    +0.000 NA
ENDBRANCH   9  12
ENDBRANCH   6   8
BRANCH   1  23
ATOM     22  C   UNL     1       5.124   6.741  15.461  0.00  0.00    +0.000 C 
ATOM     23  C   UNL     1       5.638   5.679  16.439  0.00  0.00    +0.000 C 
BRANCH  23  24
ATOM     24  S   UNL     1       5.903   4.081  15.555  0.00  0.00    +0.000 S 
BRANCH  24  25
ATOM     25  C   UNL     1       6.832   4.551  14.177  0.00  0.00    +0.000 A 
ATOM     26  N   UNL     1       7.856   5.375  14.141  0.00  0.00    +0.000 NA
ATOM     27  N   UNL     1       8.213   5.532  12.815  0.00  0.00    +0.000 NA
ATOM     28  C   UNL     1       7.409   4.785  12.092  0.00  0.00    +0.000 A 
ATOM     29  N   UNL     1       6.547   4.121  12.913  0.00  0.00    +0.000 N 
ATOM     30  C   UNL     1       5.543   3.177  12.504  0.00  0.00    +0.000 C 
ENDBRANCH  24  25
ENDBRANCH  23  24
ENDBRANCH   1  23
TORSDOF 5
ENDMDL
MODEL 8
REMARK VINA RESULT:      -8.6      1.226      1.680
REMARK  Name = 
REMARK  7 active torsions:
REMARK  status: ('A' for Active; 'I' for Inactive)
REMARK    1  A    between atoms: C_1  and  C_2
REMARK    2  A    between atoms: C_2  and  S_3
REMARK    3  A    between atoms: C_2  and  C_10
REMARK    4  A    between atoms: S_3  and  C_4
REMARK    5  A    between atoms: N_8  and  C_9
REMARK    6  A    between atoms: C_15  and  N_16
REMARK    7  A    between atoms: C_17  and  C_19
REMARK                            x       y       z     vdW  Elec       q    Type
REMARK                         _______ _______ _______ _____ _____    ______ ____
ROOT
ATOM      1  C   UNL     1       4.175   5.896  17.542  0.00  0.00    +0.000 A 
ATOM      2  C   UNL     1       3.872   4.609  18.026  0.00  0.00    +0.000 A 
ATOM      3  C   UNL     1       2.889   4.425  18.995  0.00  0.00    +0.000 A 
ATOM      4  C   UNL     1       2.225   5.524  19.533  0.00  0.00    +0.000 A 
ATOM      5  F   UNL     1       1.214   5.263  20.373  0.00  0.00    +0.000 F 
ATOM      6  C   UNL     1       2.535   6.832  19.132  0.00  0.00    +0.000 A 
ATOM      7  C   UNL     1       3.483   6.998  18.106  0.00  0.00    +0.000 A 
ENDROOT
BRANCH   6   8
ATOM      8  N   UNL     1       1.940   7.997  19.698  0.00  0.00    +0.000 N 
ATOM      9  C   UNL     1       1.370   9.025  18.960  0.00  0.00    +0.000 C 
ATOM     10  O   UNL     1       1.195   9.013  17.743  0.00  0.00    +0.000 OA
ATOM     11  H   UNL     1       1.762   8.028  20.697  0.00  0.00    +0.000 HD
BRANCH   9  12
ATOM     12  C   UNL     1       0.867  10.216  19.727  0.00  0.00    +0.000 A 
ATOM     13  C   UNL     1       1.314  11.468  19.321  0.00  0.00    +0.000 A 
ATOM     14  C   UNL     1       0.913  12.586  20.036  0.00  0.00    +0.000 A 
ATOM     15  C   UNL     1       0.078  12.427  21.140  0.00  0.00    +0.000 A 
ATOM     16  C   UNL     1      -0.304  13.547  21.899  0.00  0.00    +0.000 A 
ATOM     17  C   UNL     1      -1.124  13.396  23.011  0.00  0.00    +0.000 A 
ATOM     18  C   UNL     1      -1.575  12.125  23.351  0.00  0.00    +0.000 A 
ATOM     19  C   UNL     1      -1.193  11.010  22.586  0.00  0.00    +0.000 A 
ATOM     20  C   UNL     1      -0.355  11.121  21.479  0.00  0.00    +0.000 A 
ATOM     21  N   UNL     1       0.026  10.018  20.782  0.00  0.00    +0.000 NA
ENDBRANCH   9  12
ENDBRANCH   6   8
BRANCH   1  23
ATOM     22  C   UNL     1       4.900   7.030  15.351  0.00  0.00    +0.000 C 
ATOM     23  C   UNL     1       5.257   6.032  16.458  0.00  0.00    +0.000 C 
BRANCH  23  24
ATOM     24  S   UNL     1       5.605   4.375  15.725  0.00  0.00    +0.000 S 
BRANCH  24  25
ATOM     25  C   UNL     1       6.742   4.735  14.476  0.00  0.00    +0.000 A 
ATOM     26  N   UNL     1       7.808   5.500  14.557  0.00  0.00    +0.000 NA
ATOM     27  N   UNL     1       8.354   5.582  13.289  0.00  0.00    +0.000 NA
ATOM     28  C   UNL     1       7.614   4.851  12.486  0.00  0.00    +0.000 A 
ATOM     29  N   UNL     1       6.609   4.269  13.200  0.00  0.00    +0.000 N 
ATOM     30  C   UNL     1       5.616   3.366  12.686  0.00  0.00    +0.000 C 
ENDBRANCH  24  25
ENDBRANCH  23  24
ENDBRANCH   1  23
TORSDOF 5
ENDMDL
MODEL 9
REMARK VINA RESULT:      -8.6      3.583      9.358
REMARK  Name = 
REMARK  7 active torsions:
REMARK  status: ('A' for Active; 'I' for Inactive)
REMARK    1  A    between atoms: C_1  and  C_2
REMARK    2  A    between atoms: C_2  and  S_3
REMARK    3  A    between atoms: C_2  and  C_10
REMARK    4  A    between atoms: S_3  and  C_4
REMARK    5  A    between atoms: N_8  and  C_9
REMARK    6  A    between atoms: C_15  and  N_16
REMARK    7  A    between atoms: C_17  and  C_19
REMARK                            x       y       z     vdW  Elec       q    Type
REMARK                         _______ _______ _______ _____ _____    ______ ____
ROOT
ATOM      1  C   UNL     1      -0.544  11.375  20.211  0.00  0.00    +0.000 A 
ATOM      2  C   UNL     1      -0.704  11.407  21.609  0.00  0.00    +0.000 A 
ATOM      3  C   UNL     1      -0.056  10.480  22.421  0.00  0.00    +0.000 A 
ATOM      4  C   UNL     1       0.723   9.477  21.853  0.00  0.00    +0.000 A 
ATOM      5  F   UNL     1       1.408   8.695  22.699  0.00  0.00    +0.000 F 
ATOM      6  C   UNL     1       0.863   9.363  20.462  0.00  0.00    +0.000 A 
ATOM      7  C   UNL     1       0.257  10.344  19.657  0.00  0.00    +0.000 A 
ENDROOT
BRANCH   6   8
ATOM      8  N   UNL     1       1.588   8.316  19.821  0.00  0.00    +0.000 N 
ATOM      9  C   UNL     1       2.212   8.435  18.587  0.00  0.00    +0.000 C 
ATOM     10  O   UNL     1       2.326   9.478  17.946  0.00  0.00    +0.000 OA
ATOM     11  H   UNL     1       1.817   7.477  20.345  0.00  0.00    +0.000 HD
BRANCH   9  12
ATOM     12  C   UNL     1       2.859   7.198  18.029  0.00  0.00    +0.000 A 
ATOM     13  C   UNL     1       2.267   5.978  18.334  0.00  0.00    +0.000 A 
ATOM     14  C   UNL     1       2.864   4.812  17.881  0.00  0.00    +0.000 A 
ATOM     15  C   UNL     1       4.039   4.891  17.137  0.00  0.00    +0.000 A 
ATOM     16  C   UNL     1       4.678   3.716  16.705  0.00  0.00    +0.000 A 
ATOM     17  C   UNL     1       5.858   3.785  15.974  0.00  0.00    +0.000 A 
ATOM     18  C   UNL     1       6.388   5.033  15.663  0.00  0.00    +0.000 A 
ATOM     19  C   UNL     1       5.743   6.204  16.093  0.00  0.00    +0.000 A 
ATOM     20  C   UNL     1       4.571   6.172  16.845  0.00  0.00    +0.000 A 
ATOM     21  N   UNL     1       3.991   7.322  17.279  0.00  0.00    +0.000 NA
ENDBRANCH   9  12
ENDBRANCH   6   8
BRANCH   1  23
ATOM     22  C   UNL     1      -1.164  13.855  19.938  0.00  0.00    +0.000 C 
ATOM     23  C   UNL     1      -1.270  12.437  19.368  0.00  0.00    +0.000 C 
BRANCH  23  24
ATOM     24  S   UNL     1      -3.044  11.964  19.178  0.00  0.00    +0.000 S 
BRANCH  24  25
ATOM     25  C   UNL     1      -3.098  11.296  17.587  0.00  0.00    +0.000 A 
ATOM     26  N   UNL     1      -2.158  10.616  16.969  0.00  0.00    +0.000 NA
ATOM     27  N   UNL     1      -2.601  10.376  15.682  0.00  0.00    +0.000 NA
ATOM     28  C   UNL     1      -3.800  10.902  15.566  0.00  0.00    +0.000 A 
ATOM     29  N   UNL     1      -4.167  11.459  16.754  0.00  0.00    +0.000 N 
ATOM     30  C   UNL     1      -5.424  12.095  17.041  0.00  0.00    +0.000 C 
ENDBRANCH  24  25
ENDBRANCH  23  24
ENDBRANCH   1  23
TORSDOF 5
ENDMDL
