MODEL 1
REMARK VINA RESULT:      -8.9      0.000      0.000
REMARK  Name = 
REMARK  9 active torsions:
REMARK  status: ('A' for Active; 'I' for Inactive)
REMARK    1  A    between atoms: C_1  and  C_2
REMARK    2  A    between atoms: C_2  and  C_3
REMARK    3  A    between atoms: C_2  and  C_10
REMARK    4  A    between atoms: C_3  and  C_4
REMARK    5  A    between atoms: N_8  and  C_9
REMARK    6  A    between atoms: C_14  and  N_15
REMARK    7  A    between atoms: C_16  and  C_18
REMARK    8  A    between atoms: C_20  and  C_21
REMARK    9  A    between atoms: C_25  and  C_26
REMARK                            x       y       z     vdW  Elec       q    Type
REMARK                         _______ _______ _______ _____ _____    ______ ____
ROOT
ATOM      1  N   UNL     1       2.076   8.707  17.913  0.00  0.00    +0.000 N 
ATOM      2  C   UNL     1       2.293   7.704  18.839  0.00  0.00    +0.000 C 
ATOM      3  O   UNL     1       2.058   7.751  20.042  0.00  0.00    +0.000 OA
ATOM      4  H   UNL     1       2.252   8.448  16.946  0.00  0.00    +0.000 HD
ENDROOT
BRANCH   1   9
ATOM      5  C   UNL     1      -0.424  11.315  18.774  0.00  0.00    +0.000 A 
ATOM      6  C   UNL     1       0.387  12.462  18.788  0.00  0.00    +0.000 A 
ATOM      7  C   UNL     1       1.740  12.383  18.466  0.00  0.00    +0.000 A 
ATOM      8  C   UNL     1       2.313  11.150  18.160  0.00  0.00    +0.000 A 
ATOM      9  C   UNL     1       1.547   9.989  18.172  0.00  0.00    +0.000 A 
ATOM     10  C   UNL     1       0.177  10.081  18.461  0.00  0.00    +0.000 A 
BRANCH   5  12
ATOM     11  C   UNL     1      -2.813  11.387  17.829  0.00  0.00    +0.000 C 
ATOM     12  C   UNL     1      -1.917  11.464  19.078  0.00  0.00    +0.000 C 
BRANCH  12  13
ATOM     13  C   UNL     1      -2.141  12.780  19.859  0.00  0.00    +0.000 C 
BRANCH  13  14
ATOM     14  C   UNL     1      -2.826  12.583  21.166  0.00  0.00    +0.000 A 
ATOM     15  N   UNL     1      -4.120  12.673  21.397  0.00  0.00    +0.000 NA
ATOM     16  N   UNL     1      -4.331  12.464  22.740  0.00  0.00    +0.000 NA
ATOM     17  C   UNL     1      -3.163  12.241  23.295  0.00  0.00    +0.000 A 
ATOM     18  N   UNL     1      -2.192  12.297  22.346  0.00  0.00    +0.000 N 
ATOM     19  C   UNL     1      -0.783  12.098  22.555  0.00  0.00    +0.000 C 
ENDBRANCH  13  14
ENDBRANCH  12  13
ENDBRANCH   5  12
ENDBRANCH   1   9
BRANCH   2  20
ATOM     20  C   UNL     1       2.844   6.438  18.259  0.00  0.00    +0.000 A 
ATOM     21  C   UNL     1       3.999   6.506  17.492  0.00  0.00    +0.000 A 
ATOM     22  C   UNL     1       4.534   5.342  16.941  0.00  0.00    +0.000 A 
ATOM     23  C   UNL     1       3.865   4.143  17.217  0.00  0.00    +0.000 A 
ATOM     24  C   UNL     1       2.706   4.134  18.008  0.00  0.00    +0.000 A 
ATOM     25  N   UNL     1       2.182   5.281  18.534  0.00  0.00    +0.000 NA
BRANCH  24  26
ATOM     26  C   UNL     1       2.014   2.807  18.305  0.00  0.00    +0.000 C 
ATOM     27  F   UNL     1       2.361   2.271  19.512  0.00  0.00    +0.000 F 
ATOM     28  F   UNL     1       0.655   2.915  18.331  0.00  0.00    +0.000 F 
ATOM     29  F   UNL     1       2.298   1.845  17.383  0.00  0.00    +0.000 F 
ENDBRANCH  24  26
BRANCH  22  30
ATOM     30  C   UNL     1       5.806   5.383  16.131  0.00  0.00    +0.000 C 
ATOM     31  C   UNL     1       6.402   4.111  15.578  0.00  0.00    +0.000 C 
ATOM     32  C   UNL     1       5.763   5.094  14.646  0.00  0.00    +0.000 C 
ENDBRANCH  22  30
ENDBRANCH   2  20
TORSDOF 7
ENDMDL
MODEL 2
REMARK VINA RESULT:      -8.9      3.113      4.519
REMARK  Name = 
REMARK  9 active torsions:
REMARK  status: ('A' for Active; 'I' for Inactive)
REMARK    1  A    between atoms: C_1  and  C_2
REMARK    2  A    between atoms: C_2  and  C_3
REMARK    3  A    between atoms: C_2  and  C_10
REMARK    4  A    between atoms: C_3  and  C_4
REMARK    5  A    between atoms: N_8  and  C_9
REMARK    6  A    between atoms: C_14  and  N_15
REMARK    7  A    between atoms: C_16  and  C_18
REMARK    8  A    between atoms: C_20  and  C_21
REMARK    9  A    between atoms: C_25  and  C_26
REMARK                            x       y       z     vdW  Elec       q    Type
REMARK                         _______ _______ _______ _____ _____    ______ ____
ROOT
ATOM      1  N   UNL     1       1.909   7.737  19.466  0.00  0.00    +0.000 N 
ATOM      2  C   UNL     1       2.563   7.791  18.250  0.00  0.00    +0.000 C 
ATOM      3  O   UNL     1       2.633   8.757  17.496  0.00  0.00    +0.000 OA
ATOM      4  H   UNL     1       2.037   6.873  19.986  0.00  0.00    +0.000 HD
ENDROOT
BRANCH   1   9
ATOM      5  C   UNL     1      -0.308  10.701  19.774  0.00  0.00    +0.000 A 
ATOM      6  C   UNL     1      -0.362  10.845  21.170  0.00  0.00    +0.000 A 
ATOM      7  C   UNL     1       0.370  10.001  22.003  0.00  0.00    +0.000 A 
ATOM      8  C   UNL     1       1.138   8.975  21.456  0.00  0.00    +0.000 A 
ATOM      9  C   UNL     1       1.185   8.781  20.078  0.00  0.00    +0.000 A 
ATOM     10  C   UNL     1       0.475   9.658  19.245  0.00  0.00    +0.000 A 
BRANCH   5  12
ATOM     11  C   UNL     1      -1.089  13.127  19.449  0.00  0.00    +0.000 C 
ATOM     12  C   UNL     1      -1.083  11.690  18.900  0.00  0.00    +0.000 C 
BRANCH  12  13
ATOM     13  C   UNL     1      -2.520  11.155  18.691  0.00  0.00    +0.000 C 
BRANCH  13  14
ATOM     14  C   UNL     1      -2.805  10.757  17.286  0.00  0.00    +0.000 A 
ATOM     15  N   UNL     1      -2.035  10.028  16.503  0.00  0.00    +0.000 NA
ATOM     16  N   UNL     1      -2.644   9.929  15.274  0.00  0.00    +0.000 NA
ATOM     17  C   UNL     1      -3.775  10.591  15.337  0.00  0.00    +0.000 A 
ATOM     18  N   UNL     1      -3.923  11.118  16.581  0.00  0.00    +0.000 N 
ATOM     19  C   UNL     1      -5.034  11.901  17.049  0.00  0.00    +0.000 C 
ENDBRANCH  13  14
ENDBRANCH  12  13
ENDBRANCH   5  12
ENDBRANCH   1   9
BRANCH   2  20
ATOM     20  C   UNL     1       3.268   6.526  17.871  0.00  0.00    +0.000 A 
ATOM     21  C   UNL     1       2.574   5.327  17.956  0.00  0.00    +0.000 A 
ATOM     22  C   UNL     1       3.206   4.134  17.608  0.00  0.00    +0.000 A 
ATOM     23  C   UNL     1       4.533   4.224  17.167  0.00  0.00    +0.000 A 
ATOM     24  C   UNL     1       5.181   5.466  17.092  0.00  0.00    +0.000 A 
ATOM     25  N   UNL     1       4.556   6.628  17.446  0.00  0.00    +0.000 NA
BRANCH  24  26
ATOM     26  C   UNL     1       6.620   5.529  16.588  0.00  0.00    +0.000 C 
ATOM     27  F   UNL     1       6.718   5.570  15.226  0.00  0.00    +0.000 F 
ATOM     28  F   UNL     1       7.288   6.630  17.035  0.00  0.00    +0.000 F 
ATOM     29  F   UNL     1       7.363   4.455  16.975  0.00  0.00    +0.000 F 
ENDBRANCH  24  26
BRANCH  22  30
ATOM     30  C   UNL     1       2.466   2.821  17.661  0.00  0.00    +0.000 C 
ATOM     31  C   UNL     1       3.091   1.615  18.320  0.00  0.00    +0.000 C 
ATOM     32  C   UNL     1       1.938   2.305  18.982  0.00  0.00    +0.000 C 
ENDBRANCH  22  30
ENDBRANCH   2  20
TORSDOF 7
ENDMDL
MODEL 3
REMARK VINA RESULT:      -8.9      2.340      3.489
REMARK  Name = 
REMARK  9 active torsions:
REMARK  status: ('A' for Active; 'I' for Inactive)
REMARK    1  A    between atoms: C_1  and  C_2
REMARK    2  A    between atoms: C_2  and  C_3
REMARK    3  A    between atoms: C_2  and  C_10
REMARK    4  A    between atoms: C_3  and  C_4
REMARK    5  A    between atoms: N_8  and  C_9
REMARK    6  A    between atoms: C_14  and  N_15
REMARK    7  A    between atoms: C_16  and  C_18
REMARK    8  A    between atoms: C_20  and  C_21
REMARK    9  A    between atoms: C_25  and  C_26
REMARK                            x       y       z     vdW  Elec       q    Type
REMARK                         _______ _______ _______ _____ _____    ______ ____
ROOT
ATOM      1  N   UNL     1       1.695   8.074  19.586  0.00  0.00    +0.000 N 
ATOM      2  C   UNL     1       2.280   8.047  18.335  0.00  0.00    +0.000 C 
ATOM      3  O   UNL     1       2.306   8.960  17.516  0.00  0.00    +0.000 OA
ATOM      4  H   UNL     1       1.854   7.246  20.155  0.00  0.00    +0.000 HD
ENDROOT
BRANCH   1   9
ATOM      5  C   UNL     1      -0.431  11.111  19.807  0.00  0.00    +0.000 A 
ATOM      6  C   UNL     1      -0.480  11.297  21.199  0.00  0.00    +0.000 A 
ATOM      7  C   UNL     1       0.227  10.457  22.056  0.00  0.00    +0.000 A 
ATOM      8  C   UNL     1       0.963   9.393  21.540  0.00  0.00    +0.000 A 
ATOM      9  C   UNL     1       1.003   9.157  20.168  0.00  0.00    +0.000 A 
ATOM     10  C   UNL     1       0.320  10.030  19.309  0.00  0.00    +0.000 A 
BRANCH   5  12
ATOM     11  C   UNL     1      -1.140  13.549  19.412  0.00  0.00    +0.000 C 
ATOM     12  C   UNL     1      -1.177  12.097  18.904  0.00  0.00    +0.000 C 
BRANCH  12  13
ATOM     13  C   UNL     1      -2.628  11.599  18.709  0.00  0.00    +0.000 C 
BRANCH  13  14
ATOM     14  C   UNL     1      -2.889  11.054  17.349  0.00  0.00    +0.000 A 
ATOM     15  N   UNL     1      -2.068  10.319  16.625  0.00  0.00    +0.000 NA
ATOM     16  N   UNL     1      -2.675  10.063  15.418  0.00  0.00    +0.000 NA
ATOM     17  C   UNL     1      -3.855  10.637  15.436  0.00  0.00    +0.000 A 
ATOM     18  N   UNL     1      -4.037  11.262  16.629  0.00  0.00    +0.000 N 
ATOM     19  C   UNL     1      -5.203  11.995  17.039  0.00  0.00    +0.000 C 
ENDBRANCH  13  14
ENDBRANCH  12  13
ENDBRANCH   5  12
ENDBRANCH   1   9
BRANCH   2  20
ATOM     20  C   UNL     1       2.966   6.759  18.002  0.00  0.00    +0.000 A 
ATOM     21  C   UNL     1       4.270   6.802  17.528  0.00  0.00    +0.000 A 
ATOM     22  C   UNL     1       4.933   5.618  17.211  0.00  0.00    +0.000 A 
ATOM     23  C   UNL     1       4.229   4.423  17.412  0.00  0.00    +0.000 A 
ATOM     24  C   UNL     1       2.915   4.440  17.903  0.00  0.00    +0.000 A 
ATOM     25  N   UNL     1       2.270   5.607  18.200  0.00  0.00    +0.000 NA
BRANCH  24  26
ATOM     26  C   UNL     1       2.185   3.118  18.129  0.00  0.00    +0.000 C 
ATOM     27  F   UNL     1       0.828   3.252  18.201  0.00  0.00    +0.000 F 
ATOM     28  F   UNL     1       2.410   2.214  17.133  0.00  0.00    +0.000 F 
ATOM     29  F   UNL     1       2.554   2.502  19.287  0.00  0.00    +0.000 F 
ENDBRANCH  24  26
BRANCH  22  30
ATOM     30  C   UNL     1       6.361   5.635  16.725  0.00  0.00    +0.000 C 
ATOM     31  C   UNL     1       7.349   6.630  17.284  0.00  0.00    +0.000 C 
ATOM     32  C   UNL     1       7.475   5.181  17.643  0.00  0.00    +0.000 C 
ENDBRANCH  22  30
ENDBRANCH   2  20
TORSDOF 7
ENDMDL
MODEL 4
REMARK VINA RESULT:      -8.8      3.613      9.191
REMARK  Name = 
REMARK  9 active torsions:
REMARK  status: ('A' for Active; 'I' for Inactive)
REMARK    1  A    between atoms: C_1  and  C_2
REMARK    2  A    between atoms: C_2  and  C_3
REMARK    3  A    between atoms: C_2  and  C_10
REMARK    4  A    between atoms: C_3  and  C_4
REMARK    5  A    between atoms: N_8  and  C_9
REMARK    6  A    between atoms: C_14  and  N_15
REMARK    7  A    between atoms: C_16  and  C_18
REMARK    8  A    between atoms: C_20  and  C_21
REMARK    9  A    between atoms: C_25  and  C_26
REMARK                            x       y       z     vdW  Elec       q    Type
REMARK                         _______ _______ _______ _____ _____    ______ ____
ROOT
ATOM      1  N   UNL     1       2.150   7.130  18.900  0.00  0.00    +0.000 N 
ATOM      2  C   UNL     1       2.028   8.374  18.313  0.00  0.00    +0.000 C 
ATOM      3  O   UNL     1       2.292   8.668  17.152  0.00  0.00    +0.000 OA
ATOM      4  H   UNL     1       1.797   7.065  19.852  0.00  0.00    +0.000 HD
ENDROOT
BRANCH   1   9
ATOM      5  C   UNL     1       4.357   4.886  16.929  0.00  0.00    +0.000 A 
ATOM      6  C   UNL     1       3.683   3.661  17.073  0.00  0.00    +0.000 A 
ATOM      7  C   UNL     1       2.481   3.587  17.773  0.00  0.00    +0.000 A 
ATOM      8  C   UNL     1       1.951   4.727  18.373  0.00  0.00    +0.000 A 
ATOM      9  C   UNL     1       2.611   5.949  18.281  0.00  0.00    +0.000 A 
ATOM     10  C   UNL     1       3.801   6.024  17.543  0.00  0.00    +0.000 A 
BRANCH   5  12
ATOM     11  C   UNL     1       5.717   3.834  15.019  0.00  0.00    +0.000 C 
ATOM     12  C   UNL     1       5.643   4.926  16.101  0.00  0.00    +0.000 C 
BRANCH  12  13
ATOM     13  C   UNL     1       6.858   4.864  17.057  0.00  0.00    +0.000 C 
BRANCH  13  14
ATOM     14  C   UNL     1       7.361   6.205  17.463  0.00  0.00    +0.000 A 
ATOM     15  N   UNL     1       7.379   7.295  16.723  0.00  0.00    +0.000 NA
ATOM     16  N   UNL     1       7.961   8.301  17.458  0.00  0.00    +0.000 NA
ATOM     17  C   UNL     1       8.275   7.806  18.632  0.00  0.00    +0.000 A 
ATOM     18  N   UNL     1       7.909   6.498  18.684  0.00  0.00    +0.000 N 
ATOM     19  C   UNL     1       8.075   5.610  19.802  0.00  0.00    +0.000 C 
ENDBRANCH  13  14
ENDBRANCH  12  13
ENDBRANCH   5  12
ENDBRANCH   1   9
BRANCH   2  20
ATOM     20  C   UNL     1       1.484   9.434  19.220  0.00  0.00    +0.000 A 
ATOM     21  C   UNL     1       1.496  10.753  18.785  0.00  0.00    +0.000 A 
ATOM     22  C   UNL     1       0.995  11.759  19.609  0.00  0.00    +0.000 A 
ATOM     23  C   UNL     1       0.481  11.365  20.852  0.00  0.00    +0.000 A 
ATOM     24  C   UNL     1       0.486  10.016  21.234  0.00  0.00    +0.000 A 
ATOM     25  N   UNL     1       0.990   9.038  20.424  0.00  0.00    +0.000 NA
BRANCH  24  26
ATOM     26  C   UNL     1      -0.100   9.620  22.586  0.00  0.00    +0.000 C 
ATOM     27  F   UNL     1      -0.895   8.511  22.531  0.00  0.00    +0.000 F 
ATOM     28  F   UNL     1       0.858   9.335  23.514  0.00  0.00    +0.000 F 
ATOM     29  F   UNL     1      -0.875  10.598  23.133  0.00  0.00    +0.000 F 
ENDBRANCH  24  26
BRANCH  22  30
ATOM     30  C   UNL     1       0.967  13.195  19.149  0.00  0.00    +0.000 C 
ATOM     31  C   UNL     1       1.954  14.196  19.699  0.00  0.00    +0.000 C 
ATOM     32  C   UNL     1       2.085  13.731  18.281  0.00  0.00    +0.000 C 
ENDBRANCH  22  30
ENDBRANCH   2  20
TORSDOF 7
ENDMDL
MODEL 5
REMARK VINA RESULT:      -8.8      3.614      9.246
REMARK  Name = 
REMARK  9 active torsions:
REMARK  status: ('A' for Active; 'I' for Inactive)
REMARK    1  A    between atoms: C_1  and  C_2
REMARK    2  A    between atoms: C_2  and  C_3
REMARK    3  A    between atoms: C_2  and  C_10
REMARK    4  A    between atoms: C_3  and  C_4
REMARK    5  A    between atoms: N_8  and  C_9
REMARK    6  A    between atoms: C_14  and  N_15
REMARK    7  A    between atoms: C_16  and  C_18
REMARK    8  A    between atoms: C_20  and  C_21
REMARK    9  A    between atoms: C_25  and  C_26
REMARK                            x       y       z     vdW  Elec       q    Type
REMARK                         _______ _______ _______ _____ _____    ______ ____
ROOT
ATOM      1  N   UNL     1       2.085   7.247  18.931  0.00  0.00    +0.000 N 
ATOM      2  C   UNL     1       1.934   8.501  18.370  0.00  0.00    +0.000 C 
ATOM      3  O   UNL     1       2.186   8.823  17.213  0.00  0.00    +0.000 OA
ATOM      4  H   UNL     1       1.738   7.156  19.883  0.00  0.00    +0.000 HD
ENDROOT
BRANCH   1   9
ATOM      5  C   UNL     1       4.306   5.099  16.872  0.00  0.00    +0.000 A 
ATOM      6  C   UNL     1       3.677   3.851  17.021  0.00  0.00    +0.000 A 
ATOM      7  C   UNL     1       2.499   3.729  17.754  0.00  0.00    +0.000 A 
ATOM      8  C   UNL     1       1.949   4.845  18.382  0.00  0.00    +0.000 A 
ATOM      9  C   UNL     1       2.566   6.089  18.285  0.00  0.00    +0.000 A 
ATOM     10  C   UNL     1       3.732   6.211  17.515  0.00  0.00    +0.000 A 
BRANCH   5  12
ATOM     11  C   UNL     1       5.596   4.178  14.849  0.00  0.00    +0.000 C 
ATOM     12  C   UNL     1       5.566   5.190  16.008  0.00  0.00    +0.000 C 
BRANCH  12  13
ATOM     13  C   UNL     1       6.809   5.051  16.917  0.00  0.00    +0.000 C 
BRANCH  13  14
ATOM     14  C   UNL     1       7.338   6.356  17.400  0.00  0.00    +0.000 A 
ATOM     15  N   UNL     1       7.359   7.492  16.732  0.00  0.00    +0.000 NA
ATOM     16  N   UNL     1       7.969   8.441  17.519  0.00  0.00    +0.000 NA
ATOM     17  C   UNL     1       8.295   7.866  18.653  0.00  0.00    +0.000 A 
ATOM     18  N   UNL     1       7.912   6.563  18.627  0.00  0.00    +0.000 N 
ATOM     19  C   UNL     1       8.084   5.602  19.683  0.00  0.00    +0.000 C 
ENDBRANCH  13  14
ENDBRANCH  12  13
ENDBRANCH   5  12
ENDBRANCH   1   9
BRANCH   2  20
ATOM     20  C   UNL     1       1.374   9.531  19.301  0.00  0.00    +0.000 A 
ATOM     21  C   UNL     1       1.336  10.854  18.884  0.00  0.00    +0.000 A 
ATOM     22  C   UNL     1       0.818  11.833  19.731  0.00  0.00    +0.000 A 
ATOM     23  C   UNL     1       0.341  11.407  20.977  0.00  0.00    +0.000 A 
ATOM     24  C   UNL     1       0.397  10.054  21.341  0.00  0.00    +0.000 A 
ATOM     25  N   UNL     1       0.916   9.103  20.509  0.00  0.00    +0.000 NA
BRANCH  24  26
ATOM     26  C   UNL     1      -0.151   9.621  22.698  0.00  0.00    +0.000 C 
ATOM     27  F   UNL     1      -0.941  10.564  23.292  0.00  0.00    +0.000 F 
ATOM     28  F   UNL     1      -0.919   8.497  22.624  0.00  0.00    +0.000 F 
ATOM     29  F   UNL     1       0.832   9.347  23.602  0.00  0.00    +0.000 F 
ENDBRANCH  24  26
BRANCH  22  30
ATOM     30  C   UNL     1       0.736  13.274  19.290  0.00  0.00    +0.000 C 
ATOM     31  C   UNL     1      -0.315  13.712  18.299  0.00  0.00    +0.000 C 
ATOM     32  C   UNL     1      -0.431  14.131  19.732  0.00  0.00    +0.000 C 
ENDBRANCH  22  30
ENDBRANCH   2  20
TORSDOF 7
ENDMDL
MODEL 6
REMARK VINA RESULT:      -8.8      2.732      4.382
REMARK  Name = 
REMARK  9 active torsions:
REMARK  status: ('A' for Active; 'I' for Inactive)
REMARK    1  A    between atoms: C_1  and  C_2
REMARK    2  A    between atoms: C_2  and  C_3
REMARK    3  A    between atoms: C_2  and  C_10
REMARK    4  A    between atoms: C_3  and  C_4
REMARK    5  A    between atoms: N_8  and  C_9
REMARK    6  A    between atoms: C_14  and  N_15
REMARK    7  A    between atoms: C_16  and  C_18
REMARK    8  A    between atoms: C_20  and  C_21
REMARK    9  A    between atoms: C_25  and  C_26
REMARK                            x       y       z     vdW  Elec       q    Type
REMARK                         _______ _______ _______ _____ _____    ______ ____
ROOT
ATOM      1  N   UNL     1       2.075   8.941  18.077  0.00  0.00    +0.000 N 
ATOM      2  C   UNL     1       2.149   7.964  19.051  0.00  0.00    +0.000 C 
ATOM      3  O   UNL     1       1.782   8.059  20.218  0.00  0.00    +0.000 OA
ATOM      4  H   UNL     1       2.350   8.643  17.145  0.00  0.00    +0.000 HD
ENDROOT
BRANCH   1   9
ATOM      5  C   UNL     1      -0.405  11.656  18.595  0.00  0.00    +0.000 A 
ATOM      6  C   UNL     1       0.439  12.779  18.643  0.00  0.00    +0.000 A 
ATOM      7  C   UNL     1       1.813  12.645  18.454  0.00  0.00    +0.000 A 
ATOM      8  C   UNL     1       2.371  11.385  18.252  0.00  0.00    +0.000 A 
ATOM      9  C   UNL     1       1.568  10.248  18.235  0.00  0.00    +0.000 A 
ATOM     10  C   UNL     1       0.181  10.394  18.388  0.00  0.00    +0.000 A 
BRANCH   5  12
ATOM     11  C   UNL     1      -2.331  12.356  20.146  0.00  0.00    +0.000 C 
ATOM     12  C   UNL     1      -1.914  11.862  18.749  0.00  0.00    +0.000 C 
BRANCH  12  13
ATOM     13  C   UNL     1      -2.641  10.551  18.369  0.00  0.00    +0.000 C 
BRANCH  13  14
ATOM     14  C   UNL     1      -2.979  10.460  16.922  0.00  0.00    +0.000 A 
ATOM     15  N   UNL     1      -2.292   9.828  15.991  0.00  0.00    +0.000 NA
ATOM     16  N   UNL     1      -2.922  10.026  14.785  0.00  0.00    +0.000 NA
ATOM     17  C   UNL     1      -3.984  10.765  15.008  0.00  0.00    +0.000 A 
ATOM     18  N   UNL     1      -4.066  11.053  16.333  0.00  0.00    +0.000 N 
ATOM     19  C   UNL     1      -5.090  11.830  16.975  0.00  0.00    +0.000 C 
ENDBRANCH  13  14
ENDBRANCH  12  13
ENDBRANCH   5  12
ENDBRANCH   1   9
BRANCH   2  20
ATOM     20  C   UNL     1       2.716   6.662  18.577  0.00  0.00    +0.000 A 
ATOM     21  C   UNL     1       2.247   5.485  19.146  0.00  0.00    +0.000 A 
ATOM     22  C   UNL     1       2.756   4.259  18.722  0.00  0.00    +0.000 A 
ATOM     23  C   UNL     1       3.725   4.290  17.710  0.00  0.00    +0.000 A 
ATOM     24  C   UNL     1       4.154   5.509  17.166  0.00  0.00    +0.000 A 
ATOM     25  N   UNL     1       3.657   6.707  17.596  0.00  0.00    +0.000 NA
BRANCH  24  26
ATOM     26  C   UNL     1       5.197   5.504  16.051  0.00  0.00    +0.000 C 
ATOM     27  F   UNL     1       5.129   6.600  15.238  0.00  0.00    +0.000 F 
ATOM     28  F   UNL     1       6.475   5.479  16.524  0.00  0.00    +0.000 F 
ATOM     29  F   UNL     1       5.080   4.428  15.223  0.00  0.00    +0.000 F 
ENDBRANCH  24  26
BRANCH  22  30
ATOM     30  C   UNL     1       2.241   2.964  19.299  0.00  0.00    +0.000 C 
ATOM     31  C   UNL     1       1.055   2.961  20.233  0.00  0.00    +0.000 C 
ATOM     32  C   UNL     1       0.905   2.415  18.846  0.00  0.00    +0.000 C 
ENDBRANCH  22  30
ENDBRANCH   2  20
TORSDOF 7
ENDMDL
MODEL 7
REMARK VINA RESULT:      -8.8      2.154      3.235
REMARK  Name = 
REMARK  9 active torsions:
REMARK  status: ('A' for Active; 'I' for Inactive)
REMARK    1  A    between atoms: C_1  and  C_2
REMARK    2  A    between atoms: C_2  and  C_3
REMARK    3  A    between atoms: C_2  and  C_10
REMARK    4  A    between atoms: C_3  and  C_4
REMARK    5  A    between atoms: N_8  and  C_9
REMARK    6  A    between atoms: C_14  and  N_15
REMARK    7  A    between atoms: C_16  and  C_18
REMARK    8  A    between atoms: C_20  and  C_21
REMARK    9  A    between atoms: C_25  and  C_26
REMARK                            x       y       z     vdW  Elec       q    Type
REMARK                         _______ _______ _______ _____ _____    ______ ____
ROOT
ATOM      1  N   UNL     1       2.092   8.592  18.009  0.00  0.00    +0.000 N 
ATOM      2  C   UNL     1       2.225   7.642  19.004  0.00  0.00    +0.000 C 
ATOM      3  O   UNL     1       1.952   7.780  20.192  0.00  0.00    +0.000 OA
ATOM      4  H   UNL     1       2.288   8.261  17.068  0.00  0.00    +0.000 HD
ENDROOT
BRANCH   1   9
ATOM      5  C   UNL     1      -0.310  11.376  18.527  0.00  0.00    +0.000 A 
ATOM      6  C   UNL     1       0.565  12.474  18.570  0.00  0.00    +0.000 A 
ATOM      7  C   UNL     1       1.934  12.303  18.378  0.00  0.00    +0.000 A 
ATOM      8  C   UNL     1       2.456  11.027  18.176  0.00  0.00    +0.000 A 
ATOM      9  C   UNL     1       1.622   9.912  18.165  0.00  0.00    +0.000 A 
ATOM     10  C   UNL     1       0.240  10.097  18.322  0.00  0.00    +0.000 A 
BRANCH   5  12
ATOM     11  C   UNL     1      -2.218  12.080  20.099  0.00  0.00    +0.000 C 
ATOM     12  C   UNL     1      -1.812  11.624  18.686  0.00  0.00    +0.000 C 
BRANCH  12  13
ATOM     13  C   UNL     1      -2.579  10.352  18.256  0.00  0.00    +0.000 C 
BRANCH  13  14
ATOM     14  C   UNL     1      -2.948  10.342  16.814  0.00  0.00    +0.000 A 
ATOM     15  N   UNL     1      -2.298   9.739  15.840  0.00  0.00    +0.000 NA
ATOM     16  N   UNL     1      -2.946  10.013  14.659  0.00  0.00    +0.000 NA
ATOM     17  C   UNL     1      -3.982  10.767  14.939  0.00  0.00    +0.000 A 
ATOM     18  N   UNL     1      -4.030  10.992  16.279  0.00  0.00    +0.000 N 
ATOM     19  C   UNL     1      -5.019  11.763  16.980  0.00  0.00    +0.000 C 
ENDBRANCH  13  14
ENDBRANCH  12  13
ENDBRANCH   5  12
ENDBRANCH   1   9
BRANCH   2  20
ATOM     20  C   UNL     1       2.729   6.316  18.528  0.00  0.00    +0.000 A 
ATOM     21  C   UNL     1       3.869   6.282  17.736  0.00  0.00    +0.000 A 
ATOM     22  C   UNL     1       4.361   5.060  17.280  0.00  0.00    +0.000 A 
ATOM     23  C   UNL     1       3.665   3.909  17.672  0.00  0.00    +0.000 A 
ATOM     24  C   UNL     1       2.524   4.004  18.483  0.00  0.00    +0.000 A 
ATOM     25  N   UNL     1       2.043   5.207  18.915  0.00  0.00    +0.000 NA
BRANCH  24  26
ATOM     26  C   UNL     1       1.802   2.728  18.908  0.00  0.00    +0.000 C 
ATOM     27  F   UNL     1       1.601   2.641  20.257  0.00  0.00    +0.000 F 
ATOM     28  F   UNL     1       0.566   2.608  18.346  0.00  0.00    +0.000 F 
ATOM     29  F   UNL     1       2.482   1.597  18.567  0.00  0.00    +0.000 F 
ENDBRANCH  24  26
BRANCH  22  30
ATOM     30  C   UNL     1       5.616   4.993  16.445  0.00  0.00    +0.000 C 
ATOM     31  C   UNL     1       5.742   3.981  15.333  0.00  0.00    +0.000 C 
ATOM     32  C   UNL     1       5.582   5.432  14.997  0.00  0.00    +0.000 C 
ENDBRANCH  22  30
ENDBRANCH   2  20
TORSDOF 7
ENDMDL
MODEL 8
REMARK VINA RESULT:      -8.8      2.851      4.450
REMARK  Name = 
REMARK  9 active torsions:
REMARK  status: ('A' for Active; 'I' for Inactive)
REMARK    1  A    between atoms: C_1  and  C_2
REMARK    2  A    between atoms: C_2  and  C_3
REMARK    3  A    between atoms: C_2  and  C_10
REMARK    4  A    between atoms: C_3  and  C_4
REMARK    5  A    between atoms: N_8  and  C_9
REMARK    6  A    between atoms: C_14  and  N_15
REMARK    7  A    between atoms: C_16  and  C_18
REMARK    8  A    between atoms: C_20  and  C_21
REMARK    9  A    between atoms: C_25  and  C_26
REMARK                            x       y       z     vdW  Elec       q    Type
REMARK                         _______ _______ _______ _____ _____    ______ ____
ROOT
ATOM      1  N   UNL     1       1.613   7.835  19.632  0.00  0.00    +0.000 N 
ATOM      2  C   UNL     1       2.421   7.765  18.513  0.00  0.00    +0.000 C 
ATOM      3  O   UNL     1       2.754   8.696  17.788  0.00  0.00    +0.000 OA
ATOM      4  H   UNL     1       1.522   6.968  20.154  0.00  0.00    +0.000 HD
ENDROOT
BRANCH   1   9
ATOM      5  C   UNL     1      -0.261  11.040  19.696  0.00  0.00    +0.000 A 
ATOM      6  C   UNL     1      -0.311  11.289  21.079  0.00  0.00    +0.000 A 
ATOM      7  C   UNL     1       0.316  10.431  21.980  0.00  0.00    +0.000 A 
ATOM      8  C   UNL     1       0.969   9.290  21.519  0.00  0.00    +0.000 A 
ATOM      9  C   UNL     1       1.006   8.994  20.159  0.00  0.00    +0.000 A 
ATOM     10  C   UNL     1       0.405   9.882  19.254  0.00  0.00    +0.000 A 
BRANCH   5  12
ATOM     11  C   UNL     1      -0.687  13.514  19.142  0.00  0.00    +0.000 C 
ATOM     12  C   UNL     1      -0.914  12.045  18.744  0.00  0.00    +0.000 C 
BRANCH  12  13
ATOM     13  C   UNL     1      -2.421  11.715  18.623  0.00  0.00    +0.000 C 
BRANCH  13  14
ATOM     14  C   UNL     1      -2.799  11.150  17.299  0.00  0.00    +0.000 A 
ATOM     15  N   UNL     1      -2.027  10.447  16.494  0.00  0.00    +0.000 NA
ATOM     16  N   UNL     1      -2.745  10.156  15.358  0.00  0.00    +0.000 NA
ATOM     17  C   UNL     1      -3.941  10.677  15.499  0.00  0.00    +0.000 A 
ATOM     18  N   UNL     1      -4.024  11.301  16.704  0.00  0.00    +0.000 N 
ATOM     19  C   UNL     1      -5.173  11.984  17.233  0.00  0.00    +0.000 C 
ENDBRANCH  13  14
ENDBRANCH  12  13
ENDBRANCH   5  12
ENDBRANCH   1   9
BRANCH   2  20
ATOM     20  C   UNL     1       2.942   6.394  18.213  0.00  0.00    +0.000 A 
ATOM     21  C   UNL     1       2.372   5.308  18.864  0.00  0.00    +0.000 A 
ATOM     22  C   UNL     1       2.837   4.021  18.603  0.00  0.00    +0.000 A 
ATOM     23  C   UNL     1       3.868   3.897  17.662  0.00  0.00    +0.000 A 
ATOM     24  C   UNL     1       4.399   5.030  17.028  0.00  0.00    +0.000 A 
ATOM     25  N   UNL     1       3.944   6.289  17.299  0.00  0.00    +0.000 NA
BRANCH  24  26
ATOM     26  C   UNL     1       5.508   4.856  15.993  0.00  0.00    +0.000 C 
ATOM     27  F   UNL     1       5.927   6.033  15.443  0.00  0.00    +0.000 F 
ATOM     28  F   UNL     1       6.628   4.277  16.512  0.00  0.00    +0.000 F 
ATOM     29  F   UNL     1       5.132   4.074  14.942  0.00  0.00    +0.000 F 
ENDBRANCH  24  26
BRANCH  22  30
ATOM     30  C   UNL     1       2.214   2.821  19.272  0.00  0.00    +0.000 C 
ATOM     31  C   UNL     1       1.044   2.989  20.211  0.00  0.00    +0.000 C 
ATOM     32  C   UNL     1       0.829   2.366  18.866  0.00  0.00    +0.000 C 
ENDBRANCH  22  30
ENDBRANCH   2  20
TORSDOF 7
ENDMDL
MODEL 9
REMARK VINA RESULT:      -8.8      2.530      3.736
REMARK  Name = 
REMARK  9 active torsions:
REMARK  status: ('A' for Active; 'I' for Inactive)
REMARK    1  A    between atoms: C_1  and  C_2
REMARK    2  A    between atoms: C_2  and  C_3
REMARK    3  A    between atoms: C_2  and  C_10
REMARK    4  A    between atoms: C_3  and  C_4
REMARK    5  A    between atoms: N_8  and  C_9
REMARK    6  A    between atoms: C_14  and  N_15
REMARK    7  A    between atoms: C_16  and  C_18
REMARK    8  A    between atoms: C_20  and  C_21
REMARK    9  A    between atoms: C_25  and  C_26
REMARK                            x       y       z     vdW  Elec       q    Type
REMARK                         _______ _______ _______ _____ _____    ______ ____
ROOT
ATOM      1  N   UNL     1       1.765   7.697  20.435  0.00  0.00    +0.000 N 
ATOM      2  C   UNL     1       2.355   7.472  19.206  0.00  0.00    +0.000 C 
ATOM      3  O   UNL     1       2.327   8.215  18.230  0.00  0.00    +0.000 OA
ATOM      4  H   UNL     1       1.974   7.003  21.148  0.00  0.00    +0.000 HD
ENDROOT
BRANCH   1   9
ATOM      5  C   UNL     1      -0.300  10.761  20.065  0.00  0.00    +0.000 A 
ATOM      6  C   UNL     1      -0.588  11.048  21.411  0.00  0.00    +0.000 A 
ATOM      7  C   UNL     1      -0.061  10.265  22.435  0.00  0.00    +0.000 A 
ATOM      8  C   UNL     1       0.732   9.160  22.132  0.00  0.00    +0.000 A 
ATOM      9  C   UNL     1       1.006   8.826  20.809  0.00  0.00    +0.000 A 
ATOM     10  C   UNL     1       0.503   9.640  19.784  0.00  0.00    +0.000 A 
BRANCH   5  12
ATOM     11  C   UNL     1      -0.584  13.178  19.240  0.00  0.00    +0.000 C 
ATOM     12  C   UNL     1      -0.855  11.686  18.979  0.00  0.00    +0.000 C 
BRANCH  12  13
ATOM     13  C   UNL     1      -2.366  11.404  18.804  0.00  0.00    +0.000 C 
BRANCH  13  14
ATOM     14  C   UNL     1      -2.724  10.916  17.444  0.00  0.00    +0.000 A 
ATOM     15  N   UNL     1      -1.974  10.177  16.652  0.00  0.00    +0.000 NA
ATOM     16  N   UNL     1      -2.657   9.985  15.474  0.00  0.00    +0.000 NA
ATOM     17  C   UNL     1      -3.811  10.601  15.578  0.00  0.00    +0.000 A 
ATOM     18  N   UNL     1      -3.901  11.191  16.799  0.00  0.00    +0.000 N 
ATOM     19  C   UNL     1      -5.013  11.952  17.298  0.00  0.00    +0.000 C 
ENDBRANCH  13  14
ENDBRANCH  12  13
ENDBRANCH   5  12
ENDBRANCH   1   9
BRANCH   2  20
ATOM     20  C   UNL     1       3.121   6.189  19.115  0.00  0.00    +0.000 A 
ATOM     21  C   UNL     1       4.194   6.115  18.237  0.00  0.00    +0.000 A 
ATOM     22  C   UNL     1       4.926   4.933  18.133  0.00  0.00    +0.000 A 
ATOM     23  C   UNL     1       4.531   3.868  18.955  0.00  0.00    +0.000 A 
ATOM     24  C   UNL     1       3.444   4.004  19.830  0.00  0.00    +0.000 A 
ATOM     25  N   UNL     1       2.726   5.163  19.916  0.00  0.00    +0.000 NA
BRANCH  24  26
ATOM     26  C   UNL     1       3.054   2.830  20.725  0.00  0.00    +0.000 C 
ATOM     27  F   UNL     1       2.122   2.004  20.165  0.00  0.00    +0.000 F 
ATOM     28  F   UNL     1       4.113   2.028  21.034  0.00  0.00    +0.000 F 
ATOM     29  F   UNL     1       2.523   3.227  21.915  0.00  0.00    +0.000 F 
ENDBRANCH  24  26
BRANCH  22  30
ATOM     30  C   UNL     1       6.116   4.837  17.212  0.00  0.00    +0.000 C 
ATOM     31  C   UNL     1       7.088   5.986  17.093  0.00  0.00    +0.000 C 
ATOM     32  C   UNL     1       7.510   4.729  17.791  0.00  0.00    +0.000 C 
ENDBRANCH  22  30
ENDBRANCH   2  20
TORSDOF 7
ENDMDL
