MODEL 1
REMARK VINA RESULT:      -8.3      0.000      0.000
REMARK  Name = 
REMARK  10 active torsions:
REMARK  status: ('A' for Active; 'I' for Inactive)
REMARK    1  A    between atoms: C_1  and  C_2
REMARK    2  A    between atoms: C_2  and  C_3
REMARK    3  A    between atoms: C_2  and  C_10
REMARK    4  A    between atoms: C_3  and  C_4
REMARK    5  A    between atoms: N_8  and  C_9
REMARK    6  A    between atoms: C_14  and  N_15
REMARK    7  A    between atoms: C_16  and  C_18
REMARK    8  A    between atoms: C_20  and  C_21
REMARK    9  A    between atoms: C_25  and  O_26
REMARK   10  A    between atoms: C_28  and  C_29
REMARK                            x       y       z     vdW  Elec       q    Type
REMARK                         _______ _______ _______ _____ _____    ______ ____
ROOT
ATOM      1  N   UNL     1       2.099   7.194  20.708  0.00  0.00    +0.000 N 
ATOM      2  C   UNL     1       1.593   5.910  20.596  0.00  0.00    +0.000 C 
ATOM      3  O   UNL     1       0.417   5.574  20.650  0.00  0.00    +0.000 OA
ATOM      4  H   UNL     1       3.098   7.277  20.546  0.00  0.00    +0.000 HD
ENDROOT
BRANCH   1   9
ATOM      5  C   UNL     1       0.166  10.306  20.060  0.00  0.00    +0.000 A 
ATOM      6  C   UNL     1      -0.171  10.671  21.371  0.00  0.00    +0.000 A 
ATOM      7  C   UNL     1       0.262   9.918  22.457  0.00  0.00    +0.000 A 
ATOM      8  C   UNL     1       1.018   8.770  22.253  0.00  0.00    +0.000 A 
ATOM      9  C   UNL     1       1.356   8.362  20.964  0.00  0.00    +0.000 A 
ATOM     10  C   UNL     1       0.946   9.145  19.875  0.00  0.00    +0.000 A 
BRANCH   5  12
ATOM     11  C   UNL     1       0.511  12.427  18.652  0.00  0.00    +0.000 C 
ATOM     12  C   UNL     1      -0.282  11.120  18.843  0.00  0.00    +0.000 C 
BRANCH  12  13
ATOM     13  C   UNL     1      -1.803  11.394  18.919  0.00  0.00    +0.000 C 
BRANCH  13  14
ATOM     14  C   UNL     1      -2.514  11.052  17.654  0.00  0.00    +0.000 A 
ATOM     15  N   UNL     1      -1.989  10.458  16.600  0.00  0.00    +0.000 NA
ATOM     16  N   UNL     1      -2.950  10.400  15.618  0.00  0.00    +0.000 NA
ATOM     17  C   UNL     1      -4.042  10.945  16.098  0.00  0.00    +0.000 A 
ATOM     18  N   UNL     1      -3.825  11.339  17.381  0.00  0.00    +0.000 N 
ATOM     19  C   UNL     1      -4.796  11.930  18.262  0.00  0.00    +0.000 C 
ENDBRANCH  13  14
ENDBRANCH  12  13
ENDBRANCH   5  12
ENDBRANCH   1   9
BRANCH   2  20
ATOM     20  C   UNL     1       2.623   4.864  20.346  0.00  0.00    +0.000 A 
ATOM     21  C   UNL     1       3.722   5.175  19.561  0.00  0.00    +0.000 A 
ATOM     22  C   UNL     1       4.703   4.203  19.358  0.00  0.00    +0.000 A 
ATOM     23  C   UNL     1       4.470   2.929  19.866  0.00  0.00    +0.000 A 
ATOM     24  C   UNL     1       3.353   2.715  20.664  0.00  0.00    +0.000 A 
ATOM     25  N   UNL     1       2.429   3.655  20.936  0.00  0.00    +0.000 NA
BRANCH  22  26
ATOM     26  C   UNL     1       5.920   4.666  18.628  0.00  0.00    +0.000 C 
ATOM     27  O   UNL     1       6.874   5.017  19.326  0.00  0.00    +0.000 OA
ATOM     28  N   UNL     1       6.036   4.623  17.244  0.00  0.00    +0.000 N 
ATOM     29  C   UNL     1       7.340   4.881  16.644  0.00  0.00    +0.000 C 
ATOM     30  C   UNL     1       7.028   5.645  15.366  0.00  0.00    +0.000 C 
ATOM     31  C   UNL     1       5.688   5.073  14.922  0.00  0.00    +0.000 C 
ATOM     32  C   UNL     1       5.008   4.570  16.205  0.00  0.00    +0.000 C 
ATOM     33  C   UNL     1       4.434   3.175  15.967  0.00  0.00    +0.000 C 
BRANCH  30  34
ATOM     34  O   UNL     1       8.006   5.468  14.353  0.00  0.00    +0.000 OA
ATOM     35  H   UNL     1       8.843   5.853  14.664  0.00  0.00    +0.000 HD
ENDBRANCH  30  34
ENDBRANCH  22  26
ENDBRANCH   2  20
TORSDOF 7
ENDMDL
MODEL 2
REMARK VINA RESULT:      -8.2      1.629      1.995
REMARK  Name = 
REMARK  10 active torsions:
REMARK  status: ('A' for Active; 'I' for Inactive)
REMARK    1  A    between atoms: C_1  and  C_2
REMARK    2  A    between atoms: C_2  and  C_3
REMARK    3  A    between atoms: C_2  and  C_10
REMARK    4  A    between atoms: C_3  and  C_4
REMARK    5  A    between atoms: N_8  and  C_9
REMARK    6  A    between atoms: C_14  and  N_15
REMARK    7  A    between atoms: C_16  and  C_18
REMARK    8  A    between atoms: C_20  and  C_21
REMARK    9  A    between atoms: C_25  and  O_26
REMARK   10  A    between atoms: C_28  and  C_29
REMARK                            x       y       z     vdW  Elec       q    Type
REMARK                         _______ _______ _______ _____ _____    ______ ____
ROOT
ATOM      1  N   UNL     1       0.773   7.874  21.078  0.00  0.00    +0.000 N 
ATOM      2  C   UNL     1       1.632   7.626  20.022  0.00  0.00    +0.000 C 
ATOM      3  O   UNL     1       2.052   8.437  19.207  0.00  0.00    +0.000 OA
ATOM      4  H   UNL     1       0.613   7.083  21.696  0.00  0.00    +0.000 HD
ENDROOT
BRANCH   1   9
ATOM      5  C   UNL     1      -0.820  11.199  20.576  0.00  0.00    +0.000 A 
ATOM      6  C   UNL     1      -1.087  11.553  21.905  0.00  0.00    +0.000 A 
ATOM      7  C   UNL     1      -0.717  10.721  22.956  0.00  0.00    +0.000 A 
ATOM      8  C   UNL     1      -0.096   9.505  22.698  0.00  0.00    +0.000 A 
ATOM      9  C   UNL     1       0.169   9.106  21.389  0.00  0.00    +0.000 A 
ATOM     10  C   UNL     1      -0.175   9.966  20.335  0.00  0.00    +0.000 A 
BRANCH   5  12
ATOM     11  C   UNL     1      -0.852  13.582  19.616  0.00  0.00    +0.000 C 
ATOM     12  C   UNL     1      -1.201  12.097  19.396  0.00  0.00    +0.000 C 
BRANCH  12  13
ATOM     13  C   UNL     1      -2.700  11.919  19.057  0.00  0.00    +0.000 C 
BRANCH  13  14
ATOM     14  C   UNL     1      -2.919  11.350  17.696  0.00  0.00    +0.000 A 
ATOM     15  N   UNL     1      -2.032  10.698  16.971  0.00  0.00    +0.000 NA
ATOM     16  N   UNL     1      -2.601  10.415  15.751  0.00  0.00    +0.000 NA
ATOM     17  C   UNL     1      -3.825  10.886  15.764  0.00  0.00    +0.000 A 
ATOM     18  N   UNL     1      -4.079  11.452  16.974  0.00  0.00    +0.000 N 
ATOM     19  C   UNL     1      -5.327  12.030  17.394  0.00  0.00    +0.000 C 
ENDBRANCH  13  14
ENDBRANCH  12  13
ENDBRANCH   5  12
ENDBRANCH   1   9
BRANCH   2  20
ATOM     20  C   UNL     1       2.097   6.214  19.927  0.00  0.00    +0.000 A 
ATOM     21  C   UNL     1       2.480   5.713  18.694  0.00  0.00    +0.000 A 
ATOM     22  C   UNL     1       2.949   4.400  18.614  0.00  0.00    +0.000 A 
ATOM     23  C   UNL     1       2.903   3.623  19.768  0.00  0.00    +0.000 A 
ATOM     24  C   UNL     1       2.529   4.217  20.967  0.00  0.00    +0.000 A 
ATOM     25  N   UNL     1       2.142   5.501  21.084  0.00  0.00    +0.000 NA
BRANCH  22  26
ATOM     26  C   UNL     1       3.479   3.990  17.280  0.00  0.00    +0.000 C 
ATOM     27  O   UNL     1       2.758   3.247  16.611  0.00  0.00    +0.000 OA
ATOM     28  N   UNL     1       4.669   4.479  16.755  0.00  0.00    +0.000 N 
ATOM     29  C   UNL     1       4.984   4.198  15.359  0.00  0.00    +0.000 C 
ATOM     30  C   UNL     1       6.491   3.989  15.343  0.00  0.00    +0.000 C 
ATOM     31  C   UNL     1       6.996   4.923  16.435  0.00  0.00    +0.000 C 
ATOM     32  C   UNL     1       5.826   5.078  17.418  0.00  0.00    +0.000 C 
ATOM     33  C   UNL     1       5.647   6.554  17.772  0.00  0.00    +0.000 C 
BRANCH  30  34
ATOM     34  O   UNL     1       7.089   4.310  14.097  0.00  0.00    +0.000 OA
ATOM     35  H   UNL     1       7.876   4.856  14.264  0.00  0.00    +0.000 HD
ENDBRANCH  30  34
ENDBRANCH  22  26
ENDBRANCH   2  20
TORSDOF 7
ENDMDL
MODEL 3
REMARK VINA RESULT:      -8.1      5.655      8.400
REMARK  Name = 
REMARK  10 active torsions:
REMARK  status: ('A' for Active; 'I' for Inactive)
REMARK    1  A    between atoms: C_1  and  C_2
REMARK    2  A    between atoms: C_2  and  C_3
REMARK    3  A    between atoms: C_2  and  C_10
REMARK    4  A    between atoms: C_3  and  C_4
REMARK    5  A    between atoms: N_8  and  C_9
REMARK    6  A    between atoms: C_14  and  N_15
REMARK    7  A    between atoms: C_16  and  C_18
REMARK    8  A    between atoms: C_20  and  C_21
REMARK    9  A    between atoms: C_25  and  O_26
REMARK   10  A    between atoms: C_28  and  C_29
REMARK                            x       y       z     vdW  Elec       q    Type
REMARK                         _______ _______ _______ _____ _____    ______ ____
ROOT
ATOM      1  N   UNL     1       7.761   8.996  18.071  0.00  0.00    +0.000 N 
ATOM      2  C   UNL     1       7.860   7.637  18.314  0.00  0.00    +0.000 C 
ATOM      3  O   UNL     1       8.708   7.068  18.990  0.00  0.00    +0.000 OA
ATOM      4  H   UNL     1       6.932   9.281  17.558  0.00  0.00    +0.000 HD
ENDROOT
BRANCH   1   9
ATOM      5  C   UNL     1       9.726  12.156  18.096  0.00  0.00    +0.000 A 
ATOM      6  C   UNL     1      10.375  12.038  19.332  0.00  0.00    +0.000 A 
ATOM      7  C   UNL     1      10.193  10.916  20.133  0.00  0.00    +0.000 A 
ATOM      8  C   UNL     1       9.337   9.900  19.726  0.00  0.00    +0.000 A 
ATOM      9  C   UNL     1       8.656   9.988  18.513  0.00  0.00    +0.000 A 
ATOM     10  C   UNL     1       8.871  11.106  17.694  0.00  0.00    +0.000 A 
BRANCH   5  12
ATOM     11  C   UNL     1      11.332  13.478  16.589  0.00  0.00    +0.000 C 
ATOM     12  C   UNL     1       9.915  13.370  17.184  0.00  0.00    +0.000 C 
BRANCH  12  13
ATOM     13  C   UNL     1       9.525  14.664  17.938  0.00  0.00    +0.000 C 
BRANCH  13  14
ATOM     14  C   UNL     1       8.071  14.723  18.267  0.00  0.00    +0.000 A 
ATOM     15  N   UNL     1       7.073  14.477  17.441  0.00  0.00    +0.000 NA
ATOM     16  N   UNL     1       5.895  14.719  18.108  0.00  0.00    +0.000 NA
ATOM     17  C   UNL     1       6.199  15.092  19.328  0.00  0.00    +0.000 A 
ATOM     18  N   UNL     1       7.550  15.078  19.483  0.00  0.00    +0.000 N 
ATOM     19  C   UNL     1       8.267  15.372  20.694  0.00  0.00    +0.000 C 
ENDBRANCH  13  14
ENDBRANCH  12  13
ENDBRANCH   5  12
ENDBRANCH   1   9
BRANCH   2  20
ATOM     20  C   UNL     1       6.776   6.822  17.697  0.00  0.00    +0.000 A 
ATOM     21  C   UNL     1       6.251   5.753  18.405  0.00  0.00    +0.000 A 
ATOM     22  C   UNL     1       5.212   5.014  17.839  0.00  0.00    +0.000 A 
ATOM     23  C   UNL     1       4.828   5.323  16.538  0.00  0.00    +0.000 A 
ATOM     24  C   UNL     1       5.391   6.429  15.913  0.00  0.00    +0.000 A 
ATOM     25  N   UNL     1       6.344   7.203  16.466  0.00  0.00    +0.000 NA
BRANCH  22  26
ATOM     26  C   UNL     1       4.606   3.978  18.728  0.00  0.00    +0.000 C 
ATOM     27  O   UNL     1       5.269   2.953  18.901  0.00  0.00    +0.000 OA
ATOM     28  N   UNL     1       3.412   4.170  19.411  0.00  0.00    +0.000 N 
ATOM     29  C   UNL     1       3.023   3.197  20.426  0.00  0.00    +0.000 C 
ATOM     30  C   UNL     1       1.510   3.096  20.297  0.00  0.00    +0.000 C 
ATOM     31  C   UNL     1       1.090   4.498  19.876  0.00  0.00    +0.000 C 
ATOM     32  C   UNL     1       2.309   5.095  19.156  0.00  0.00    +0.000 C 
ATOM     33  C   UNL     1       2.557   6.516  19.662  0.00  0.00    +0.000 C 
BRANCH  30  34
ATOM     34  O   UNL     1       0.868   2.725  21.507  0.00  0.00    +0.000 OA
ATOM     35  H   UNL     1       0.052   2.243  21.287  0.00  0.00    +0.000 HD
ENDBRANCH  30  34
ENDBRANCH  22  26
ENDBRANCH   2  20
TORSDOF 7
ENDMDL
MODEL 4
REMARK VINA RESULT:      -8.1      6.118      8.758
REMARK  Name = 
REMARK  10 active torsions:
REMARK  status: ('A' for Active; 'I' for Inactive)
REMARK    1  A    between atoms: C_1  and  C_2
REMARK    2  A    between atoms: C_2  and  C_3
REMARK    3  A    between atoms: C_2  and  C_10
REMARK    4  A    between atoms: C_3  and  C_4
REMARK    5  A    between atoms: N_8  and  C_9
REMARK    6  A    between atoms: C_14  and  N_15
REMARK    7  A    between atoms: C_16  and  C_18
REMARK    8  A    between atoms: C_20  and  C_21
REMARK    9  A    between atoms: C_25  and  O_26
REMARK   10  A    between atoms: C_28  and  C_29
REMARK                            x       y       z     vdW  Elec       q    Type
REMARK                         _______ _______ _______ _____ _____    ______ ____
ROOT
ATOM      1  N   UNL     1       7.908   8.972  17.938  0.00  0.00    +0.000 N 
ATOM      2  C   UNL     1       7.957   7.612  18.189  0.00  0.00    +0.000 C 
ATOM      3  O   UNL     1       8.686   7.034  18.985  0.00  0.00    +0.000 OA
ATOM      4  H   UNL     1       7.170   9.265  17.305  0.00  0.00    +0.000 HD
ENDROOT
BRANCH   1   9
ATOM      5  C   UNL     1       9.812  12.148  18.304  0.00  0.00    +0.000 A 
ATOM      6  C   UNL     1      10.318  11.990  19.602  0.00  0.00    +0.000 A 
ATOM      7  C   UNL     1      10.061  10.837  20.335  0.00  0.00    +0.000 A 
ATOM      8  C   UNL     1       9.271   9.828  19.795  0.00  0.00    +0.000 A 
ATOM      9  C   UNL     1       8.733   9.955  18.516  0.00  0.00    +0.000 A 
ATOM     10  C   UNL     1       9.024  11.106  17.768  0.00  0.00    +0.000 A 
BRANCH   5  12
ATOM     11  C   UNL     1      11.261  13.231  16.480  0.00  0.00    +0.000 C 
ATOM     12  C   UNL     1      10.087  13.398  17.465  0.00  0.00    +0.000 C 
BRANCH  12  13
ATOM     13  C   UNL     1      10.302  14.620  18.389  0.00  0.00    +0.000 C 
BRANCH  13  14
ATOM     14  C   UNL     1       9.060  15.422  18.582  0.00  0.00    +0.000 A 
ATOM     15  N   UNL     1       8.523  16.251  17.708  0.00  0.00    +0.000 NA
ATOM     16  N   UNL     1       7.435  16.850  18.299  0.00  0.00    +0.000 NA
ATOM     17  C   UNL     1       7.323  16.363  19.512  0.00  0.00    +0.000 A 
ATOM     18  N   UNL     1       8.300  15.441  19.721  0.00  0.00    +0.000 N 
ATOM     19  C   UNL     1       8.478  14.650  20.908  0.00  0.00    +0.000 C 
ENDBRANCH  13  14
ENDBRANCH  12  13
ENDBRANCH   5  12
ENDBRANCH   1   9
BRANCH   2  20
ATOM     20  C   UNL     1       6.974   6.808  17.410  0.00  0.00    +0.000 A 
ATOM     21  C   UNL     1       5.723   6.564  17.954  0.00  0.00    +0.000 A 
ATOM     22  C   UNL     1       4.792   5.840  17.207  0.00  0.00    +0.000 A 
ATOM     23  C   UNL     1       5.210   5.304  15.993  0.00  0.00    +0.000 A 
ATOM     24  C   UNL     1       6.474   5.622  15.513  0.00  0.00    +0.000 A 
ATOM     25  N   UNL     1       7.365   6.379  16.181  0.00  0.00    +0.000 NA
BRANCH  22  26
ATOM     26  C   UNL     1       3.426   5.751  17.801  0.00  0.00    +0.000 C 
ATOM     27  O   UNL     1       2.722   6.759  17.705  0.00  0.00    +0.000 OA
ATOM     28  N   UNL     1       2.913   4.583  18.351  0.00  0.00    +0.000 N 
ATOM     29  C   UNL     1       1.497   4.536  18.695  0.00  0.00    +0.000 C 
ATOM     30  C   UNL     1       1.441   3.705  19.969  0.00  0.00    +0.000 C 
ATOM     31  C   UNL     1       2.583   2.711  19.801  0.00  0.00    +0.000 C 
ATOM     32  C   UNL     1       3.594   3.398  18.870  0.00  0.00    +0.000 C 
ATOM     33  C   UNL     1       4.046   2.415  17.791  0.00  0.00    +0.000 C 
BRANCH  30  34
ATOM     34  O   UNL     1       0.208   3.024  20.141  0.00  0.00    +0.000 OA
ATOM     35  H   UNL     1       0.355   2.076  19.978  0.00  0.00    +0.000 HD
ENDBRANCH  30  34
ENDBRANCH  22  26
ENDBRANCH   2  20
TORSDOF 7
ENDMDL
MODEL 5
REMARK VINA RESULT:      -8.1      3.604      9.618
REMARK  Name = 
REMARK  10 active torsions:
REMARK  status: ('A' for Active; 'I' for Inactive)
REMARK    1  A    between atoms: C_1  and  C_2
REMARK    2  A    between atoms: C_2  and  C_3
REMARK    3  A    between atoms: C_2  and  C_10
REMARK    4  A    between atoms: C_3  and  C_4
REMARK    5  A    between atoms: N_8  and  C_9
REMARK    6  A    between atoms: C_14  and  N_15
REMARK    7  A    between atoms: C_16  and  C_18
REMARK    8  A    between atoms: C_20  and  C_21
REMARK    9  A    between atoms: C_25  and  O_26
REMARK   10  A    between atoms: C_28  and  C_29
REMARK                            x       y       z     vdW  Elec       q    Type
REMARK                         _______ _______ _______ _____ _____    ______ ____
ROOT
ATOM      1  N   UNL     1       2.328   7.274  18.886  0.00  0.00    +0.000 N 
ATOM      2  C   UNL     1       2.048   8.492  18.292  0.00  0.00    +0.000 C 
ATOM      3  O   UNL     1       2.180   8.784  17.110  0.00  0.00    +0.000 OA
ATOM      4  H   UNL     1       2.065   7.204  19.865  0.00  0.00    +0.000 HD
ENDROOT
BRANCH   1   9
ATOM      5  C   UNL     1       4.556   5.237  16.711  0.00  0.00    +0.000 A 
ATOM      6  C   UNL     1       4.066   3.952  16.982  0.00  0.00    +0.000 A 
ATOM      7  C   UNL     1       2.993   3.763  17.847  0.00  0.00    +0.000 A 
ATOM      8  C   UNL     1       2.405   4.852  18.478  0.00  0.00    +0.000 A 
ATOM      9  C   UNL     1       2.876   6.144  18.251  0.00  0.00    +0.000 A 
ATOM     10  C   UNL     1       3.936   6.332  17.351  0.00  0.00    +0.000 A 
BRANCH   5  12
ATOM     11  C   UNL     1       5.445   5.026  14.310  0.00  0.00    +0.000 C 
ATOM     12  C   UNL     1       5.726   5.482  15.755  0.00  0.00    +0.000 C 
BRANCH  12  13
ATOM     13  C   UNL     1       7.011   4.822  16.310  0.00  0.00    +0.000 C 
BRANCH  13  14
ATOM     14  C   UNL     1       7.306   5.227  17.715  0.00  0.00    +0.000 A 
ATOM     15  N   UNL     1       7.316   4.436  18.769  0.00  0.00    +0.000 NA
ATOM     16  N   UNL     1       7.551   5.208  19.883  0.00  0.00    +0.000 NA
ATOM     17  C   UNL     1       7.693   6.449  19.482  0.00  0.00    +0.000 A 
ATOM     18  N   UNL     1       7.579   6.504  18.128  0.00  0.00    +0.000 N 
ATOM     19  C   UNL     1       7.729   7.678  17.312  0.00  0.00    +0.000 C 
ENDBRANCH  13  14
ENDBRANCH  12  13
ENDBRANCH   5  12
ENDBRANCH   1   9
BRANCH   2  20
ATOM     20  C   UNL     1       1.493   9.516  19.221  0.00  0.00    +0.000 A 
ATOM     21  C   UNL     1       1.402  10.831  18.796  0.00  0.00    +0.000 A 
ATOM     22  C   UNL     1       0.850  11.782  19.656  0.00  0.00    +0.000 A 
ATOM     23  C   UNL     1       0.519  11.376  20.946  0.00  0.00    +0.000 A 
ATOM     24  C   UNL     1       0.620  10.031  21.277  0.00  0.00    +0.000 A 
ATOM     25  N   UNL     1       1.081   9.081  20.441  0.00  0.00    +0.000 NA
BRANCH  22  26
ATOM     26  C   UNL     1       0.651  13.139  19.068  0.00  0.00    +0.000 C 
ATOM     27  O   UNL     1      -0.424  13.333  18.495  0.00  0.00    +0.000 OA
ATOM     28  N   UNL     1       1.565  14.174  19.224  0.00  0.00    +0.000 N 
ATOM     29  C   UNL     1       1.176  15.517  18.810  0.00  0.00    +0.000 C 
ATOM     30  C   UNL     1       2.449  16.123  18.236  0.00  0.00    +0.000 C 
ATOM     31  C   UNL     1       3.556  15.486  19.066  0.00  0.00    +0.000 C 
ATOM     32  C   UNL     1       2.990  14.143  19.549  0.00  0.00    +0.000 C 
ATOM     33  C   UNL     1       3.285  13.969  21.039  0.00  0.00    +0.000 C 
BRANCH  30  34
ATOM     34  O   UNL     1       2.495  17.537  18.342  0.00  0.00    +0.000 OA
ATOM     35  H   UNL     1       2.679  17.906  17.461  0.00  0.00    +0.000 HD
ENDBRANCH  30  34
ENDBRANCH  22  26
ENDBRANCH   2  20
TORSDOF 7
ENDMDL
MODEL 6
REMARK VINA RESULT:      -8.1      3.462      9.851
REMARK  Name = 
REMARK  10 active torsions:
REMARK  status: ('A' for Active; 'I' for Inactive)
REMARK    1  A    between atoms: C_1  and  C_2
REMARK    2  A    between atoms: C_2  and  C_3
REMARK    3  A    between atoms: C_2  and  C_10
REMARK    4  A    between atoms: C_3  and  C_4
REMARK    5  A    between atoms: N_8  and  C_9
REMARK    6  A    between atoms: C_14  and  N_15
REMARK    7  A    between atoms: C_16  and  C_18
REMARK    8  A    between atoms: C_20  and  C_21
REMARK    9  A    between atoms: C_25  and  O_26
REMARK   10  A    between atoms: C_28  and  C_29
REMARK                            x       y       z     vdW  Elec       q    Type
REMARK                         _______ _______ _______ _____ _____    ______ ____
ROOT
ATOM      1  N   UNL     1       2.176   6.879  18.864  0.00  0.00    +0.000 N 
ATOM      2  C   UNL     1       2.082   8.159  18.347  0.00  0.00    +0.000 C 
ATOM      3  O   UNL     1       2.327   8.511  17.200  0.00  0.00    +0.000 OA
ATOM      4  H   UNL     1       1.841   6.776  19.817  0.00  0.00    +0.000 HD
ENDROOT
BRANCH   1   9
ATOM      5  C   UNL     1       4.368   4.692  16.801  0.00  0.00    +0.000 A 
ATOM      6  C   UNL     1       3.636   3.498  16.835  0.00  0.00    +0.000 A 
ATOM      7  C   UNL     1       2.418   3.423  17.503  0.00  0.00    +0.000 A 
ATOM      8  C   UNL     1       1.920   4.534  18.172  0.00  0.00    +0.000 A 
ATOM      9  C   UNL     1       2.628   5.735  18.180  0.00  0.00    +0.000 A 
ATOM     10  C   UNL     1       3.839   5.814  17.475  0.00  0.00    +0.000 A 
BRANCH   5  12
ATOM     11  C   UNL     1       5.894   3.756  14.958  0.00  0.00    +0.000 C 
ATOM     12  C   UNL     1       5.704   4.813  16.064  0.00  0.00    +0.000 C 
BRANCH  12  13
ATOM     13  C   UNL     1       6.873   4.778  17.078  0.00  0.00    +0.000 C 
BRANCH  13  14
ATOM     14  C   UNL     1       7.338   6.141  17.467  0.00  0.00    +0.000 A 
ATOM     15  N   UNL     1       7.322   7.218  16.706  0.00  0.00    +0.000 NA
ATOM     16  N   UNL     1       7.908   8.246  17.406  0.00  0.00    +0.000 NA
ATOM     17  C   UNL     1       8.255   7.779  18.581  0.00  0.00    +0.000 A 
ATOM     18  N   UNL     1       7.888   6.473  18.676  0.00  0.00    +0.000 N 
ATOM     19  C   UNL     1       8.049   5.629  19.829  0.00  0.00    +0.000 C 
ENDBRANCH  13  14
ENDBRANCH  12  13
ENDBRANCH   5  12
ENDBRANCH   1   9
BRANCH   2  20
ATOM     20  C   UNL     1       1.590   9.178  19.315  0.00  0.00    +0.000 A 
ATOM     21  C   UNL     1       1.576  10.512  18.940  0.00  0.00    +0.000 A 
ATOM     22  C   UNL     1       1.082  11.460  19.837  0.00  0.00    +0.000 A 
ATOM     23  C   UNL     1       0.730  11.027  21.112  0.00  0.00    +0.000 A 
ATOM     24  C   UNL     1       0.752   9.667  21.392  0.00  0.00    +0.000 A 
ATOM     25  N   UNL     1       1.155   8.723  20.520  0.00  0.00    +0.000 NA
BRANCH  22  26
ATOM     26  C   UNL     1       0.963  12.848  19.300  0.00  0.00    +0.000 C 
ATOM     27  O   UNL     1       1.890  13.238  18.586  0.00  0.00    +0.000 OA
ATOM     28  N   UNL     1      -0.161  13.641  19.494  0.00  0.00    +0.000 N 
ATOM     29  C   UNL     1      -0.276  14.885  18.741  0.00  0.00    +0.000 C 
ATOM     30  C   UNL     1      -0.935  15.857  19.709  0.00  0.00    +0.000 C 
ATOM     31  C   UNL     1      -1.848  14.969  20.545  0.00  0.00    +0.000 C 
ATOM     32  C   UNL     1      -1.210  13.572  20.510  0.00  0.00    +0.000 C 
ATOM     33  C   UNL     1      -2.286  12.525  20.226  0.00  0.00    +0.000 C 
BRANCH  30  34
ATOM     34  O   UNL     1      -1.684  16.873  19.061  0.00  0.00    +0.000 OA
ATOM     35  H   UNL     1      -2.243  17.313  19.724  0.00  0.00    +0.000 HD
ENDBRANCH  30  34
ENDBRANCH  22  26
ENDBRANCH   2  20
TORSDOF 7
ENDMDL
MODEL 7
REMARK VINA RESULT:      -8.1      6.733      9.596
REMARK  Name = 
REMARK  10 active torsions:
REMARK  status: ('A' for Active; 'I' for Inactive)
REMARK    1  A    between atoms: C_1  and  C_2
REMARK    2  A    between atoms: C_2  and  C_3
REMARK    3  A    between atoms: C_2  and  C_10
REMARK    4  A    between atoms: C_3  and  C_4
REMARK    5  A    between atoms: N_8  and  C_9
REMARK    6  A    between atoms: C_14  and  N_15
REMARK    7  A    between atoms: C_16  and  C_18
REMARK    8  A    between atoms: C_20  and  C_21
REMARK    9  A    between atoms: C_25  and  O_26
REMARK   10  A    between atoms: C_28  and  C_29
REMARK                            x       y       z     vdW  Elec       q    Type
REMARK                         _______ _______ _______ _____ _____    ______ ____
ROOT
ATOM      1  N   UNL     1       7.811   8.840  17.848  0.00  0.00    +0.000 N 
ATOM      2  C   UNL     1       7.852   7.483  18.121  0.00  0.00    +0.000 C 
ATOM      3  O   UNL     1       8.572   6.916  18.933  0.00  0.00    +0.000 OA
ATOM      4  H   UNL     1       7.080   9.125  17.204  0.00  0.00    +0.000 HD
ENDROOT
BRANCH   1   9
ATOM      5  C   UNL     1       9.744  12.003  18.168  0.00  0.00    +0.000 A 
ATOM      6  C   UNL     1      10.223  11.873  19.479  0.00  0.00    +0.000 A 
ATOM      7  C   UNL     1       9.939  10.742  20.237  0.00  0.00    +0.000 A 
ATOM      8  C   UNL     1       9.149   9.729  19.708  0.00  0.00    +0.000 A 
ATOM      9  C   UNL     1       8.636   9.829  18.416  0.00  0.00    +0.000 A 
ATOM     10  C   UNL     1       8.954  10.956  17.644  0.00  0.00    +0.000 A 
BRANCH   5  12
ATOM     11  C   UNL     1      11.526  13.327  16.875  0.00  0.00    +0.000 C 
ATOM     12  C   UNL     1      10.049  13.228  17.302  0.00  0.00    +0.000 C 
BRANCH  12  13
ATOM     13  C   UNL     1       9.588  14.516  18.025  0.00  0.00    +0.000 C 
BRANCH  13  14
ATOM     14  C   UNL     1      10.721  15.271  18.634  0.00  0.00    +0.000 A 
ATOM     15  N   UNL     1      11.435  14.899  19.679  0.00  0.00    +0.000 NA
ATOM     16  N   UNL     1      12.324  15.906  19.970  0.00  0.00    +0.000 NA
ATOM     17  C   UNL     1      12.145  16.862  19.090  0.00  0.00    +0.000 A 
ATOM     18  N   UNL     1      11.172  16.494  18.214  0.00  0.00    +0.000 N 
ATOM     19  C   UNL     1      10.728  17.250  17.075  0.00  0.00    +0.000 C 
ENDBRANCH  13  14
ENDBRANCH  12  13
ENDBRANCH   5  12
ENDBRANCH   1   9
BRANCH   2  20
ATOM     20  C   UNL     1       6.871   6.671  17.348  0.00  0.00    +0.000 A 
ATOM     21  C   UNL     1       5.629   6.410  17.903  0.00  0.00    +0.000 A 
ATOM     22  C   UNL     1       4.700   5.678  17.161  0.00  0.00    +0.000 A 
ATOM     23  C   UNL     1       5.112   5.152  15.941  0.00  0.00    +0.000 A 
ATOM     24  C   UNL     1       6.367   5.488  15.451  0.00  0.00    +0.000 A 
ATOM     25  N   UNL     1       7.256   6.252  16.114  0.00  0.00    +0.000 NA
BRANCH  22  26
ATOM     26  C   UNL     1       3.340   5.570  17.768  0.00  0.00    +0.000 C 
ATOM     27  O   UNL     1       2.576   6.518  17.568  0.00  0.00    +0.000 OA
ATOM     28  N   UNL     1       2.898   4.438  18.441  0.00  0.00    +0.000 N 
ATOM     29  C   UNL     1       1.486   4.342  18.795  0.00  0.00    +0.000 C 
ATOM     30  C   UNL     1       1.479   3.649  20.149  0.00  0.00    +0.000 C 
ATOM     31  C   UNL     1       2.679   2.714  20.082  0.00  0.00    +0.000 C 
ATOM     32  C   UNL     1       3.649   3.358  19.080  0.00  0.00    +0.000 C 
ATOM     33  C   UNL     1       4.161   2.296  18.108  0.00  0.00    +0.000 C 
BRANCH  30  34
ATOM     34  O   UNL     1       0.289   2.917  20.399  0.00  0.00    +0.000 OA
ATOM     35  H   UNL     1      -0.280   2.978  19.612  0.00  0.00    +0.000 HD
ENDBRANCH  30  34
ENDBRANCH  22  26
ENDBRANCH   2  20
TORSDOF 7
ENDMDL
MODEL 8
REMARK VINA RESULT:      -8.1      1.135      1.294
REMARK  Name = 
REMARK  10 active torsions:
REMARK  status: ('A' for Active; 'I' for Inactive)
REMARK    1  A    between atoms: C_1  and  C_2
REMARK    2  A    between atoms: C_2  and  C_3
REMARK    3  A    between atoms: C_2  and  C_10
REMARK    4  A    between atoms: C_3  and  C_4
REMARK    5  A    between atoms: N_8  and  C_9
REMARK    6  A    between atoms: C_14  and  N_15
REMARK    7  A    between atoms: C_16  and  C_18
REMARK    8  A    between atoms: C_20  and  C_21
REMARK    9  A    between atoms: C_25  and  O_26
REMARK   10  A    between atoms: C_28  and  C_29
REMARK                            x       y       z     vdW  Elec       q    Type
REMARK                         _______ _______ _______ _____ _____    ______ ____
ROOT
ATOM      1  N   UNL     1       1.054   7.943  21.477  0.00  0.00    +0.000 N 
ATOM      2  C   UNL     1       1.645   7.620  20.268  0.00  0.00    +0.000 C 
ATOM      3  O   UNL     1       1.674   8.307  19.254  0.00  0.00    +0.000 OA
ATOM      4  H   UNL     1       1.218   7.277  22.226  0.00  0.00    +0.000 HD
ENDROOT
BRANCH   1   9
ATOM      5  C   UNL     1      -0.725  11.162  20.916  0.00  0.00    +0.000 A 
ATOM      6  C   UNL     1      -1.189  11.423  22.212  0.00  0.00    +0.000 A 
ATOM      7  C   UNL     1      -0.892  10.564  23.265  0.00  0.00    +0.000 A 
ATOM      8  C   UNL     1      -0.146   9.414  23.038  0.00  0.00    +0.000 A 
ATOM      9  C   UNL     1       0.317   9.108  21.759  0.00  0.00    +0.000 A 
ATOM     10  C   UNL     1       0.043   9.996  20.708  0.00  0.00    +0.000 A 
BRANCH   5  12
ATOM     11  C   UNL     1      -0.498  13.528  19.939  0.00  0.00    +0.000 C 
ATOM     12  C   UNL     1      -1.022  12.093  19.737  0.00  0.00    +0.000 C 
BRANCH  12  13
ATOM     13  C   UNL     1      -2.539  12.089  19.429  0.00  0.00    +0.000 C 
BRANCH  13  14
ATOM     14  C   UNL     1      -2.846  11.598  18.055  0.00  0.00    +0.000 A 
ATOM     15  N   UNL     1      -1.972  11.161  17.169  0.00  0.00    +0.000 NA
ATOM     16  N   UNL     1      -2.647  10.880  16.004  0.00  0.00    +0.000 NA
ATOM     17  C   UNL     1      -3.917  11.137  16.208  0.00  0.00    +0.000 A 
ATOM     18  N   UNL     1      -4.093  11.559  17.489  0.00  0.00    +0.000 N 
ATOM     19  C   UNL     1      -5.349  11.885  18.109  0.00  0.00    +0.000 C 
ENDBRANCH  13  14
ENDBRANCH  12  13
ENDBRANCH   5  12
ENDBRANCH   1   9
BRANCH   2  20
ATOM     20  C   UNL     1       2.342   6.304  20.257  0.00  0.00    +0.000 A 
ATOM     21  C   UNL     1       3.528   6.176  19.552  0.00  0.00    +0.000 A 
ATOM     22  C   UNL     1       4.196   4.951  19.572  0.00  0.00    +0.000 A 
ATOM     23  C   UNL     1       3.576   3.883  20.213  0.00  0.00    +0.000 A 
ATOM     24  C   UNL     1       2.400   4.110  20.917  0.00  0.00    +0.000 A 
ATOM     25  N   UNL     1       1.773   5.300  20.974  0.00  0.00    +0.000 NA
BRANCH  22  26
ATOM     26  C   UNL     1       5.536   4.943  18.914  0.00  0.00    +0.000 C 
ATOM     27  O   UNL     1       6.513   5.028  19.662  0.00  0.00    +0.000 OA
ATOM     28  N   UNL     1       5.708   4.752  17.548  0.00  0.00    +0.000 N 
ATOM     29  C   UNL     1       7.057   4.532  17.038  0.00  0.00    +0.000 C 
ATOM     30  C   UNL     1       7.079   5.249  15.696  0.00  0.00    +0.000 C 
ATOM     31  C   UNL     1       5.652   5.098  15.184  0.00  0.00    +0.000 C 
ATOM     32  C   UNL     1       4.778   4.943  16.437  0.00  0.00    +0.000 C 
ATOM     33  C   UNL     1       3.798   3.787  16.238  0.00  0.00    +0.000 C 
BRANCH  30  34
ATOM     34  O   UNL     1       8.002   4.689  14.776  0.00  0.00    +0.000 OA
ATOM     35  H   UNL     1       7.530   4.490  13.949  0.00  0.00    +0.000 HD
ENDBRANCH  30  34
ENDBRANCH  22  26
ENDBRANCH   2  20
TORSDOF 7
ENDMDL
MODEL 9
REMARK VINA RESULT:      -8.0      0.688      1.160
REMARK  Name = 
REMARK  10 active torsions:
REMARK  status: ('A' for Active; 'I' for Inactive)
REMARK    1  A    between atoms: C_1  and  C_2
REMARK    2  A    between atoms: C_2  and  C_3
REMARK    3  A    between atoms: C_2  and  C_10
REMARK    4  A    between atoms: C_3  and  C_4
REMARK    5  A    between atoms: N_8  and  C_9
REMARK    6  A    between atoms: C_14  and  N_15
REMARK    7  A    between atoms: C_16  and  C_18
REMARK    8  A    between atoms: C_20  and  C_21
REMARK    9  A    between atoms: C_25  and  O_26
REMARK   10  A    between atoms: C_28  and  C_29
REMARK                            x       y       z     vdW  Elec       q    Type
REMARK                         _______ _______ _______ _____ _____    ______ ____
ROOT
ATOM      1  N   UNL     1       2.003   7.288  20.695  0.00  0.00    +0.000 N 
ATOM      2  C   UNL     1       1.491   6.006  20.595  0.00  0.00    +0.000 C 
ATOM      3  O   UNL     1       0.310   5.681  20.591  0.00  0.00    +0.000 OA
ATOM      4  H   UNL     1       3.010   7.358  20.588  0.00  0.00    +0.000 HD
ENDROOT
BRANCH   1   9
ATOM      5  C   UNL     1      -0.086  10.249  19.848  0.00  0.00    +0.000 A 
ATOM      6  C   UNL     1      -0.282  10.792  21.125  0.00  0.00    +0.000 A 
ATOM      7  C   UNL     1       0.294  10.208  22.247  0.00  0.00    +0.000 A 
ATOM      8  C   UNL     1       1.057   9.053  22.120  0.00  0.00    +0.000 A 
ATOM      9  C   UNL     1       1.259   8.470  20.870  0.00  0.00    +0.000 A 
ATOM     10  C   UNL     1       0.704   9.084  19.737  0.00  0.00    +0.000 A 
BRANCH   5  12
ATOM     11  C   UNL     1      -1.097  12.351  18.770  0.00  0.00    +0.000 C 
ATOM     12  C   UNL     1      -0.693  10.874  18.589  0.00  0.00    +0.000 C 
BRANCH  12  13
ATOM     13  C   UNL     1      -1.889  10.023  18.100  0.00  0.00    +0.000 C 
BRANCH  13  14
ATOM     14  C   UNL     1      -3.106  10.841  17.831  0.00  0.00    +0.000 A 
ATOM     15  N   UNL     1      -3.901  11.379  18.736  0.00  0.00    +0.000 NA
ATOM     16  N   UNL     1      -4.949  11.983  18.081  0.00  0.00    +0.000 NA
ATOM     17  C   UNL     1      -4.764  11.814  16.794  0.00  0.00    +0.000 A 
ATOM     18  N   UNL     1      -3.606  11.131  16.589  0.00  0.00    +0.000 N 
ATOM     19  C   UNL     1      -3.032  10.799  15.313  0.00  0.00    +0.000 C 
ENDBRANCH  13  14
ENDBRANCH  12  13
ENDBRANCH   5  12
ENDBRANCH   1   9
BRANCH   2  20
ATOM     20  C   UNL     1       2.523   4.944  20.439  0.00  0.00    +0.000 A 
ATOM     21  C   UNL     1       3.639   5.198  19.657  0.00  0.00    +0.000 A 
ATOM     22  C   UNL     1       4.621   4.213  19.541  0.00  0.00    +0.000 A 
ATOM     23  C   UNL     1       4.374   2.977  20.132  0.00  0.00    +0.000 A 
ATOM     24  C   UNL     1       3.240   2.820  20.919  0.00  0.00    +0.000 A 
ATOM     25  N   UNL     1       2.313   3.778  21.106  0.00  0.00    +0.000 NA
BRANCH  22  26
ATOM     26  C   UNL     1       5.854   4.623  18.807  0.00  0.00    +0.000 C 
ATOM     27  O   UNL     1       6.835   4.902  19.500  0.00  0.00    +0.000 OA
ATOM     28  N   UNL     1       5.951   4.607  17.421  0.00  0.00    +0.000 N 
ATOM     29  C   UNL     1       7.261   4.804  16.810  0.00  0.00    +0.000 C 
ATOM     30  C   UNL     1       6.979   5.615  15.554  0.00  0.00    +0.000 C 
ATOM     31  C   UNL     1       5.603   5.132  15.115  0.00  0.00    +0.000 C 
ATOM     32  C   UNL     1       4.911   4.638  16.394  0.00  0.00    +0.000 C 
ATOM     33  C   UNL     1       4.254   3.284  16.131  0.00  0.00    +0.000 C 
BRANCH  30  34
ATOM     34  O   UNL     1       7.933   5.407  14.525  0.00  0.00    +0.000 OA
ATOM     35  H   UNL     1       8.567   4.733  14.825  0.00  0.00    +0.000 HD
ENDBRANCH  30  34
ENDBRANCH  22  26
ENDBRANCH   2  20
TORSDOF 7
ENDMDL
