MODEL 1
REMARK VINA RESULT:      -9.4      0.000      0.000
REMARK  Name = 
REMARK  11 active torsions:
REMARK  status: ('A' for Active; 'I' for Inactive)
REMARK    1  A    between atoms: C_1  and  C_2
REMARK    2  A    between atoms: C_2  and  C_3
REMARK    3  A    between atoms: C_2  and  C_10
REMARK    4  A    between atoms: C_3  and  C_4
REMARK    5  A    between atoms: N_8  and  C_9
REMARK    6  A    between atoms: C_14  and  N_15
REMARK    7  A    between atoms: C_20  and  C_21
REMARK    8  A    between atoms: C_21  and  C_22
REMARK    9  A    between atoms: C_21  and  N_23
REMARK   10  A    between atoms: C_25  and  O_26
REMARK   11  A    between atoms: C_29  and  C_30
REMARK                            x       y       z     vdW  Elec       q    Type
REMARK                         _______ _______ _______ _____ _____    ______ ____
ROOT
ATOM      1  N   UNL     1       2.206   7.653  18.987  0.00  0.00    +0.000 N 
ATOM      2  C   UNL     1       1.626   7.899  20.289  0.00  0.00    +0.000 C 
ATOM      3  C   UNL     1       1.145   9.295  20.234  0.00  0.00    +0.000 A 
ATOM      4  C   UNL     1       1.488   9.869  19.013  0.00  0.00    +0.000 A 
ATOM      5  C   UNL     1       1.173  11.196  18.744  0.00  0.00    +0.000 A 
ATOM      6  C   UNL     1       0.487  11.941  19.735  0.00  0.00    +0.000 A 
ATOM      7  C   UNL     1       0.148  11.314  20.964  0.00  0.00    +0.000 A 
ATOM      8  C   UNL     1       0.458   9.981  21.230  0.00  0.00    +0.000 A 
ATOM      9  C   UNL     1       2.166   8.814  18.191  0.00  0.00    +0.000 C 
ATOM     10  O   UNL     1       2.565   9.006  17.056  0.00  0.00    +0.000 OA
ENDROOT
BRANCH   1  15
ATOM     11  C   UNL     1       4.546   5.041  17.650  0.00  0.00    +0.000 A 
ATOM     12  C   UNL     1       3.892   3.871  18.036  0.00  0.00    +0.000 A 
ATOM     13  C   UNL     1       2.676   3.937  18.737  0.00  0.00    +0.000 A 
ATOM     14  C   UNL     1       2.083   5.171  19.062  0.00  0.00    +0.000 A 
ATOM     15  C   UNL     1       2.715   6.355  18.702  0.00  0.00    +0.000 A 
ATOM     16  C   UNL     1       3.950   6.252  18.017  0.00  0.00    +0.000 A 
BRANCH  11  18
ATOM     17  C   UNL     1       7.040   4.455  17.706  0.00  0.00    +0.000 C 
ATOM     18  C   UNL     1       5.866   5.015  16.872  0.00  0.00    +0.000 C 
BRANCH  18  19
ATOM     19  C   UNL     1       5.695   4.235  15.549  0.00  0.00    +0.000 C 
BRANCH  19  20
ATOM     20  C   UNL     1       6.638   4.675  14.475  0.00  0.00    +0.000 A 
ATOM     21  N   UNL     1       7.627   5.537  14.624  0.00  0.00    +0.000 NA
ATOM     22  N   UNL     1       8.263   5.679  13.413  0.00  0.00    +0.000 NA
ATOM     23  C   UNL     1       7.657   4.896  12.554  0.00  0.00    +0.000 A 
ATOM     24  N   UNL     1       6.634   4.247  13.173  0.00  0.00    +0.000 N 
ATOM     25  C   UNL     1       5.746   3.300  12.556  0.00  0.00    +0.000 C 
ENDBRANCH  19  20
ENDBRANCH  18  19
ENDBRANCH  11  18
ENDBRANCH   1  15
BRANCH   8  26
ATOM     26  C   UNL     1       0.046   9.331  22.525  0.00  0.00    +0.000 C 
ATOM     27  F   UNL     1       1.093   8.935  23.300  0.00  0.00    +0.000 F 
ATOM     28  F   UNL     1      -0.702  10.152  23.308  0.00  0.00    +0.000 F 
ATOM     29  F   UNL     1      -0.701   8.212  22.321  0.00  0.00    +0.000 F 
ENDBRANCH   8  26
BRANCH   6  30
ATOM     30  C   UNL     1       0.092  13.417  19.579  0.00  0.00    +0.000 C 
ATOM     31  C   UNL     1      -0.493  13.726  18.193  0.00  0.00    +0.000 C 
BRANCH  30  32
ATOM     32  N   UNL     1       1.149  14.282  20.135  0.00  0.00    +0.000 NA
ATOM     33  C   UNL     1       1.613  15.324  19.208  0.00  0.00    +0.000 C 
ATOM     34  C   UNL     1       2.964  14.593  19.044  0.00  0.00    +0.000 C 
ATOM     35  C   UNL     1       2.483  13.667  20.181  0.00  0.00    +0.000 C 
BRANCH  34  36
ATOM     36  O   UNL     1       3.257  13.977  17.769  0.00  0.00    +0.000 OA
ATOM     37  H   UNL     1       2.495  13.411  17.565  0.00  0.00    +0.000 HD
ENDBRANCH  34  36
ENDBRANCH  30  32
ENDBRANCH   6  30
TORSDOF 8
ENDMDL
MODEL 2
REMARK VINA RESULT:      -9.3      3.300      9.294
REMARK  Name = 
REMARK  11 active torsions:
REMARK  status: ('A' for Active; 'I' for Inactive)
REMARK    1  A    between atoms: C_1  and  C_2
REMARK    2  A    between atoms: C_2  and  C_3
REMARK    3  A    between atoms: C_2  and  C_10
REMARK    4  A    between atoms: C_3  and  C_4
REMARK    5  A    between atoms: N_8  and  C_9
REMARK    6  A    between atoms: C_14  and  N_15
REMARK    7  A    between atoms: C_20  and  C_21
REMARK    8  A    between atoms: C_21  and  C_22
REMARK    9  A    between atoms: C_21  and  N_23
REMARK   10  A    between atoms: C_25  and  O_26
REMARK   11  A    between atoms: C_29  and  C_30
REMARK                            x       y       z     vdW  Elec       q    Type
REMARK                         _______ _______ _______ _____ _____    ______ ____
ROOT
ATOM      1  N   UNL     1       1.095   8.515  20.363  0.00  0.00    +0.000 N 
ATOM      2  C   UNL     1       1.184   7.123  20.744  0.00  0.00    +0.000 C 
ATOM      3  C   UNL     1       2.082   6.509  19.744  0.00  0.00    +0.000 A 
ATOM      4  C   UNL     1       2.440   7.453  18.784  0.00  0.00    +0.000 A 
ATOM      5  C   UNL     1       3.253   7.097  17.715  0.00  0.00    +0.000 A 
ATOM      6  C   UNL     1       3.717   5.761  17.635  0.00  0.00    +0.000 A 
ATOM      7  C   UNL     1       3.335   4.832  18.640  0.00  0.00    +0.000 A 
ATOM      8  C   UNL     1       2.526   5.192  19.716  0.00  0.00    +0.000 A 
ATOM      9  C   UNL     1       1.817   8.759  19.178  0.00  0.00    +0.000 C 
ATOM     10  O   UNL     1       1.967   9.788  18.544  0.00  0.00    +0.000 OA
ENDROOT
BRANCH   1  15
ATOM     11  C   UNL     1      -1.060  11.457  21.250  0.00  0.00    +0.000 A 
ATOM     12  C   UNL     1      -1.218  11.270  22.623  0.00  0.00    +0.000 A 
ATOM     13  C   UNL     1      -0.613  10.176  23.263  0.00  0.00    +0.000 A 
ATOM     14  C   UNL     1       0.167   9.247  22.550  0.00  0.00    +0.000 A 
ATOM     15  C   UNL     1       0.334   9.398  21.178  0.00  0.00    +0.000 A 
ATOM     16  C   UNL     1      -0.307  10.499  20.561  0.00  0.00    +0.000 A 
BRANCH  11  18
ATOM     17  C   UNL     1      -0.806  13.910  20.556  0.00  0.00    +0.000 C 
ATOM     18  C   UNL     1      -1.690  12.644  20.513  0.00  0.00    +0.000 C 
BRANCH  18  19
ATOM     19  C   UNL     1      -2.039  12.251  19.060  0.00  0.00    +0.000 C 
BRANCH  19  20
ATOM     20  C   UNL     1      -3.470  11.857  18.879  0.00  0.00    +0.000 A 
ATOM     21  N   UNL     1      -4.501  12.387  19.511  0.00  0.00    +0.000 NA
ATOM     22  N   UNL     1      -5.644  11.761  19.075  0.00  0.00    +0.000 NA
ATOM     23  C   UNL     1      -5.290  10.870  18.181  0.00  0.00    +0.000 A 
ATOM     24  N   UNL     1      -3.939  10.893  18.025  0.00  0.00    +0.000 N 
ATOM     25  C   UNL     1      -3.184  10.062  17.128  0.00  0.00    +0.000 C 
ENDBRANCH  19  20
ENDBRANCH  18  19
ENDBRANCH  11  18
ENDBRANCH   1  15
BRANCH   8  26
ATOM     26  C   UNL     1       2.174   4.197  20.792  0.00  0.00    +0.000 C 
ATOM     27  F   UNL     1       0.841   3.934  20.885  0.00  0.00    +0.000 F 
ATOM     28  F   UNL     1       2.774   2.991  20.605  0.00  0.00    +0.000 F 
ATOM     29  F   UNL     1       2.550   4.624  22.027  0.00  0.00    +0.000 F 
ENDBRANCH   8  26
BRANCH   6  30
ATOM     30  C   UNL     1       4.606   5.227  16.502  0.00  0.00    +0.000 C 
ATOM     31  C   UNL     1       4.676   3.693  16.482  0.00  0.00    +0.000 C 
BRANCH  30  32
ATOM     32  N   UNL     1       5.849   6.017  16.422  0.00  0.00    +0.000 NA
ATOM     33  C   UNL     1       7.032   5.225  16.055  0.00  0.00    +0.000 C 
ATOM     34  C   UNL     1       7.593   5.378  17.486  0.00  0.00    +0.000 C 
ATOM     35  C   UNL     1       6.434   6.369  17.723  0.00  0.00    +0.000 C 
BRANCH  34  36
ATOM     36  O   UNL     1       7.642   4.204  18.330  0.00  0.00    +0.000 OA
ATOM     37  H   UNL     1       6.907   3.639  18.042  0.00  0.00    +0.000 HD
ENDBRANCH  34  36
ENDBRANCH  30  32
ENDBRANCH   6  30
TORSDOF 8
ENDMDL
MODEL 3
REMARK VINA RESULT:      -9.2      1.091      1.234
REMARK  Name = 
REMARK  11 active torsions:
REMARK  status: ('A' for Active; 'I' for Inactive)
REMARK    1  A    between atoms: C_1  and  C_2
REMARK    2  A    between atoms: C_2  and  C_3
REMARK    3  A    between atoms: C_2  and  C_10
REMARK    4  A    between atoms: C_3  and  C_4
REMARK    5  A    between atoms: N_8  and  C_9
REMARK    6  A    between atoms: C_14  and  N_15
REMARK    7  A    between atoms: C_20  and  C_21
REMARK    8  A    between atoms: C_21  and  C_22
REMARK    9  A    between atoms: C_21  and  N_23
REMARK   10  A    between atoms: C_25  and  O_26
REMARK   11  A    between atoms: C_29  and  C_30
REMARK                            x       y       z     vdW  Elec       q    Type
REMARK                         _______ _______ _______ _____ _____    ______ ____
ROOT
ATOM      1  N   UNL     1       2.137   7.757  18.879  0.00  0.00    +0.000 N 
ATOM      2  C   UNL     1       1.527   7.944  20.176  0.00  0.00    +0.000 C 
ATOM      3  C   UNL     1       1.119   9.364  20.205  0.00  0.00    +0.000 A 
ATOM      4  C   UNL     1       1.530  10.001  19.037  0.00  0.00    +0.000 A 
ATOM      5  C   UNL     1       1.292  11.357  18.852  0.00  0.00    +0.000 A 
ATOM      6  C   UNL     1       0.611  12.068  19.871  0.00  0.00    +0.000 A 
ATOM      7  C   UNL     1       0.200  11.377  21.043  0.00  0.00    +0.000 A 
ATOM      8  C   UNL     1       0.433  10.015  21.224  0.00  0.00    +0.000 A 
ATOM      9  C   UNL     1       2.182   8.970  18.164  0.00  0.00    +0.000 C 
ATOM     10  O   UNL     1       2.627   9.217  17.058  0.00  0.00    +0.000 OA
ENDROOT
BRANCH   1  15
ATOM     11  C   UNL     1       4.432   5.113  17.524  0.00  0.00    +0.000 A 
ATOM     12  C   UNL     1       3.669   3.964  17.731  0.00  0.00    +0.000 A 
ATOM     13  C   UNL     1       2.396   4.054  18.316  0.00  0.00    +0.000 A 
ATOM     14  C   UNL     1       1.851   5.294  18.701  0.00  0.00    +0.000 A 
ATOM     15  C   UNL     1       2.590   6.457  18.519  0.00  0.00    +0.000 A 
ATOM     16  C   UNL     1       3.879   6.327  17.948  0.00  0.00    +0.000 A 
BRANCH  11  18
ATOM     17  C   UNL     1       6.923   4.619  17.862  0.00  0.00    +0.000 C 
ATOM     18  C   UNL     1       5.820   5.062  16.876  0.00  0.00    +0.000 C 
BRANCH  18  19
ATOM     19  C   UNL     1       5.794   4.162  15.620  0.00  0.00    +0.000 C 
BRANCH  19  20
ATOM     20  C   UNL     1       6.692   4.645  14.526  0.00  0.00    +0.000 A 
ATOM     21  N   UNL     1       7.686   5.502  14.667  0.00  0.00    +0.000 NA
ATOM     22  N   UNL     1       8.271   5.692  13.438  0.00  0.00    +0.000 NA
ATOM     23  C   UNL     1       7.631   4.942  12.575  0.00  0.00    +0.000 A 
ATOM     24  N   UNL     1       6.634   4.267  13.210  0.00  0.00    +0.000 N 
ATOM     25  C   UNL     1       5.721   3.344  12.594  0.00  0.00    +0.000 C 
ENDBRANCH  19  20
ENDBRANCH  18  19
ENDBRANCH  11  18
ENDBRANCH   1  15
BRANCH   8  26
ATOM     26  C   UNL     1      -0.054   9.300  22.458  0.00  0.00    +0.000 C 
ATOM     27  F   UNL     1       0.946   8.885  23.285  0.00  0.00    +0.000 F 
ATOM     28  F   UNL     1      -0.867  10.075  23.224  0.00  0.00    +0.000 F 
ATOM     29  F   UNL     1      -0.765   8.181  22.154  0.00  0.00    +0.000 F 
ENDBRANCH   8  26
BRANCH   6  30
ATOM     30  C   UNL     1       0.296  13.569  19.806  0.00  0.00    +0.000 C 
ATOM     31  C   UNL     1      -0.727  13.910  18.713  0.00  0.00    +0.000 C 
BRANCH  30  32
ATOM     32  N   UNL     1       1.543  14.350  19.910  0.00  0.00    +0.000 NA
ATOM     33  C   UNL     1       2.332  14.053  21.114  0.00  0.00    +0.000 C 
ATOM     34  C   UNL     1       1.981  15.438  21.701  0.00  0.00    +0.000 C 
ATOM     35  C   UNL     1       1.358  15.748  20.323  0.00  0.00    +0.000 C 
BRANCH  34  36
ATOM     36  O   UNL     1       1.104  15.491  22.850  0.00  0.00    +0.000 OA
ATOM     37  H   UNL     1       1.532  16.088  23.484  0.00  0.00    +0.000 HD
ENDBRANCH  34  36
ENDBRANCH  30  32
ENDBRANCH   6  30
TORSDOF 8
ENDMDL
MODEL 4
REMARK VINA RESULT:      -9.2      3.177      9.083
REMARK  Name = 
REMARK  11 active torsions:
REMARK  status: ('A' for Active; 'I' for Inactive)
REMARK    1  A    between atoms: C_1  and  C_2
REMARK    2  A    between atoms: C_2  and  C_3
REMARK    3  A    between atoms: C_2  and  C_10
REMARK    4  A    between atoms: C_3  and  C_4
REMARK    5  A    between atoms: N_8  and  C_9
REMARK    6  A    between atoms: C_14  and  N_15
REMARK    7  A    between atoms: C_20  and  C_21
REMARK    8  A    between atoms: C_21  and  C_22
REMARK    9  A    between atoms: C_21  and  N_23
REMARK   10  A    between atoms: C_25  and  O_26
REMARK   11  A    between atoms: C_29  and  C_30
REMARK                            x       y       z     vdW  Elec       q    Type
REMARK                         _______ _______ _______ _____ _____    ______ ____
ROOT
ATOM      1  N   UNL     1       1.319   8.107  20.305  0.00  0.00    +0.000 N 
ATOM      2  C   UNL     1       1.321   6.737  20.764  0.00  0.00    +0.000 C 
ATOM      3  C   UNL     1       2.249   6.031  19.856  0.00  0.00    +0.000 A 
ATOM      4  C   UNL     1       2.707   6.903  18.872  0.00  0.00    +0.000 A 
ATOM      5  C   UNL     1       3.565   6.454  17.876  0.00  0.00    +0.000 A 
ATOM      6  C   UNL     1       3.971   5.097  17.896  0.00  0.00    +0.000 A 
ATOM      7  C   UNL     1       3.488   4.243  18.924  0.00  0.00    +0.000 A 
ATOM      8  C   UNL     1       2.632   4.696  19.926  0.00  0.00    +0.000 A 
ATOM      9  C   UNL     1       2.121   8.254  19.156  0.00  0.00    +0.000 C 
ATOM     10  O   UNL     1       2.355   9.239  18.479  0.00  0.00    +0.000 OA
ENDROOT
BRANCH   1  15
ATOM     11  C   UNL     1      -0.883  11.093  20.875  0.00  0.00    +0.000 A 
ATOM     12  C   UNL     1      -1.018  11.066  22.263  0.00  0.00    +0.000 A 
ATOM     13  C   UNL     1      -0.383  10.066  23.017  0.00  0.00    +0.000 A 
ATOM     14  C   UNL     1       0.406   9.075  22.405  0.00  0.00    +0.000 A 
ATOM     15  C   UNL     1       0.551   9.067  21.023  0.00  0.00    +0.000 A 
ATOM     16  C   UNL     1      -0.121  10.075  20.291  0.00  0.00    +0.000 A 
BRANCH  11  18
ATOM     17  C   UNL     1      -0.790  13.520  20.058  0.00  0.00    +0.000 C 
ATOM     18  C   UNL     1      -1.546  12.174  20.014  0.00  0.00    +0.000 C 
BRANCH  18  19
ATOM     19  C   UNL     1      -1.720  11.673  18.562  0.00  0.00    +0.000 C 
BRANCH  19  20
ATOM     20  C   UNL     1      -3.145  11.646  18.110  0.00  0.00    +0.000 A 
ATOM     21  N   UNL     1      -4.193  11.961  18.848  0.00  0.00    +0.000 NA
ATOM     22  N   UNL     1      -5.323  11.812  18.080  0.00  0.00    +0.000 NA
ATOM     23  C   UNL     1      -4.943  11.418  16.890  0.00  0.00    +0.000 A 
ATOM     24  N   UNL     1      -3.588  11.301  16.860  0.00  0.00    +0.000 N 
ATOM     25  C   UNL     1      -2.805  10.898  15.724  0.00  0.00    +0.000 C 
ENDBRANCH  19  20
ENDBRANCH  18  19
ENDBRANCH  11  18
ENDBRANCH   1  15
BRANCH   8  26
ATOM     26  C   UNL     1       2.172   3.778  21.029  0.00  0.00    +0.000 C 
ATOM     27  F   UNL     1       2.469   4.228  22.280  0.00  0.00    +0.000 F 
ATOM     28  F   UNL     1       0.827   3.582  21.019  0.00  0.00    +0.000 F 
ATOM     29  F   UNL     1       2.740   2.545  20.940  0.00  0.00    +0.000 F 
ENDBRANCH   8  26
BRANCH   6  30
ATOM     30  C   UNL     1       4.901   4.464  16.851  0.00  0.00    +0.000 C 
ATOM     31  C   UNL     1       4.317   3.180  16.244  0.00  0.00    +0.000 C 
BRANCH  30  32
ATOM     32  N   UNL     1       6.292   4.472  17.343  0.00  0.00    +0.000 NA
ATOM     33  C   UNL     1       6.546   5.475  18.387  0.00  0.00    +0.000 C 
ATOM     34  C   UNL     1       7.398   6.304  17.400  0.00  0.00    +0.000 C 
ATOM     35  C   UNL     1       7.259   5.106  16.437  0.00  0.00    +0.000 C 
BRANCH  34  36
ATOM     36  O   UNL     1       6.878   7.577  16.951  0.00  0.00    +0.000 OA
ATOM     37  H   UNL     1       6.470   7.408  16.087  0.00  0.00    +0.000 HD
ENDBRANCH  34  36
ENDBRANCH  30  32
ENDBRANCH   6  30
TORSDOF 8
ENDMDL
MODEL 5
REMARK VINA RESULT:      -9.2      0.965      1.331
REMARK  Name = 
REMARK  11 active torsions:
REMARK  status: ('A' for Active; 'I' for Inactive)
REMARK    1  A    between atoms: C_1  and  C_2
REMARK    2  A    between atoms: C_2  and  C_3
REMARK    3  A    between atoms: C_2  and  C_10
REMARK    4  A    between atoms: C_3  and  C_4
REMARK    5  A    between atoms: N_8  and  C_9
REMARK    6  A    between atoms: C_14  and  N_15
REMARK    7  A    between atoms: C_20  and  C_21
REMARK    8  A    between atoms: C_21  and  C_22
REMARK    9  A    between atoms: C_21  and  N_23
REMARK   10  A    between atoms: C_25  and  O_26
REMARK   11  A    between atoms: C_29  and  C_30
REMARK                            x       y       z     vdW  Elec       q    Type
REMARK                         _______ _______ _______ _____ _____    ______ ____
ROOT
ATOM      1  N   UNL     1       2.006   7.921  18.993  0.00  0.00    +0.000 N 
ATOM      2  C   UNL     1       1.461   8.097  20.320  0.00  0.00    +0.000 C 
ATOM      3  C   UNL     1       0.976   9.493  20.353  0.00  0.00    +0.000 A 
ATOM      4  C   UNL     1       1.285  10.131  19.155  0.00  0.00    +0.000 A 
ATOM      5  C   UNL     1       0.961  11.469  18.965  0.00  0.00    +0.000 A 
ATOM      6  C   UNL     1       0.300  12.159  20.012  0.00  0.00    +0.000 A 
ATOM      7  C   UNL     1      -0.005  11.467  21.215  0.00  0.00    +0.000 A 
ATOM      8  C   UNL     1       0.314  10.123  21.401  0.00  0.00    +0.000 A 
ATOM      9  C   UNL     1       1.943   9.123  18.261  0.00  0.00    +0.000 C 
ATOM     10  O   UNL     1       2.311   9.376  17.128  0.00  0.00    +0.000 OA
ENDROOT
BRANCH   1  15
ATOM     11  C   UNL     1       4.373   5.384  17.564  0.00  0.00    +0.000 A 
ATOM     12  C   UNL     1       3.681   4.199  17.815  0.00  0.00    +0.000 A 
ATOM     13  C   UNL     1       2.431   4.231  18.454  0.00  0.00    +0.000 A 
ATOM     14  C   UNL     1       1.840   5.445  18.851  0.00  0.00    +0.000 A 
ATOM     15  C   UNL     1       2.510   6.642  18.626  0.00  0.00    +0.000 A 
ATOM     16  C   UNL     1       3.777   6.572  18.000  0.00  0.00    +0.000 A 
BRANCH  11  18
ATOM     17  C   UNL     1       6.908   5.104  17.816  0.00  0.00    +0.000 C 
ATOM     18  C   UNL     1       5.733   5.396  16.857  0.00  0.00    +0.000 C 
BRANCH  18  19
ATOM     19  C   UNL     1       5.726   4.416  15.661  0.00  0.00    +0.000 C 
BRANCH  19  20
ATOM     20  C   UNL     1       6.689   4.793  14.580  0.00  0.00    +0.000 A 
ATOM     21  N   UNL     1       7.721   5.604  14.716  0.00  0.00    +0.000 NA
ATOM     22  N   UNL     1       8.360   5.697  13.503  0.00  0.00    +0.000 NA
ATOM     23  C   UNL     1       7.713   4.936  12.655  0.00  0.00    +0.000 A 
ATOM     24  N   UNL     1       6.659   4.349  13.284  0.00  0.00    +0.000 N 
ATOM     25  C   UNL     1       5.722   3.442  12.681  0.00  0.00    +0.000 C 
ENDBRANCH  19  20
ENDBRANCH  18  19
ENDBRANCH  11  18
ENDBRANCH   1  15
BRANCH   8  26
ATOM     26  C   UNL     1      -0.062   9.403  22.670  0.00  0.00    +0.000 C 
ATOM     27  F   UNL     1      -0.872  10.126  23.494  0.00  0.00    +0.000 F 
ATOM     28  F   UNL     1      -0.723   8.239  22.435  0.00  0.00    +0.000 F 
ATOM     29  F   UNL     1       1.027   9.081  23.419  0.00  0.00    +0.000 F 
ENDBRANCH   8  26
BRANCH   6  30
ATOM     30  C   UNL     1      -0.101  13.640  19.945  0.00  0.00    +0.000 C 
ATOM     31  C   UNL     1      -1.610  13.850  20.133  0.00  0.00    +0.000 C 
BRANCH  30  32
ATOM     32  N   UNL     1       0.595  14.299  18.824  0.00  0.00    +0.000 NA
ATOM     33  C   UNL     1       1.899  14.873  19.188  0.00  0.00    +0.000 C 
ATOM     34  C   UNL     1       1.326  16.299  19.045  0.00  0.00    +0.000 C 
ATOM     35  C   UNL     1       0.064  15.623  18.468  0.00  0.00    +0.000 C 
BRANCH  34  36
ATOM     36  O   UNL     1       1.161  17.093  20.243  0.00  0.00    +0.000 OA
ATOM     37  H   UNL     1       0.346  16.774  20.663  0.00  0.00    +0.000 HD
ENDBRANCH  34  36
ENDBRANCH  30  32
ENDBRANCH   6  30
TORSDOF 8
ENDMDL
MODEL 6
REMARK VINA RESULT:      -9.2      3.425      9.735
REMARK  Name = 
REMARK  11 active torsions:
REMARK  status: ('A' for Active; 'I' for Inactive)
REMARK    1  A    between atoms: C_1  and  C_2
REMARK    2  A    between atoms: C_2  and  C_3
REMARK    3  A    between atoms: C_2  and  C_10
REMARK    4  A    between atoms: C_3  and  C_4
REMARK    5  A    between atoms: N_8  and  C_9
REMARK    6  A    between atoms: C_14  and  N_15
REMARK    7  A    between atoms: C_20  and  C_21
REMARK    8  A    between atoms: C_21  and  C_22
REMARK    9  A    between atoms: C_21  and  N_23
REMARK   10  A    between atoms: C_25  and  O_26
REMARK   11  A    between atoms: C_29  and  C_30
REMARK                            x       y       z     vdW  Elec       q    Type
REMARK                         _______ _______ _______ _____ _____    ______ ____
ROOT
ATOM      1  N   UNL     1       1.102   8.654  20.331  0.00  0.00    +0.000 N 
ATOM      2  C   UNL     1       1.207   7.255  20.680  0.00  0.00    +0.000 C 
ATOM      3  C   UNL     1       2.116   6.676  19.669  0.00  0.00    +0.000 A 
ATOM      4  C   UNL     1       2.465   7.645  18.732  0.00  0.00    +0.000 A 
ATOM      5  C   UNL     1       3.285   7.324  17.657  0.00  0.00    +0.000 A 
ATOM      6  C   UNL     1       3.765   5.996  17.548  0.00  0.00    +0.000 A 
ATOM      7  C   UNL     1       3.393   5.039  18.531  0.00  0.00    +0.000 A 
ATOM      8  C   UNL     1       2.576   5.365  19.612  0.00  0.00    +0.000 A 
ATOM      9  C   UNL     1       1.824   8.934  19.154  0.00  0.00    +0.000 C 
ATOM     10  O   UNL     1       1.963   9.979  18.544  0.00  0.00    +0.000 OA
ENDROOT
BRANCH   1  15
ATOM     11  C   UNL     1      -1.058  11.570  21.286  0.00  0.00    +0.000 A 
ATOM     12  C   UNL     1      -1.245  11.331  22.648  0.00  0.00    +0.000 A 
ATOM     13  C   UNL     1      -0.659  10.210  23.258  0.00  0.00    +0.000 A 
ATOM     14  C   UNL     1       0.132   9.306  22.525  0.00  0.00    +0.000 A 
ATOM     15  C   UNL     1       0.328   9.509  21.164  0.00  0.00    +0.000 A 
ATOM     16  C   UNL     1      -0.295  10.636  20.577  0.00  0.00    +0.000 A 
BRANCH  11  18
ATOM     17  C   UNL     1      -0.608  13.659  19.872  0.00  0.00    +0.000 C 
ATOM     18  C   UNL     1      -1.667  12.789  20.584  0.00  0.00    +0.000 C 
BRANCH  18  19
ATOM     19  C   UNL     1      -2.779  12.345  19.606  0.00  0.00    +0.000 C 
BRANCH  19  20
ATOM     20  C   UNL     1      -4.138  12.312  20.230  0.00  0.00    +0.000 A 
ATOM     21  N   UNL     1      -4.413  12.579  21.494  0.00  0.00    +0.000 NA
ATOM     22  N   UNL     1      -5.767  12.443  21.680  0.00  0.00    +0.000 NA
ATOM     23  C   UNL     1      -6.293  12.106  20.528  0.00  0.00    +0.000 A 
ATOM     24  N   UNL     1      -5.312  12.013  19.590  0.00  0.00    +0.000 N 
ATOM     25  C   UNL     1      -5.504  11.671  18.207  0.00  0.00    +0.000 C 
ENDBRANCH  19  20
ENDBRANCH  18  19
ENDBRANCH  11  18
ENDBRANCH   1  15
BRANCH   8  26
ATOM     26  C   UNL     1       2.234   4.341  20.664  0.00  0.00    +0.000 C 
ATOM     27  F   UNL     1       2.879   3.151  20.505  0.00  0.00    +0.000 F 
ATOM     28  F   UNL     1       2.541   4.760  21.920  0.00  0.00    +0.000 F 
ATOM     29  F   UNL     1       0.908   4.039  20.673  0.00  0.00    +0.000 F 
ENDBRANCH   8  26
BRANCH   6  30
ATOM     30  C   UNL     1       4.664   5.499  16.406  0.00  0.00    +0.000 C 
ATOM     31  C   UNL     1       4.639   3.971  16.260  0.00  0.00    +0.000 C 
BRANCH  30  32
ATOM     32  N   UNL     1       5.956   6.210  16.436  0.00  0.00    +0.000 NA
ATOM     33  C   UNL     1       7.109   5.358  16.110  0.00  0.00    +0.000 C 
ATOM     34  C   UNL     1       7.586   5.421  17.578  0.00  0.00    +0.000 C 
ATOM     35  C   UNL     1       6.477   6.475  17.784  0.00  0.00    +0.000 C 
BRANCH  34  36
ATOM     36  O   UNL     1       7.507   4.215  18.374  0.00  0.00    +0.000 OA
ATOM     37  H   UNL     1       8.423   3.986  18.600  0.00  0.00    +0.000 HD
ENDBRANCH  34  36
ENDBRANCH  30  32
ENDBRANCH   6  30
TORSDOF 8
ENDMDL
MODEL 7
REMARK VINA RESULT:      -9.1      3.373      9.373
REMARK  Name = 
REMARK  11 active torsions:
REMARK  status: ('A' for Active; 'I' for Inactive)
REMARK    1  A    between atoms: C_1  and  C_2
REMARK    2  A    between atoms: C_2  and  C_3
REMARK    3  A    between atoms: C_2  and  C_10
REMARK    4  A    between atoms: C_3  and  C_4
REMARK    5  A    between atoms: N_8  and  C_9
REMARK    6  A    between atoms: C_14  and  N_15
REMARK    7  A    between atoms: C_20  and  C_21
REMARK    8  A    between atoms: C_21  and  C_22
REMARK    9  A    between atoms: C_21  and  N_23
REMARK   10  A    between atoms: C_25  and  O_26
REMARK   11  A    between atoms: C_29  and  C_30
REMARK                            x       y       z     vdW  Elec       q    Type
REMARK                         _______ _______ _______ _____ _____    ______ ____
ROOT
ATOM      1  N   UNL     1       1.629   7.902  20.073  0.00  0.00    +0.000 N 
ATOM      2  C   UNL     1       1.587   6.547  20.575  0.00  0.00    +0.000 C 
ATOM      3  C   UNL     1       2.591   5.812  19.779  0.00  0.00    +0.000 A 
ATOM      4  C   UNL     1       3.138   6.652  18.812  0.00  0.00    +0.000 A 
ATOM      5  C   UNL     1       4.082   6.171  17.913  0.00  0.00    +0.000 A 
ATOM      6  C   UNL     1       4.482   4.816  18.014  0.00  0.00    +0.000 A 
ATOM      7  C   UNL     1       3.906   3.995  19.021  0.00  0.00    +0.000 A 
ATOM      8  C   UNL     1       2.964   4.481  19.927  0.00  0.00    +0.000 A 
ATOM      9  C   UNL     1       2.533   8.011  18.997  0.00  0.00    +0.000 C 
ATOM     10  O   UNL     1       2.829   8.973  18.312  0.00  0.00    +0.000 OA
ENDROOT
BRANCH   1  15
ATOM     11  C   UNL     1      -0.723  10.815  20.328  0.00  0.00    +0.000 A 
ATOM     12  C   UNL     1      -0.886  10.908  21.711  0.00  0.00    +0.000 A 
ATOM     13  C   UNL     1      -0.221  10.014  22.564  0.00  0.00    +0.000 A 
ATOM     14  C   UNL     1       0.627   9.010  22.059  0.00  0.00    +0.000 A 
ATOM     15  C   UNL     1       0.802   8.884  20.687  0.00  0.00    +0.000 A 
ATOM     16  C   UNL     1       0.099   9.787  19.854  0.00  0.00    +0.000 A 
BRANCH  11  18
ATOM     17  C   UNL     1      -0.453  12.830  18.769  0.00  0.00    +0.000 C 
ATOM     18  C   UNL     1      -1.418  11.779  19.361  0.00  0.00    +0.000 C 
BRANCH  18  19
ATOM     19  C   UNL     1      -2.145  10.992  18.247  0.00  0.00    +0.000 C 
BRANCH  19  20
ATOM     20  C   UNL     1      -3.544  11.462  18.004  0.00  0.00    +0.000 A 
ATOM     21  N   UNL     1      -4.346  11.992  18.909  0.00  0.00    +0.000 NA
ATOM     22  N   UNL     1      -5.541  12.295  18.302  0.00  0.00    +0.000 NA
ATOM     23  C   UNL     1      -5.443  11.953  17.041  0.00  0.00    +0.000 A 
ATOM     24  N   UNL     1      -4.210  11.427  16.807  0.00  0.00    +0.000 N 
ATOM     25  C   UNL     1      -3.730  10.945  15.541  0.00  0.00    +0.000 C 
ENDBRANCH  19  20
ENDBRANCH  18  19
ENDBRANCH  11  18
ENDBRANCH   1  15
BRANCH   8  26
ATOM     26  C   UNL     1       2.404   3.599  21.013  0.00  0.00    +0.000 C 
ATOM     27  F   UNL     1       2.470   4.149  22.258  0.00  0.00    +0.000 F 
ATOM     28  F   UNL     1       1.094   3.294  20.815  0.00  0.00    +0.000 F 
ATOM     29  F   UNL     1       3.064   2.413  21.102  0.00  0.00    +0.000 F 
ENDBRANCH   8  26
BRANCH   6  30
ATOM     30  C   UNL     1       5.501   4.149  17.079  0.00  0.00    +0.000 C 
ATOM     31  C   UNL     1       6.953   4.426  17.497  0.00  0.00    +0.000 C 
BRANCH  30  32
ATOM     32  N   UNL     1       5.096   4.342  15.674  0.00  0.00    +0.000 NA
ATOM     33  C   UNL     1       5.968   3.659  14.706  0.00  0.00    +0.000 C 
ATOM     34  C   UNL     1       6.525   5.018  14.230  0.00  0.00    +0.000 C 
ATOM     35  C   UNL     1       5.434   5.658  15.114  0.00  0.00    +0.000 C 
BRANCH  34  36
ATOM     36  O   UNL     1       7.901   5.340  14.542  0.00  0.00    +0.000 OA
ATOM     37  H   UNL     1       8.355   5.425  13.689  0.00  0.00    +0.000 HD
ENDBRANCH  34  36
ENDBRANCH  30  32
ENDBRANCH   6  30
TORSDOF 8
ENDMDL
MODEL 8
REMARK VINA RESULT:      -9.1      1.485      2.399
REMARK  Name = 
REMARK  11 active torsions:
REMARK  status: ('A' for Active; 'I' for Inactive)
REMARK    1  A    between atoms: C_1  and  C_2
REMARK    2  A    between atoms: C_2  and  C_3
REMARK    3  A    between atoms: C_2  and  C_10
REMARK    4  A    between atoms: C_3  and  C_4
REMARK    5  A    between atoms: N_8  and  C_9
REMARK    6  A    between atoms: C_14  and  N_15
REMARK    7  A    between atoms: C_20  and  C_21
REMARK    8  A    between atoms: C_21  and  C_22
REMARK    9  A    between atoms: C_21  and  N_23
REMARK   10  A    between atoms: C_25  and  O_26
REMARK   11  A    between atoms: C_29  and  C_30
REMARK                            x       y       z     vdW  Elec       q    Type
REMARK                         _______ _______ _______ _____ _____    ______ ____
ROOT
ATOM      1  N   UNL     1       2.243   7.490  19.319  0.00  0.00    +0.000 N 
ATOM      2  C   UNL     1       1.625   7.828  20.582  0.00  0.00    +0.000 C 
ATOM      3  C   UNL     1       1.101   9.197  20.397  0.00  0.00    +0.000 A 
ATOM      4  C   UNL     1       1.455   9.675  19.137  0.00  0.00    +0.000 A 
ATOM      5  C   UNL     1       1.105  10.963  18.748  0.00  0.00    +0.000 A 
ATOM      6  C   UNL     1       0.373  11.767  19.656  0.00  0.00    +0.000 A 
ATOM      7  C   UNL     1       0.025  11.237  20.928  0.00  0.00    +0.000 A 
ATOM      8  C   UNL     1       0.370   9.943  21.314  0.00  0.00    +0.000 A 
ATOM      9  C   UNL     1       2.185   8.577  18.424  0.00  0.00    +0.000 C 
ATOM     10  O   UNL     1       2.604   8.683  17.286  0.00  0.00    +0.000 OA
ENDROOT
BRANCH   1  15
ATOM     11  C   UNL     1       4.282   4.734  17.793  0.00  0.00    +0.000 A 
ATOM     12  C   UNL     1       4.004   3.680  18.663  0.00  0.00    +0.000 A 
ATOM     13  C   UNL     1       3.142   3.872  19.755  0.00  0.00    +0.000 A 
ATOM     14  C   UNL     1       2.533   5.117  20.000  0.00  0.00    +0.000 A 
ATOM     15  C   UNL     1       2.799   6.190  19.158  0.00  0.00    +0.000 A 
ATOM     16  C   UNL     1       3.690   5.969  18.081  0.00  0.00    +0.000 A 
BRANCH  11  18
ATOM     17  C   UNL     1       4.991   5.658  15.510  0.00  0.00    +0.000 C 
ATOM     18  C   UNL     1       5.205   4.566  16.581  0.00  0.00    +0.000 C 
BRANCH  18  19
ATOM     19  C   UNL     1       6.682   4.505  17.034  0.00  0.00    +0.000 C 
BRANCH  19  20
ATOM     20  C   UNL     1       7.254   5.844  17.373  0.00  0.00    +0.000 A 
ATOM     21  N   UNL     1       7.447   6.837  16.524  0.00  0.00    +0.000 NA
ATOM     22  N   UNL     1       7.987   7.896  17.213  0.00  0.00    +0.000 NA
ATOM     23  C   UNL     1       8.104   7.534  18.467  0.00  0.00    +0.000 A 
ATOM     24  N   UNL     1       7.658   6.257  18.616  0.00  0.00    +0.000 N 
ATOM     25  C   UNL     1       7.623   5.519  19.848  0.00  0.00    +0.000 C 
ENDBRANCH  19  20
ENDBRANCH  18  19
ENDBRANCH  11  18
ENDBRANCH   1  15
BRANCH   8  26
ATOM     26  C   UNL     1      -0.052   9.393  22.652  0.00  0.00    +0.000 C 
ATOM     27  F   UNL     1      -0.807  10.255  23.389  0.00  0.00    +0.000 F 
ATOM     28  F   UNL     1      -0.794   8.259  22.541  0.00  0.00    +0.000 F 
ATOM     29  F   UNL     1       1.014   9.078  23.436  0.00  0.00    +0.000 F 
ENDBRANCH   8  26
BRANCH   6  30
ATOM     30  C   UNL     1      -0.064  13.210  19.365  0.00  0.00    +0.000 C 
ATOM     31  C   UNL     1      -0.568  13.393  17.926  0.00  0.00    +0.000 C 
BRANCH  30  32
ATOM     32  N   UNL     1       0.921  14.156  19.920  0.00  0.00    +0.000 NA
ATOM     33  C   UNL     1       1.363  15.183  18.964  0.00  0.00    +0.000 C 
ATOM     34  C   UNL     1       2.757  14.524  18.881  0.00  0.00    +0.000 C 
ATOM     35  C   UNL     1       2.285  13.621  20.040  0.00  0.00    +0.000 C 
BRANCH  34  36
ATOM     36  O   UNL     1       3.131  13.872  17.645  0.00  0.00    +0.000 OA
ATOM     37  H   UNL     1       4.076  14.058  17.522  0.00  0.00    +0.000 HD
ENDBRANCH  34  36
ENDBRANCH  30  32
ENDBRANCH   6  30
TORSDOF 8
ENDMDL
MODEL 9
REMARK VINA RESULT:      -9.0      2.453      9.026
REMARK  Name = 
REMARK  11 active torsions:
REMARK  status: ('A' for Active; 'I' for Inactive)
REMARK    1  A    between atoms: C_1  and  C_2
REMARK    2  A    between atoms: C_2  and  C_3
REMARK    3  A    between atoms: C_2  and  C_10
REMARK    4  A    between atoms: C_3  and  C_4
REMARK    5  A    between atoms: N_8  and  C_9
REMARK    6  A    between atoms: C_14  and  N_15
REMARK    7  A    between atoms: C_20  and  C_21
REMARK    8  A    between atoms: C_21  and  C_22
REMARK    9  A    between atoms: C_21  and  N_23
REMARK   10  A    between atoms: C_25  and  O_26
REMARK   11  A    between atoms: C_29  and  C_30
REMARK                            x       y       z     vdW  Elec       q    Type
REMARK                         _______ _______ _______ _____ _____    ______ ____
ROOT
ATOM      1  N   UNL     1       1.057   8.694  20.343  0.00  0.00    +0.000 N 
ATOM      2  C   UNL     1       1.173   7.298  20.699  0.00  0.00    +0.000 C 
ATOM      3  C   UNL     1       2.091   6.722  19.694  0.00  0.00    +0.000 A 
ATOM      4  C   UNL     1       2.435   7.691  18.755  0.00  0.00    +0.000 A 
ATOM      5  C   UNL     1       3.262   7.372  17.685  0.00  0.00    +0.000 A 
ATOM      6  C   UNL     1       3.755   6.048  17.583  0.00  0.00    +0.000 A 
ATOM      7  C   UNL     1       3.387   5.093  18.569  0.00  0.00    +0.000 A 
ATOM      8  C   UNL     1       2.563   5.415  19.645  0.00  0.00    +0.000 A 
ATOM      9  C   UNL     1       1.781   8.975  19.168  0.00  0.00    +0.000 C 
ATOM     10  O   UNL     1       1.913  10.019  18.554  0.00  0.00    +0.000 OA
ENDROOT
BRANCH   1  15
ATOM     11  C   UNL     1      -1.090  11.624  21.289  0.00  0.00    +0.000 A 
ATOM     12  C   UNL     1      -1.317  11.365  22.641  0.00  0.00    +0.000 A 
ATOM     13  C   UNL     1      -0.763  10.226  23.247  0.00  0.00    +0.000 A 
ATOM     14  C   UNL     1       0.035   9.323  22.521  0.00  0.00    +0.000 A 
ATOM     15  C   UNL     1       0.272   9.546  21.169  0.00  0.00    +0.000 A 
ATOM     16  C   UNL     1      -0.320  10.691  20.585  0.00  0.00    +0.000 A 
BRANCH  11  18
ATOM     17  C   UNL     1      -3.199  12.963  20.720  0.00  0.00    +0.000 C 
ATOM     18  C   UNL     1      -1.663  12.862  20.591  0.00  0.00    +0.000 C 
BRANCH  18  19
ATOM     19  C   UNL     1      -0.970  14.142  21.112  0.00  0.00    +0.000 C 
BRANCH  19  20
ATOM     20  C   UNL     1       0.523  14.076  21.047  0.00  0.00    +0.000 A 
ATOM     21  N   UNL     1       1.344  14.182  22.076  0.00  0.00    +0.000 NA
ATOM     22  N   UNL     1       2.633  14.070  21.613  0.00  0.00    +0.000 NA
ATOM     23  C   UNL     1       2.574  13.889  20.317  0.00  0.00    +0.000 A 
ATOM     24  N   UNL     1       1.273  13.886  19.916  0.00  0.00    +0.000 N 
ATOM     25  C   UNL     1       0.811  13.709  18.567  0.00  0.00    +0.000 C 
ENDBRANCH  19  20
ENDBRANCH  18  19
ENDBRANCH  11  18
ENDBRANCH   1  15
BRANCH   8  26
ATOM     26  C   UNL     1       2.226   4.393  20.700  0.00  0.00    +0.000 C 
ATOM     27  F   UNL     1       2.858   3.198  20.531  0.00  0.00    +0.000 F 
ATOM     28  F   UNL     1       2.552   4.807  21.953  0.00  0.00    +0.000 F 
ATOM     29  F   UNL     1       0.897   4.103  20.726  0.00  0.00    +0.000 F 
ENDBRANCH   8  26
BRANCH   6  30
ATOM     30  C   UNL     1       4.662   5.555  16.446  0.00  0.00    +0.000 C 
ATOM     31  C   UNL     1       4.623   4.028  16.283  0.00  0.00    +0.000 C 
BRANCH  30  32
ATOM     32  N   UNL     1       5.962   6.250  16.501  0.00  0.00    +0.000 NA
ATOM     33  C   UNL     1       7.108   5.396  16.157  0.00  0.00    +0.000 C 
ATOM     34  C   UNL     1       7.578   5.414  17.628  0.00  0.00    +0.000 C 
ATOM     35  C   UNL     1       6.480   6.474  17.858  0.00  0.00    +0.000 C 
BRANCH  34  36
ATOM     36  O   UNL     1       7.484   4.188  18.391  0.00  0.00    +0.000 OA
ATOM     37  H   UNL     1       7.462   4.456  19.323  0.00  0.00    +0.000 HD
ENDBRANCH  34  36
ENDBRANCH  30  32
ENDBRANCH   6  30
TORSDOF 8
ENDMDL
