MODEL 1
REMARK VINA RESULT:      -9.8      0.000      0.000
REMARK  Name = 
REMARK  10 active torsions:
REMARK  status: ('A' for Active; 'I' for Inactive)
REMARK    1  A    between atoms: C_1  and  C_2
REMARK    2  A    between atoms: C_2  and  C_3
REMARK    3  A    between atoms: C_3  and  C_4
REMARK    4  A    between atoms: C_3  and  N_35
REMARK    5  A    between atoms: C_8  and  C_9
REMARK    6  A    between atoms: N_15  and  C_16
REMARK    7  A    between atoms: C_20  and  C_21
REMARK    8  A    between atoms: C_21  and  C_22
REMARK    9  A    between atoms: C_22  and  C_23
REMARK   10  A    between atoms: N_27  and  C_28
REMARK                            x       y       z     vdW  Elec       q    Type
REMARK                         _______ _______ _______ _____ _____    ______ ____
ROOT
ATOM      1  C   UNL     1      -0.206  11.019  18.949  0.00  0.00    +0.000 A 
ATOM      2  C   UNL     1       0.663  10.227  18.186  0.00  0.00    +0.000 A 
ATOM      3  C   UNL     1       1.233   9.130  18.797  0.00  0.00    +0.000 A 
ATOM      4  C   UNL     1       1.003   8.805  20.132  0.00  0.00    +0.000 A 
ATOM      5  C   UNL     1       0.184   9.594  20.927  0.00  0.00    +0.000 A 
ATOM      6  C   UNL     1      -0.467  10.669  20.297  0.00  0.00    +0.000 A 
ATOM      7  C   UNL     1       1.746   7.558  20.475  0.00  0.00    +0.000 C 
ATOM      8  N   UNL     1       2.377   7.194  19.215  0.00  0.00    +0.000 N 
ATOM      9  C   UNL     1       2.142   8.135  18.217  0.00  0.00    +0.000 C 
ATOM     10  O   UNL     1       2.524   8.186  17.061  0.00  0.00    +0.000 OA
ENDROOT
BRANCH   8  11
ATOM     11  C   UNL     1       3.163   6.031  19.088  0.00  0.00    +0.000 A 
ATOM     12  C   UNL     1       3.211   5.069  20.096  0.00  0.00    +0.000 A 
ATOM     13  C   UNL     1       3.965   3.911  19.924  0.00  0.00    +0.000 A 
ATOM     14  C   UNL     1       4.726   3.737  18.769  0.00  0.00    +0.000 A 
ATOM     15  C   UNL     1       4.765   4.711  17.755  0.00  0.00    +0.000 A 
ATOM     16  C   UNL     1       3.926   5.828  17.930  0.00  0.00    +0.000 A 
BRANCH  15  17
ATOM     17  C   UNL     1       5.730   4.594  16.484  0.00  0.00    +0.000 C 
ATOM     18  C   UNL     1       5.466   3.463  15.441  0.00  0.00    +0.000 C 
ATOM     19  O   UNL     1       5.613   4.414  14.348  0.00  0.00    +0.000 OA
ATOM     20  C   UNL     1       5.347   5.495  15.275  0.00  0.00    +0.000 C 
BRANCH  17  21
ATOM     21  C   UNL     1       7.211   4.718  16.884  0.00  0.00    +0.000 C 
BRANCH  21  22
ATOM     22  C   UNL     1       7.572   6.091  17.354  0.00  0.00    +0.000 A 
ATOM     23  N   UNL     1       7.659   7.169  16.598  0.00  0.00    +0.000 NA
ATOM     24  N   UNL     1       8.015   8.229  17.395  0.00  0.00    +0.000 NA
ATOM     25  C   UNL     1       8.136   7.782  18.623  0.00  0.00    +0.000 A 
ATOM     26  N   UNL     1       7.886   6.443  18.642  0.00  0.00    +0.000 N 
ATOM     27  C   UNL     1       7.950   5.604  19.806  0.00  0.00    +0.000 C 
ENDBRANCH  21  22
ENDBRANCH  17  21
ENDBRANCH  15  17
ENDBRANCH   8  11
BRANCH   5  28
ATOM     28  C   UNL     1       0.018   9.379  22.407  0.00  0.00    +0.000 C 
ATOM     29  F   UNL     1      -0.618  10.404  23.035  0.00  0.00    +0.000 F 
ATOM     30  F   UNL     1      -0.726   8.269  22.677  0.00  0.00    +0.000 F 
ATOM     31  F   UNL     1       1.199   9.210  23.056  0.00  0.00    +0.000 F 
ENDBRANCH   5  28
BRANCH   1  32
ATOM     32  C   UNL     1      -0.819  12.276  18.330  0.00  0.00    +0.000 C 
BRANCH  32  33
ATOM     33  N   UNL     1      -2.123  11.999  17.695  0.00  0.00    +0.000 NA
ATOM     34  C   UNL     1      -2.141  10.771  16.879  0.00  0.00    +0.000 C 
ATOM     35  C   UNL     1      -3.245   9.879  17.431  0.00  0.00    +0.000 C 
ATOM     36  C   UNL     1      -4.204  10.867  18.041  0.00  0.00    +0.000 C 
ATOM     37  F   UNL     1      -4.962  11.420  17.058  0.00  0.00    +0.000 F 
ATOM     38  C   UNL     1      -3.266  11.907  18.631  0.00  0.00    +0.000 C 
ENDBRANCH  32  33
BRANCH  32  40
ATOM     39  C   UNL     1       0.119  14.459  19.350  0.00  0.00    +0.000 C 
ATOM     40  C   UNL     1      -0.961  13.379  19.419  0.00  0.00    +0.000 C 
ENDBRANCH  32  40
ENDBRANCH   1  32
TORSDOF 8
ENDMDL
MODEL 2
REMARK VINA RESULT:      -9.3      1.970      3.398
REMARK  Name = 
REMARK  10 active torsions:
REMARK  status: ('A' for Active; 'I' for Inactive)
REMARK    1  A    between atoms: C_1  and  C_2
REMARK    2  A    between atoms: C_2  and  C_3
REMARK    3  A    between atoms: C_3  and  C_4
REMARK    4  A    between atoms: C_3  and  N_35
REMARK    5  A    between atoms: C_8  and  C_9
REMARK    6  A    between atoms: N_15  and  C_16
REMARK    7  A    between atoms: C_20  and  C_21
REMARK    8  A    between atoms: C_21  and  C_22
REMARK    9  A    between atoms: C_22  and  C_23
REMARK   10  A    between atoms: N_27  and  C_28
REMARK                            x       y       z     vdW  Elec       q    Type
REMARK                         _______ _______ _______ _____ _____    ______ ____
ROOT
ATOM      1  C   UNL     1      -0.463  11.158  19.209  0.00  0.00    +0.000 A 
ATOM      2  C   UNL     1       0.434  10.383  18.461  0.00  0.00    +0.000 A 
ATOM      3  C   UNL     1       1.042   9.318  19.092  0.00  0.00    +0.000 A 
ATOM      4  C   UNL     1       0.822   9.009  20.432  0.00  0.00    +0.000 A 
ATOM      5  C   UNL     1      -0.026   9.783  21.212  0.00  0.00    +0.000 A 
ATOM      6  C   UNL     1      -0.713  10.823  20.563  0.00  0.00    +0.000 A 
ATOM      7  C   UNL     1       1.607   7.795  20.798  0.00  0.00    +0.000 C 
ATOM      8  N   UNL     1       2.252   7.431  19.545  0.00  0.00    +0.000 N 
ATOM      9  C   UNL     1       1.985   8.346  18.530  0.00  0.00    +0.000 C 
ATOM     10  O   UNL     1       2.367   8.390  17.373  0.00  0.00    +0.000 OA
ENDROOT
BRANCH   8  11
ATOM     11  C   UNL     1       3.078   6.294  19.440  0.00  0.00    +0.000 A 
ATOM     12  C   UNL     1       2.642   5.035  19.847  0.00  0.00    +0.000 A 
ATOM     13  C   UNL     1       3.466   3.924  19.693  0.00  0.00    +0.000 A 
ATOM     14  C   UNL     1       4.758   4.075  19.188  0.00  0.00    +0.000 A 
ATOM     15  C   UNL     1       5.268   5.335  18.829  0.00  0.00    +0.000 A 
ATOM     16  C   UNL     1       4.375   6.420  18.923  0.00  0.00    +0.000 A 
BRANCH  15  17
ATOM     17  C   UNL     1       6.786   5.552  18.373  0.00  0.00    +0.000 C 
ATOM     18  C   UNL     1       7.223   6.959  17.856  0.00  0.00    +0.000 C 
ATOM     19  O   UNL     1       8.415   6.914  18.692  0.00  0.00    +0.000 OA
ATOM     20  C   UNL     1       7.779   5.908  19.517  0.00  0.00    +0.000 C 
BRANCH  17  21
ATOM     21  C   UNL     1       7.281   4.398  17.483  0.00  0.00    +0.000 C 
BRANCH  21  22
ATOM     22  C   UNL     1       6.933   4.586  16.041  0.00  0.00    +0.000 A 
ATOM     23  N   UNL     1       7.656   5.236  15.150  0.00  0.00    +0.000 NA
ATOM     24  N   UNL     1       7.001   5.190  13.944  0.00  0.00    +0.000 NA
ATOM     25  C   UNL     1       5.892   4.511  14.118  0.00  0.00    +0.000 A 
ATOM     26  N   UNL     1       5.798   4.129  15.422  0.00  0.00    +0.000 N 
ATOM     27  C   UNL     1       4.705   3.391  15.993  0.00  0.00    +0.000 C 
ENDBRANCH  21  22
ENDBRANCH  17  21
ENDBRANCH  15  17
ENDBRANCH   8  11
BRANCH   5  28
ATOM     28  C   UNL     1      -0.185   9.589  22.696  0.00  0.00    +0.000 C 
ATOM     29  F   UNL     1      -0.858  10.602  23.306  0.00  0.00    +0.000 F 
ATOM     30  F   UNL     1      -0.892   8.459  22.986  0.00  0.00    +0.000 F 
ATOM     31  F   UNL     1       1.000   9.472  23.349  0.00  0.00    +0.000 F 
ENDBRANCH   5  28
BRANCH   1  32
ATOM     32  C   UNL     1      -1.119  12.382  18.568  0.00  0.00    +0.000 C 
BRANCH  32  33
ATOM     33  N   UNL     1      -0.144  13.462  18.314  0.00  0.00    +0.000 NA
ATOM     34  C   UNL     1      -0.437  14.713  19.037  0.00  0.00    +0.000 C 
ATOM     35  C   UNL     1       0.786  15.044  19.881  0.00  0.00    +0.000 C 
ATOM     36  C   UNL     1       1.909  14.397  19.115  0.00  0.00    +0.000 C 
ATOM     37  F   UNL     1       2.254  15.191  18.067  0.00  0.00    +0.000 F 
ATOM     38  C   UNL     1       1.263  13.115  18.613  0.00  0.00    +0.000 C 
ENDBRANCH  32  33
BRANCH  32  40
ATOM     39  C   UNL     1      -2.730  10.735  17.394  0.00  0.00    +0.000 C 
ATOM     40  C   UNL     1      -1.830  11.962  17.248  0.00  0.00    +0.000 C 
ENDBRANCH  32  40
ENDBRANCH   1  32
TORSDOF 8
ENDMDL
MODEL 3
REMARK VINA RESULT:      -9.2      3.157      9.859
REMARK  Name = 
REMARK  10 active torsions:
REMARK  status: ('A' for Active; 'I' for Inactive)
REMARK    1  A    between atoms: C_1  and  C_2
REMARK    2  A    between atoms: C_2  and  C_3
REMARK    3  A    between atoms: C_3  and  C_4
REMARK    4  A    between atoms: C_3  and  N_35
REMARK    5  A    between atoms: C_8  and  C_9
REMARK    6  A    between atoms: N_15  and  C_16
REMARK    7  A    between atoms: C_20  and  C_21
REMARK    8  A    between atoms: C_21  and  C_22
REMARK    9  A    between atoms: C_22  and  C_23
REMARK   10  A    between atoms: N_27  and  C_28
REMARK                            x       y       z     vdW  Elec       q    Type
REMARK                         _______ _______ _______ _____ _____    ______ ____
ROOT
ATOM      1  C   UNL     1       4.644   5.610  18.139  0.00  0.00    +0.000 A 
ATOM      2  C   UNL     1       4.136   6.881  17.839  0.00  0.00    +0.000 A 
ATOM      3  C   UNL     1       3.055   7.329  18.567  0.00  0.00    +0.000 A 
ATOM      4  C   UNL     1       2.440   6.562  19.554  0.00  0.00    +0.000 A 
ATOM      5  C   UNL     1       2.890   5.281  19.846  0.00  0.00    +0.000 A 
ATOM      6  C   UNL     1       4.040   4.843  19.168  0.00  0.00    +0.000 A 
ATOM      7  C   UNL     1       1.322   7.338  20.163  0.00  0.00    +0.000 C 
ATOM      8  N   UNL     1       1.386   8.612  19.463  0.00  0.00    +0.000 N 
ATOM      9  C   UNL     1       2.363   8.619  18.471  0.00  0.00    +0.000 C 
ATOM     10  O   UNL     1       2.685   9.482  17.673  0.00  0.00    +0.000 OA
ENDROOT
BRANCH   8  11
ATOM     11  C   UNL     1       0.506   9.670  19.766  0.00  0.00    +0.000 A 
ATOM     12  C   UNL     1       0.642  10.421  20.932  0.00  0.00    +0.000 A 
ATOM     13  C   UNL     1      -0.219  11.486  21.184  0.00  0.00    +0.000 A 
ATOM     14  C   UNL     1      -1.261  11.768  20.302  0.00  0.00    +0.000 A 
ATOM     15  C   UNL     1      -1.482  10.995  19.148  0.00  0.00    +0.000 A 
ATOM     16  C   UNL     1      -0.541   9.980  18.887  0.00  0.00    +0.000 A 
BRANCH  15  17
ATOM     17  C   UNL     1      -2.746  11.215  18.191  0.00  0.00    +0.000 C 
ATOM     18  C   UNL     1      -2.540  11.149  16.646  0.00  0.00    +0.000 C 
ATOM     19  O   UNL     1      -3.709  10.292  16.509  0.00  0.00    +0.000 OA
ATOM     20  C   UNL     1      -3.596   9.942  17.910  0.00  0.00    +0.000 C 
BRANCH  17  21
ATOM     21  C   UNL     1      -3.593  12.419  18.640  0.00  0.00    +0.000 C 
BRANCH  21  22
ATOM     22  C   UNL     1      -4.911  12.016  19.220  0.00  0.00    +0.000 A 
ATOM     23  N   UNL     1      -5.115  11.578  20.447  0.00  0.00    +0.000 NA
ATOM     24  N   UNL     1      -6.454  11.313  20.596  0.00  0.00    +0.000 NA
ATOM     25  C   UNL     1      -7.045  11.596  19.460  0.00  0.00    +0.000 A 
ATOM     26  N   UNL     1      -6.114  12.023  18.562  0.00  0.00    +0.000 N 
ATOM     27  C   UNL     1      -6.386  12.398  17.201  0.00  0.00    +0.000 C 
ENDBRANCH  21  22
ENDBRANCH  17  21
ENDBRANCH  15  17
ENDBRANCH   8  11
BRANCH   5  28
ATOM     28  C   UNL     1       2.176   4.353  20.791  0.00  0.00    +0.000 C 
ATOM     29  F   UNL     1       2.469   4.584  22.100  0.00  0.00    +0.000 F 
ATOM     30  F   UNL     1       0.822   4.477  20.695  0.00  0.00    +0.000 F 
ATOM     31  F   UNL     1       2.454   3.044  20.565  0.00  0.00    +0.000 F 
ENDBRANCH   5  28
BRANCH   1  32
ATOM     32  C   UNL     1       5.807   5.050  17.321  0.00  0.00    +0.000 C 
BRANCH  32  33
ATOM     33  N   UNL     1       5.447   4.868  15.900  0.00  0.00    +0.000 NA
ATOM     34  C   UNL     1       6.144   5.791  14.985  0.00  0.00    +0.000 C 
ATOM     35  C   UNL     1       6.886   4.939  13.965  0.00  0.00    +0.000 C 
ATOM     36  C   UNL     1       6.066   3.677  13.919  0.00  0.00    +0.000 C 
ATOM     37  F   UNL     1       4.969   3.883  13.143  0.00  0.00    +0.000 F 
ATOM     38  C   UNL     1       5.658   3.502  15.373  0.00  0.00    +0.000 C 
ENDBRANCH  32  33
BRANCH  32  40
ATOM     39  C   UNL     1       7.719   5.920  18.829  0.00  0.00    +0.000 C 
ATOM     40  C   UNL     1       7.043   5.987  17.460  0.00  0.00    +0.000 C 
ENDBRANCH  32  40
ENDBRANCH   1  32
TORSDOF 8
ENDMDL
MODEL 4
REMARK VINA RESULT:      -9.2      2.903      9.553
REMARK  Name = 
REMARK  10 active torsions:
REMARK  status: ('A' for Active; 'I' for Inactive)
REMARK    1  A    between atoms: C_1  and  C_2
REMARK    2  A    between atoms: C_2  and  C_3
REMARK    3  A    between atoms: C_3  and  C_4
REMARK    4  A    between atoms: C_3  and  N_35
REMARK    5  A    between atoms: C_8  and  C_9
REMARK    6  A    between atoms: N_15  and  C_16
REMARK    7  A    between atoms: C_20  and  C_21
REMARK    8  A    between atoms: C_21  and  C_22
REMARK    9  A    between atoms: C_22  and  C_23
REMARK   10  A    between atoms: N_27  and  C_28
REMARK                            x       y       z     vdW  Elec       q    Type
REMARK                         _______ _______ _______ _____ _____    ______ ____
ROOT
ATOM      1  C   UNL     1       3.949   5.844  18.025  0.00  0.00    +0.000 A 
ATOM      2  C   UNL     1       3.425   7.142  18.098  0.00  0.00    +0.000 A 
ATOM      3  C   UNL     1       2.506   7.408  19.091  0.00  0.00    +0.000 A 
ATOM      4  C   UNL     1       2.066   6.441  19.990  0.00  0.00    +0.000 A 
ATOM      5  C   UNL     1       2.531   5.135  19.917  0.00  0.00    +0.000 A 
ATOM      6  C   UNL     1       3.526   4.868  18.962  0.00  0.00    +0.000 A 
ATOM      7  C   UNL     1       1.096   7.053  20.944  0.00  0.00    +0.000 C 
ATOM      8  N   UNL     1       1.061   8.447  20.528  0.00  0.00    +0.000 N 
ATOM      9  C   UNL     1       1.839   8.678  19.397  0.00  0.00    +0.000 C 
ATOM     10  O   UNL     1       2.030   9.695  18.753  0.00  0.00    +0.000 OA
ENDROOT
BRANCH   8  11
ATOM     11  C   UNL     1       0.277   9.403  21.204  0.00  0.00    +0.000 A 
ATOM     12  C   UNL     1      -0.151   9.201  22.514  0.00  0.00    +0.000 A 
ATOM     13  C   UNL     1      -0.891  10.182  23.169  0.00  0.00    +0.000 A 
ATOM     14  C   UNL     1      -1.262  11.345  22.495  0.00  0.00    +0.000 A 
ATOM     15  C   UNL     1      -0.914  11.563  21.150  0.00  0.00    +0.000 A 
ATOM     16  C   UNL     1      -0.097  10.585  20.551  0.00  0.00    +0.000 A 
BRANCH  15  17
ATOM     17  C   UNL     1      -1.438  12.826  20.318  0.00  0.00    +0.000 C 
ATOM     18  C   UNL     1      -2.689  13.602  20.836  0.00  0.00    +0.000 C 
ATOM     19  O   UNL     1      -2.008  14.872  20.629  0.00  0.00    +0.000 OA
ATOM     20  C   UNL     1      -0.738  14.176  20.649  0.00  0.00    +0.000 C 
BRANCH  17  21
ATOM     21  C   UNL     1      -1.489  12.527  18.809  0.00  0.00    +0.000 C 
BRANCH  21  22
ATOM     22  C   UNL     1      -2.649  11.664  18.428  0.00  0.00    +0.000 A 
ATOM     23  N   UNL     1      -3.917  11.906  18.700  0.00  0.00    +0.000 NA
ATOM     24  N   UNL     1      -4.674  10.883  18.187  0.00  0.00    +0.000 NA
ATOM     25  C   UNL     1      -3.858  10.035  17.607  0.00  0.00    +0.000 A 
ATOM     26  N   UNL     1      -2.576  10.474  17.750  0.00  0.00    +0.000 N 
ATOM     27  C   UNL     1      -1.408   9.791  17.267  0.00  0.00    +0.000 C 
ENDBRANCH  21  22
ENDBRANCH  17  21
ENDBRANCH  15  17
ENDBRANCH   8  11
BRANCH   5  28
ATOM     28  C   UNL     1       1.981   4.017  20.762  0.00  0.00    +0.000 C 
ATOM     29  F   UNL     1       2.453   2.790  20.410  0.00  0.00    +0.000 F 
ATOM     30  F   UNL     1       2.307   4.168  22.076  0.00  0.00    +0.000 F 
ATOM     31  F   UNL     1       0.626   3.930  20.715  0.00  0.00    +0.000 F 
ENDBRANCH   5  28
BRANCH   1  32
ATOM     32  C   UNL     1       4.929   5.488  16.907  0.00  0.00    +0.000 C 
BRANCH  32  33
ATOM     33  N   UNL     1       6.309   5.330  17.412  0.00  0.00    +0.000 NA
ATOM     34  C   UNL     1       7.233   6.387  16.963  0.00  0.00    +0.000 C 
ATOM     35  C   UNL     1       7.820   7.034  18.210  0.00  0.00    +0.000 C 
ATOM     36  C   UNL     1       7.748   5.927  19.229  0.00  0.00    +0.000 C 
ATOM     37  F   UNL     1       8.781   5.067  19.029  0.00  0.00    +0.000 F 
ATOM     38  C   UNL     1       6.429   5.254  18.885  0.00  0.00    +0.000 C 
ENDBRANCH  32  33
BRANCH  32  40
ATOM     39  C   UNL     1       5.571   3.447  15.457  0.00  0.00    +0.000 C 
ATOM     40  C   UNL     1       4.455   4.191  16.189  0.00  0.00    +0.000 C 
ENDBRANCH  32  40
ENDBRANCH   1  32
TORSDOF 8
ENDMDL
MODEL 5
REMARK VINA RESULT:      -9.1      3.236      9.301
REMARK  Name = 
REMARK  10 active torsions:
REMARK  status: ('A' for Active; 'I' for Inactive)
REMARK    1  A    between atoms: C_1  and  C_2
REMARK    2  A    between atoms: C_2  and  C_3
REMARK    3  A    between atoms: C_3  and  C_4
REMARK    4  A    between atoms: C_3  and  N_35
REMARK    5  A    between atoms: C_8  and  C_9
REMARK    6  A    between atoms: N_15  and  C_16
REMARK    7  A    between atoms: C_20  and  C_21
REMARK    8  A    between atoms: C_21  and  C_22
REMARK    9  A    between atoms: C_22  and  C_23
REMARK   10  A    between atoms: N_27  and  C_28
REMARK                            x       y       z     vdW  Elec       q    Type
REMARK                         _______ _______ _______ _____ _____    ______ ____
ROOT
ATOM      1  C   UNL     1       3.988   5.798  17.994  0.00  0.00    +0.000 A 
ATOM      2  C   UNL     1       3.468   7.097  18.072  0.00  0.00    +0.000 A 
ATOM      3  C   UNL     1       2.543   7.359  19.060  0.00  0.00    +0.000 A 
ATOM      4  C   UNL     1       2.093   6.386  19.950  0.00  0.00    +0.000 A 
ATOM      5  C   UNL     1       2.556   5.079  19.872  0.00  0.00    +0.000 A 
ATOM      6  C   UNL     1       3.557   4.817  18.922  0.00  0.00    +0.000 A 
ATOM      7  C   UNL     1       1.119   6.994  20.901  0.00  0.00    +0.000 C 
ATOM      8  N   UNL     1       1.090   8.391  20.494  0.00  0.00    +0.000 N 
ATOM      9  C   UNL     1       1.876   8.628  19.370  0.00  0.00    +0.000 C 
ATOM     10  O   UNL     1       2.074   9.649  18.734  0.00  0.00    +0.000 OA
ENDROOT
BRANCH   8  11
ATOM     11  C   UNL     1       0.304   9.345  21.171  0.00  0.00    +0.000 A 
ATOM     12  C   UNL     1       0.126   9.297  22.552  0.00  0.00    +0.000 A 
ATOM     13  C   UNL     1      -0.624  10.277  23.197  0.00  0.00    +0.000 A 
ATOM     14  C   UNL     1      -1.255  11.276  22.456  0.00  0.00    +0.000 A 
ATOM     15  C   UNL     1      -1.163  11.326  21.054  0.00  0.00    +0.000 A 
ATOM     16  C   UNL     1      -0.329  10.366  20.449  0.00  0.00    +0.000 A 
BRANCH  15  17
ATOM     17  C   UNL     1      -1.981  12.382  20.174  0.00  0.00    +0.000 C 
ATOM     18  C   UNL     1      -3.023  11.852  19.139  0.00  0.00    +0.000 C 
ATOM     19  O   UNL     1      -4.004  12.823  19.604  0.00  0.00    +0.000 OA
ATOM     20  C   UNL     1      -3.266  12.951  20.843  0.00  0.00    +0.000 C 
BRANCH  17  21
ATOM     21  C   UNL     1      -1.062  13.478  19.604  0.00  0.00    +0.000 C 
BRANCH  21  22
ATOM     22  C   UNL     1      -0.101  14.013  20.618  0.00  0.00    +0.000 A 
ATOM     23  N   UNL     1      -0.417  14.723  21.684  0.00  0.00    +0.000 NA
ATOM     24  N   UNL     1       0.738  15.026  22.360  0.00  0.00    +0.000 NA
ATOM     25  C   UNL     1       1.739  14.494  21.699  0.00  0.00    +0.000 A 
ATOM     26  N   UNL     1       1.262  13.865  20.589  0.00  0.00    +0.000 N 
ATOM     27  C   UNL     1       2.066  13.191  19.608  0.00  0.00    +0.000 C 
ENDBRANCH  21  22
ENDBRANCH  17  21
ENDBRANCH  15  17
ENDBRANCH   8  11
BRANCH   5  28
ATOM     28  C   UNL     1       1.997   3.958  20.705  0.00  0.00    +0.000 C 
ATOM     29  F   UNL     1       0.646   3.831  20.606  0.00  0.00    +0.000 F 
ATOM     30  F   UNL     1       2.504   2.749  20.331  0.00  0.00    +0.000 F 
ATOM     31  F   UNL     1       2.271   4.089  22.029  0.00  0.00    +0.000 F 
ENDBRANCH   5  28
BRANCH   1  32
ATOM     32  C   UNL     1       4.976   5.447  16.881  0.00  0.00    +0.000 C 
BRANCH  32  33
ATOM     33  N   UNL     1       6.356   5.310  17.389  0.00  0.00    +0.000 NA
ATOM     34  C   UNL     1       7.244   6.424  17.010  0.00  0.00    +0.000 C 
ATOM     35  C   UNL     1       7.797   7.018  18.298  0.00  0.00    +0.000 C 
ATOM     36  C   UNL     1       7.758   5.853  19.252  0.00  0.00    +0.000 C 
ATOM     37  F   UNL     1       8.824   5.043  19.013  0.00  0.00    +0.000 F 
ATOM     38  C   UNL     1       6.467   5.154  18.856  0.00  0.00    +0.000 C 
ENDBRANCH  32  33
BRANCH  32  40
ATOM     39  C   UNL     1       5.534   3.595  15.165  0.00  0.00    +0.000 C 
ATOM     40  C   UNL     1       4.519   4.139  16.171  0.00  0.00    +0.000 C 
ENDBRANCH  32  40
ENDBRANCH   1  32
TORSDOF 8
ENDMDL
MODEL 6
REMARK VINA RESULT:      -9.1      3.181      9.790
REMARK  Name = 
REMARK  10 active torsions:
REMARK  status: ('A' for Active; 'I' for Inactive)
REMARK    1  A    between atoms: C_1  and  C_2
REMARK    2  A    between atoms: C_2  and  C_3
REMARK    3  A    between atoms: C_3  and  C_4
REMARK    4  A    between atoms: C_3  and  N_35
REMARK    5  A    between atoms: C_8  and  C_9
REMARK    6  A    between atoms: N_15  and  C_16
REMARK    7  A    between atoms: C_20  and  C_21
REMARK    8  A    between atoms: C_21  and  C_22
REMARK    9  A    between atoms: C_22  and  C_23
REMARK   10  A    between atoms: N_27  and  C_28
REMARK                            x       y       z     vdW  Elec       q    Type
REMARK                         _______ _______ _______ _____ _____    ______ ____
ROOT
ATOM      1  C   UNL     1       4.656   5.841  18.150  0.00  0.00    +0.000 A 
ATOM      2  C   UNL     1       4.078   7.074  17.817  0.00  0.00    +0.000 A 
ATOM      3  C   UNL     1       2.971   7.478  18.532  0.00  0.00    +0.000 A 
ATOM      4  C   UNL     1       2.398   6.702  19.537  0.00  0.00    +0.000 A 
ATOM      5  C   UNL     1       2.918   5.457  19.861  0.00  0.00    +0.000 A 
ATOM      6  C   UNL     1       4.094   5.068  19.196  0.00  0.00    +0.000 A 
ATOM      7  C   UNL     1       1.235   7.428  20.124  0.00  0.00    +0.000 C 
ATOM      8  N   UNL     1       1.229   8.686  19.392  0.00  0.00    +0.000 N 
ATOM      9  C   UNL     1       2.207   8.723  18.402  0.00  0.00    +0.000 C 
ATOM     10  O   UNL     1       2.482   9.583  17.583  0.00  0.00    +0.000 OA
ENDROOT
BRANCH   8  11
ATOM     11  C   UNL     1       0.290   9.700  19.667  0.00  0.00    +0.000 A 
ATOM     12  C   UNL     1       0.338  10.440  20.847  0.00  0.00    +0.000 A 
ATOM     13  C   UNL     1      -0.580  11.462  21.071  0.00  0.00    +0.000 A 
ATOM     14  C   UNL     1      -1.593  11.709  20.146  0.00  0.00    +0.000 A 
ATOM     15  C   UNL     1      -1.726  10.943  18.974  0.00  0.00    +0.000 A 
ATOM     16  C   UNL     1      -0.730   9.975  18.745  0.00  0.00    +0.000 A 
BRANCH  15  17
ATOM     17  C   UNL     1      -2.954  11.121  17.963  0.00  0.00    +0.000 C 
ATOM     18  C   UNL     1      -2.667  11.147  16.429  0.00  0.00    +0.000 C 
ATOM     19  O   UNL     1      -3.762  10.216  16.191  0.00  0.00    +0.000 OA
ATOM     20  C   UNL     1      -3.692   9.806  17.579  0.00  0.00    +0.000 C 
BRANCH  17  21
ATOM     21  C   UNL     1      -3.909  12.237  18.422  0.00  0.00    +0.000 C 
BRANCH  21  22
ATOM     22  C   UNL     1      -5.196  11.709  18.971  0.00  0.00    +0.000 A 
ATOM     23  N   UNL     1      -6.107  11.036  18.296  0.00  0.00    +0.000 NA
ATOM     24  N   UNL     1      -7.140  10.731  19.147  0.00  0.00    +0.000 NA
ATOM     25  C   UNL     1      -6.841  11.218  20.328  0.00  0.00    +0.000 A 
ATOM     26  N   UNL     1      -5.640  11.856  20.261  0.00  0.00    +0.000 N 
ATOM     27  C   UNL     1      -5.000  12.537  21.353  0.00  0.00    +0.000 C 
ENDBRANCH  21  22
ENDBRANCH  17  21
ENDBRANCH  15  17
ENDBRANCH   8  11
BRANCH   5  28
ATOM     28  C   UNL     1       2.255   4.514  20.829  0.00  0.00    +0.000 C 
ATOM     29  F   UNL     1       0.917   4.383  20.626  0.00  0.00    +0.000 F 
ATOM     30  F   UNL     1       2.762   3.252  20.733  0.00  0.00    +0.000 F 
ATOM     31  F   UNL     1       2.409   4.886  22.126  0.00  0.00    +0.000 F 
ENDBRANCH   5  28
BRANCH   1  32
ATOM     32  C   UNL     1       5.852   5.328  17.348  0.00  0.00    +0.000 C 
BRANCH  32  33
ATOM     33  N   UNL     1       5.508   5.096  15.931  0.00  0.00    +0.000 NA
ATOM     34  C   UNL     1       6.383   5.805  14.980  0.00  0.00    +0.000 C 
ATOM     35  C   UNL     1       6.995   4.757  14.061  0.00  0.00    +0.000 C 
ATOM     36  C   UNL     1       5.967   3.656  14.074  0.00  0.00    +0.000 C 
ATOM     37  F   UNL     1       4.947   3.985  13.238  0.00  0.00    +0.000 F 
ATOM     38  C   UNL     1       5.491   3.675  15.518  0.00  0.00    +0.000 C 
ENDBRANCH  32  33
BRANCH  32  40
ATOM     39  C   UNL     1       7.811   6.219  18.780  0.00  0.00    +0.000 C 
ATOM     40  C   UNL     1       7.034   6.334  17.470  0.00  0.00    +0.000 C 
ENDBRANCH  32  40
ENDBRANCH   1  32
TORSDOF 8
ENDMDL
MODEL 7
REMARK VINA RESULT:      -8.9      1.810      3.143
REMARK  Name = 
REMARK  10 active torsions:
REMARK  status: ('A' for Active; 'I' for Inactive)
REMARK    1  A    between atoms: C_1  and  C_2
REMARK    2  A    between atoms: C_2  and  C_3
REMARK    3  A    between atoms: C_3  and  C_4
REMARK    4  A    between atoms: C_3  and  N_35
REMARK    5  A    between atoms: C_8  and  C_9
REMARK    6  A    between atoms: N_15  and  C_16
REMARK    7  A    between atoms: C_20  and  C_21
REMARK    8  A    between atoms: C_21  and  C_22
REMARK    9  A    between atoms: C_22  and  C_23
REMARK   10  A    between atoms: N_27  and  C_28
REMARK                            x       y       z     vdW  Elec       q    Type
REMARK                         _______ _______ _______ _____ _____    ______ ____
ROOT
ATOM      1  C   UNL     1       0.674  11.753  19.666  0.00  0.00    +0.000 A 
ATOM      2  C   UNL     1       1.375  10.941  18.764  0.00  0.00    +0.000 A 
ATOM      3  C   UNL     1       1.574   9.622  19.111  0.00  0.00    +0.000 A 
ATOM      4  C   UNL     1       1.136   9.084  20.319  0.00  0.00    +0.000 A 
ATOM      5  C   UNL     1       0.478   9.872  21.253  0.00  0.00    +0.000 A 
ATOM      6  C   UNL     1       0.197  11.197  20.880  0.00  0.00    +0.000 A 
ATOM      7  C   UNL     1       1.488   7.636  20.376  0.00  0.00    +0.000 C 
ATOM      8  N   UNL     1       2.123   7.401  19.088  0.00  0.00    +0.000 N 
ATOM      9  C   UNL     1       2.243   8.569  18.339  0.00  0.00    +0.000 C 
ATOM     10  O   UNL     1       2.738   8.768  17.243  0.00  0.00    +0.000 OA
ENDROOT
BRANCH   8  11
ATOM     11  C   UNL     1       2.584   6.124  18.710  0.00  0.00    +0.000 A 
ATOM     12  C   UNL     1       2.054   4.962  19.268  0.00  0.00    +0.000 A 
ATOM     13  C   UNL     1       2.503   3.714  18.844  0.00  0.00    +0.000 A 
ATOM     14  C   UNL     1       3.531   3.620  17.906  0.00  0.00    +0.000 A 
ATOM     15  C   UNL     1       4.146   4.764  17.367  0.00  0.00    +0.000 A 
ATOM     16  C   UNL     1       3.608   6.005  17.759  0.00  0.00    +0.000 A 
BRANCH  15  17
ATOM     17  C   UNL     1       5.411   4.684  16.391  0.00  0.00    +0.000 C 
ATOM     18  C   UNL     1       5.365   3.702  15.179  0.00  0.00    +0.000 C 
ATOM     19  O   UNL     1       5.870   4.743  14.295  0.00  0.00    +0.000 OA
ATOM     20  C   UNL     1       5.438   5.742  15.250  0.00  0.00    +0.000 C 
BRANCH  17  21
ATOM     21  C   UNL     1       6.731   4.614  17.180  0.00  0.00    +0.000 C 
BRANCH  21  22
ATOM     22  C   UNL     1       7.304   5.964  17.472  0.00  0.00    +0.000 A 
ATOM     23  N   UNL     1       7.400   6.964  16.618  0.00  0.00    +0.000 NA
ATOM     24  N   UNL     1       7.981   8.028  17.262  0.00  0.00    +0.000 NA
ATOM     25  C   UNL     1       8.228   7.662  18.497  0.00  0.00    +0.000 A 
ATOM     26  N   UNL     1       7.837   6.368  18.669  0.00  0.00    +0.000 N 
ATOM     27  C   UNL     1       7.975   5.615  19.885  0.00  0.00    +0.000 C 
ENDBRANCH  21  22
ENDBRANCH  17  21
ENDBRANCH  15  17
ENDBRANCH   8  11
BRANCH   5  28
ATOM     28  C   UNL     1       0.116   9.386  22.631  0.00  0.00    +0.000 C 
ATOM     29  F   UNL     1      -0.575  10.301  23.363  0.00  0.00    +0.000 F 
ATOM     30  F   UNL     1      -0.681   8.281  22.585  0.00  0.00    +0.000 F 
ATOM     31  F   UNL     1       1.198   9.042  23.376  0.00  0.00    +0.000 F 
ENDBRANCH   5  28
BRANCH   1  32
ATOM     32  C   UNL     1       0.476  13.236  19.349  0.00  0.00    +0.000 C 
BRANCH  32  33
ATOM     33  N   UNL     1       1.763  13.939  19.175  0.00  0.00    +0.000 NA
ATOM     34  C   UNL     1       1.648  15.225  18.463  0.00  0.00    +0.000 C 
ATOM     35  C   UNL     1       2.223  16.299  19.376  0.00  0.00    +0.000 C 
ATOM     36  C   UNL     1       3.214  15.535  20.214  0.00  0.00    +0.000 C 
ATOM     37  F   UNL     1       4.354  15.346  19.499  0.00  0.00    +0.000 F 
ATOM     38  C   UNL     1       2.501  14.209  20.428  0.00  0.00    +0.000 C 
ENDBRANCH  32  33
BRANCH  32  40
ATOM     39  C   UNL     1      -1.501  12.323  17.956  0.00  0.00    +0.000 C 
ATOM     40  C   UNL     1      -0.409  13.385  18.078  0.00  0.00    +0.000 C 
ENDBRANCH  32  40
ENDBRANCH   1  32
TORSDOF 8
ENDMDL
MODEL 8
REMARK VINA RESULT:      -8.8      0.752      1.132
REMARK  Name = 
REMARK  10 active torsions:
REMARK  status: ('A' for Active; 'I' for Inactive)
REMARK    1  A    between atoms: C_1  and  C_2
REMARK    2  A    between atoms: C_2  and  C_3
REMARK    3  A    between atoms: C_3  and  C_4
REMARK    4  A    between atoms: C_3  and  N_35
REMARK    5  A    between atoms: C_8  and  C_9
REMARK    6  A    between atoms: N_15  and  C_16
REMARK    7  A    between atoms: C_20  and  C_21
REMARK    8  A    between atoms: C_21  and  C_22
REMARK    9  A    between atoms: C_22  and  C_23
REMARK   10  A    between atoms: N_27  and  C_28
REMARK                            x       y       z     vdW  Elec       q    Type
REMARK                         _______ _______ _______ _____ _____    ______ ____
ROOT
ATOM      1  C   UNL     1       0.067  11.335  19.247  0.00  0.00    +0.000 A 
ATOM      2  C   UNL     1       0.838  10.547  18.382  0.00  0.00    +0.000 A 
ATOM      3  C   UNL     1       1.333   9.356  18.868  0.00  0.00    +0.000 A 
ATOM      4  C   UNL     1       1.122   8.929  20.177  0.00  0.00    +0.000 A 
ATOM      5  C   UNL     1       0.400   9.706  21.073  0.00  0.00    +0.000 A 
ATOM      6  C   UNL     1      -0.178  10.884  20.569  0.00  0.00    +0.000 A 
ATOM      7  C   UNL     1       1.767   7.600  20.377  0.00  0.00    +0.000 C 
ATOM      8  N   UNL     1       2.322   7.302  19.065  0.00  0.00    +0.000 N 
ATOM      9  C   UNL     1       2.134   8.348  18.165  0.00  0.00    +0.000 C 
ATOM     10  O   UNL     1       2.480   8.474  17.003  0.00  0.00    +0.000 OA
ENDROOT
BRANCH   8  11
ATOM     11  C   UNL     1       3.000   6.095  18.803  0.00  0.00    +0.000 A 
ATOM     12  C   UNL     1       2.893   4.998  19.655  0.00  0.00    +0.000 A 
ATOM     13  C   UNL     1       3.544   3.806  19.347  0.00  0.00    +0.000 A 
ATOM     14  C   UNL     1       4.358   3.724  18.218  0.00  0.00    +0.000 A 
ATOM     15  C   UNL     1       4.553   4.825  17.366  0.00  0.00    +0.000 A 
ATOM     16  C   UNL     1       3.814   5.985  17.666  0.00  0.00    +0.000 A 
BRANCH  15  17
ATOM     17  C   UNL     1       5.582   4.796  16.141  0.00  0.00    +0.000 C 
ATOM     18  C   UNL     1       6.169   3.424  15.684  0.00  0.00    +0.000 C 
ATOM     19  O   UNL     1       5.899   3.752  14.292  0.00  0.00    +0.000 OA
ATOM     20  C   UNL     1       4.931   4.737  14.729  0.00  0.00    +0.000 C 
BRANCH  17  21
ATOM     21  C   UNL     1       6.647   5.900  16.269  0.00  0.00    +0.000 C 
BRANCH  21  22
ATOM     22  C   UNL     1       7.327   5.898  17.601  0.00  0.00    +0.000 A 
ATOM     23  N   UNL     1       7.519   4.843  18.369  0.00  0.00    +0.000 NA
ATOM     24  N   UNL     1       8.175   5.249  19.505  0.00  0.00    +0.000 NA
ATOM     25  C   UNL     1       8.375   6.542  19.410  0.00  0.00    +0.000 A 
ATOM     26  N   UNL     1       7.843   6.995  18.241  0.00  0.00    +0.000 N 
ATOM     27  C   UNL     1       7.847   8.364  17.804  0.00  0.00    +0.000 C 
ENDBRANCH  21  22
ENDBRANCH  17  21
ENDBRANCH  15  17
ENDBRANCH   8  11
BRANCH   5  28
ATOM     28  C   UNL     1       0.268   9.370  22.534  0.00  0.00    +0.000 C 
ATOM     29  F   UNL     1      -0.326  10.353  23.264  0.00  0.00    +0.000 F 
ATOM     30  F   UNL     1      -0.498   8.260  22.730  0.00  0.00    +0.000 F 
ATOM     31  F   UNL     1       1.460   9.118  23.133  0.00  0.00    +0.000 F 
ENDBRANCH   5  28
BRANCH   1  32
ATOM     32  C   UNL     1      -0.457  12.689  18.769  0.00  0.00    +0.000 C 
BRANCH  32  33
ATOM     33  N   UNL     1      -1.845  12.599  18.269  0.00  0.00    +0.000 NA
ATOM     34  C   UNL     1      -2.035  11.585  17.216  0.00  0.00    +0.000 C 
ATOM     35  C   UNL     1      -3.111  10.625  17.702  0.00  0.00    +0.000 C 
ATOM     36  C   UNL     1      -3.929  11.479  18.636  0.00  0.00    +0.000 C 
ATOM     37  F   UNL     1      -4.769  12.260  17.908  0.00  0.00    +0.000 F 
ATOM     38  C   UNL     1      -2.865  12.334  19.307  0.00  0.00    +0.000 C 
ENDBRANCH  32  33
BRANCH  32  40
ATOM     39  C   UNL     1      -0.510  15.177  19.467  0.00  0.00    +0.000 C 
ATOM     40  C   UNL     1      -0.356  13.727  19.924  0.00  0.00    +0.000 C 
ENDBRANCH  32  40
ENDBRANCH   1  32
TORSDOF 8
ENDMDL
MODEL 9
REMARK VINA RESULT:      -8.8      3.646      8.991
REMARK  Name = 
REMARK  10 active torsions:
REMARK  status: ('A' for Active; 'I' for Inactive)
REMARK    1  A    between atoms: C_1  and  C_2
REMARK    2  A    between atoms: C_2  and  C_3
REMARK    3  A    between atoms: C_3  and  C_4
REMARK    4  A    between atoms: C_3  and  N_35
REMARK    5  A    between atoms: C_8  and  C_9
REMARK    6  A    between atoms: N_15  and  C_16
REMARK    7  A    between atoms: C_20  and  C_21
REMARK    8  A    between atoms: C_21  and  C_22
REMARK    9  A    between atoms: C_22  and  C_23
REMARK   10  A    between atoms: N_27  and  C_28
REMARK                            x       y       z     vdW  Elec       q    Type
REMARK                         _______ _______ _______ _____ _____    ______ ____
ROOT
ATOM      1  C   UNL     1       4.654   5.806  17.990  0.00  0.00    +0.000 A 
ATOM      2  C   UNL     1       4.155   7.050  17.578  0.00  0.00    +0.000 A 
ATOM      3  C   UNL     1       3.067   7.560  18.254  0.00  0.00    +0.000 A 
ATOM      4  C   UNL     1       2.439   6.882  19.295  0.00  0.00    +0.000 A 
ATOM      5  C   UNL     1       2.880   5.629  19.699  0.00  0.00    +0.000 A 
ATOM      6  C   UNL     1       4.036   5.131  19.073  0.00  0.00    +0.000 A 
ATOM      7  C   UNL     1       1.317   7.710  19.824  0.00  0.00    +0.000 C 
ATOM      8  N   UNL     1       1.394   8.920  19.019  0.00  0.00    +0.000 N 
ATOM      9  C   UNL     1       2.382   8.840  18.041  0.00  0.00    +0.000 C 
ATOM     10  O   UNL     1       2.716   9.631  17.176  0.00  0.00    +0.000 OA
ENDROOT
BRANCH   8  11
ATOM     11  C   UNL     1       0.516  10.003  19.222  0.00  0.00    +0.000 A 
ATOM     12  C   UNL     1      -0.801   9.970  18.767  0.00  0.00    +0.000 A 
ATOM     13  C   UNL     1      -1.656  11.039  19.018  0.00  0.00    +0.000 A 
ATOM     14  C   UNL     1      -1.182  12.177  19.671  0.00  0.00    +0.000 A 
ATOM     15  C   UNL     1       0.156  12.286  20.087  0.00  0.00    +0.000 A 
ATOM     16  C   UNL     1       0.966  11.151  19.887  0.00  0.00    +0.000 A 
BRANCH  15  17
ATOM     17  C   UNL     1       0.756  13.629  20.718  0.00  0.00    +0.000 C 
ATOM     18  C   UNL     1       0.154  15.000  20.280  0.00  0.00    +0.000 C 
ATOM     19  O   UNL     1       0.087  15.434  21.669  0.00  0.00    +0.000 OA
ATOM     20  C   UNL     1       0.146  14.048  22.087  0.00  0.00    +0.000 C 
BRANCH  17  21
ATOM     21  C   UNL     1       2.295  13.614  20.723  0.00  0.00    +0.000 C 
BRANCH  21  22
ATOM     22  C   UNL     1       2.886  14.440  19.626  0.00  0.00    +0.000 A 
ATOM     23  N   UNL     1       2.990  14.084  18.360  0.00  0.00    +0.000 NA
ATOM     24  N   UNL     1       3.587  15.109  17.669  0.00  0.00    +0.000 NA
ATOM     25  C   UNL     1       3.836  16.074  18.523  0.00  0.00    +0.000 A 
ATOM     26  N   UNL     1       3.430  15.691  19.766  0.00  0.00    +0.000 N 
ATOM     27  C   UNL     1       3.566  16.477  20.961  0.00  0.00    +0.000 C 
ENDBRANCH  21  22
ENDBRANCH  17  21
ENDBRANCH  15  17
ENDBRANCH   8  11
BRANCH   5  28
ATOM     28  C   UNL     1       2.153   4.787  20.711  0.00  0.00    +0.000 C 
ATOM     29  F   UNL     1       0.802   4.790  20.548  0.00  0.00    +0.000 F 
ATOM     30  F   UNL     1       2.523   3.477  20.640  0.00  0.00    +0.000 F 
ATOM     31  F   UNL     1       2.382   5.176  21.992  0.00  0.00    +0.000 F 
ENDBRANCH   5  28
BRANCH   1  32
ATOM     32  C   UNL     1       5.824   5.175  17.235  0.00  0.00    +0.000 C 
BRANCH  32  33
ATOM     33  N   UNL     1       5.502   4.943  15.812  0.00  0.00    +0.000 NA
ATOM     34  C   UNL     1       6.242   5.816  14.883  0.00  0.00    +0.000 C 
ATOM     35  C   UNL     1       6.999   4.912  13.920  0.00  0.00    +0.000 C 
ATOM     36  C   UNL     1       6.158   3.662  13.899  0.00  0.00    +0.000 C 
ATOM     37  F   UNL     1       5.088   3.855  13.084  0.00  0.00    +0.000 F 
ATOM     38  C   UNL     1       5.704   3.553  15.346  0.00  0.00    +0.000 C 
ENDBRANCH  32  33
BRANCH  32  40
ATOM     39  C   UNL     1       7.692   6.081  18.775  0.00  0.00    +0.000 C 
ATOM     40  C   UNL     1       7.084   6.079  17.373  0.00  0.00    +0.000 C 
ENDBRANCH  32  40
ENDBRANCH   1  32
TORSDOF 8
ENDMDL
