MODEL 1
REMARK VINA RESULT:     -10.0      0.000      0.000
REMARK  Name = 
REMARK  10 active torsions:
REMARK  status: ('A' for Active; 'I' for Inactive)
REMARK    1  A    between atoms: C_1  and  C_2
REMARK    2  A    between atoms: C_2  and  C_3
REMARK    3  A    between atoms: C_2  and  N_34
REMARK    4  A    between atoms: C_7  and  C_8
REMARK    5  A    between atoms: N_14  and  C_15
REMARK    6  A    between atoms: C_19  and  C_20
REMARK    7  A    between atoms: C_20  and  C_21
REMARK    8  A    between atoms: C_21  and  C_22
REMARK    9  A    between atoms: N_26  and  C_27
REMARK   10  A    between atoms: C_36  and  C_37
REMARK                            x       y       z     vdW  Elec       q    Type
REMARK                         _______ _______ _______ _____ _____    ______ ____
ROOT
ATOM      1  C   UNL     1       0.260  11.452  19.317  0.00  0.00    +0.000 A 
ATOM      2  C   UNL     1       1.006  10.600  18.494  0.00  0.00    +0.000 A 
ATOM      3  C   UNL     1       1.434   9.401  19.025  0.00  0.00    +0.000 A 
ATOM      4  C   UNL     1       1.140   9.001  20.324  0.00  0.00    +0.000 A 
ATOM      5  C   UNL     1       0.424   9.828  21.181  0.00  0.00    +0.000 A 
ATOM      6  C   UNL     1       0.004  11.069  20.663  0.00  0.00    +0.000 A 
ATOM      7  C   UNL     1       1.676   7.629  20.551  0.00  0.00    +0.000 C 
ATOM      8  N   UNL     1       2.331   7.307  19.290  0.00  0.00    +0.000 N 
ATOM      9  C   UNL     1       2.215   8.347  18.370  0.00  0.00    +0.000 C 
ATOM     10  O   UNL     1       2.620   8.457  17.227  0.00  0.00    +0.000 OA
ENDROOT
BRANCH   8  11
ATOM     11  C   UNL     1       2.966   6.060  19.079  0.00  0.00    +0.000 A 
ATOM     12  C   UNL     1       2.778   4.976  19.937  0.00  0.00    +0.000 A 
ATOM     13  C   UNL     1       3.416   3.761  19.691  0.00  0.00    +0.000 A 
ATOM     14  C   UNL     1       4.282   3.633  18.606  0.00  0.00    +0.000 A 
ATOM     15  C   UNL     1       4.543   4.709  17.740  0.00  0.00    +0.000 A 
ATOM     16  C   UNL     1       3.831   5.896  17.987  0.00  0.00    +0.000 A 
BRANCH  15  17
ATOM     17  C   UNL     1       5.618   4.622  16.559  0.00  0.00    +0.000 C 
ATOM     18  C   UNL     1       5.424   3.556  15.437  0.00  0.00    +0.000 C 
ATOM     19  O   UNL     1       5.680   4.560  14.414  0.00  0.00    +0.000 OA
ATOM     20  C   UNL     1       5.363   5.598  15.374  0.00  0.00    +0.000 C 
BRANCH  17  21
ATOM     21  C   UNL     1       7.059   4.679  17.100  0.00  0.00    +0.000 C 
BRANCH  21  22
ATOM     22  C   UNL     1       7.501   6.065  17.452  0.00  0.00    +0.000 A 
ATOM     23  N   UNL     1       7.579   7.087  16.623  0.00  0.00    +0.000 NA
ATOM     24  N   UNL     1       8.016   8.184  17.324  0.00  0.00    +0.000 NA
ATOM     25  C   UNL     1       8.192   7.818  18.571  0.00  0.00    +0.000 A 
ATOM     26  N   UNL     1       7.892   6.493  18.695  0.00  0.00    +0.000 N 
ATOM     27  C   UNL     1       7.975   5.735  19.916  0.00  0.00    +0.000 C 
ENDBRANCH  21  22
ENDBRANCH  17  21
ENDBRANCH  15  17
ENDBRANCH   8  11
BRANCH   5  28
ATOM     28  C   UNL     1       0.092   9.438  22.600  0.00  0.00    +0.000 C 
ATOM     29  F   UNL     1      -0.686   8.326  22.690  0.00  0.00    +0.000 F 
ATOM     30  F   UNL     1       1.203   9.176  23.341  0.00  0.00    +0.000 F 
ATOM     31  F   UNL     1      -0.586  10.415  23.262  0.00  0.00    +0.000 F 
ENDBRANCH   5  28
BRANCH   1  33
ATOM     32  C   UNL     1      -0.011  13.858  19.840  0.00  0.00    +0.000 C 
ATOM     33  C   UNL     1      -0.214  12.791  18.754  0.00  0.00    +0.000 C 
BRANCH  33  34
ATOM     34  N   UNL     1      -1.618  12.725  18.315  0.00  0.00    +0.000 NA
ATOM     35  C   UNL     1      -1.810  11.760  17.201  0.00  0.00    +0.000 C 
ATOM     36  C   UNL     1      -3.131  11.314  17.881  0.00  0.00    +0.000 C 
ATOM     37  C   UNL     1      -3.425   9.833  17.736  0.00  0.00    +0.000 C 
ATOM     38  F   UNL     1      -4.244  12.010  17.530  0.00  0.00    +0.000 F 
ATOM     39  C   UNL     1      -2.424  11.805  19.178  0.00  0.00    +0.000 C 
ENDBRANCH  33  34
ENDBRANCH   1  33
TORSDOF 7
ENDMDL
MODEL 2
REMARK VINA RESULT:     -10.0      1.517      2.434
REMARK  Name = 
REMARK  10 active torsions:
REMARK  status: ('A' for Active; 'I' for Inactive)
REMARK    1  A    between atoms: C_1  and  C_2
REMARK    2  A    between atoms: C_2  and  C_3
REMARK    3  A    between atoms: C_2  and  N_34
REMARK    4  A    between atoms: C_7  and  C_8
REMARK    5  A    between atoms: N_14  and  C_15
REMARK    6  A    between atoms: C_19  and  C_20
REMARK    7  A    between atoms: C_20  and  C_21
REMARK    8  A    between atoms: C_21  and  C_22
REMARK    9  A    between atoms: N_26  and  C_27
REMARK   10  A    between atoms: C_36  and  C_37
REMARK                            x       y       z     vdW  Elec       q    Type
REMARK                         _______ _______ _______ _____ _____    ______ ____
ROOT
ATOM      1  C   UNL     1      -0.330  11.372  19.304  0.00  0.00    +0.000 A 
ATOM      2  C   UNL     1       0.537  10.571  18.551  0.00  0.00    +0.000 A 
ATOM      3  C   UNL     1       1.094   9.469  19.164  0.00  0.00    +0.000 A 
ATOM      4  C   UNL     1       0.817   9.114  20.479  0.00  0.00    +0.000 A 
ATOM      5  C   UNL     1      -0.019   9.896  21.268  0.00  0.00    +0.000 A 
ATOM      6  C   UNL     1      -0.574  11.041  20.665  0.00  0.00    +0.000 A 
ATOM      7  C   UNL     1       1.511   7.835  20.803  0.00  0.00    +0.000 C 
ATOM      8  N   UNL     1       2.235   7.522  19.577  0.00  0.00    +0.000 N 
ATOM      9  C   UNL     1       2.017   8.483  18.592  0.00  0.00    +0.000 C 
ATOM     10  O   UNL     1       2.436   8.573  17.453  0.00  0.00    +0.000 OA
ENDROOT
BRANCH   8  11
ATOM     11  C   UNL     1       3.023   6.353  19.458  0.00  0.00    +0.000 A 
ATOM     12  C   UNL     1       2.557   5.098  19.849  0.00  0.00    +0.000 A 
ATOM     13  C   UNL     1       3.362   3.969  19.710  0.00  0.00    +0.000 A 
ATOM     14  C   UNL     1       4.659   4.093  19.214  0.00  0.00    +0.000 A 
ATOM     15  C   UNL     1       5.195   5.341  18.851  0.00  0.00    +0.000 A 
ATOM     16  C   UNL     1       4.327   6.444  18.949  0.00  0.00    +0.000 A 
BRANCH  15  17
ATOM     17  C   UNL     1       6.715   5.525  18.390  0.00  0.00    +0.000 C 
ATOM     18  C   UNL     1       7.187   6.922  17.885  0.00  0.00    +0.000 C 
ATOM     19  O   UNL     1       8.371   6.848  18.730  0.00  0.00    +0.000 OA
ATOM     20  C   UNL     1       7.709   5.848  19.543  0.00  0.00    +0.000 C 
BRANCH  17  21
ATOM     21  C   UNL     1       7.177   4.364  17.490  0.00  0.00    +0.000 C 
BRANCH  21  22
ATOM     22  C   UNL     1       6.871   4.585  16.041  0.00  0.00    +0.000 A 
ATOM     23  N   UNL     1       7.659   5.176  15.164  0.00  0.00    +0.000 NA
ATOM     24  N   UNL     1       7.028   5.178  13.944  0.00  0.00    +0.000 NA
ATOM     25  C   UNL     1       5.869   4.583  14.093  0.00  0.00    +0.000 A 
ATOM     26  N   UNL     1       5.722   4.205  15.395  0.00  0.00    +0.000 N 
ATOM     27  C   UNL     1       4.573   3.531  15.939  0.00  0.00    +0.000 C 
ENDBRANCH  21  22
ENDBRANCH  17  21
ENDBRANCH  15  17
ENDBRANCH   8  11
BRANCH   5  28
ATOM     28  C   UNL     1      -0.339   9.553  22.702  0.00  0.00    +0.000 C 
ATOM     29  F   UNL     1       0.761   9.433  23.492  0.00  0.00    +0.000 F 
ATOM     30  F   UNL     1      -1.125  10.491  23.299  0.00  0.00    +0.000 F 
ATOM     31  F   UNL     1      -1.004   8.371  22.818  0.00  0.00    +0.000 F 
ENDBRANCH   5  28
BRANCH   1  33
ATOM     32  C   UNL     1      -1.316  13.597  19.762  0.00  0.00    +0.000 C 
ATOM     33  C   UNL     1      -0.950  12.605  18.648  0.00  0.00    +0.000 C 
BRANCH  33  34
ATOM     34  N   UNL     1      -2.122  12.250  17.830  0.00  0.00    +0.000 NA
ATOM     35  C   UNL     1      -2.000  10.891  17.240  0.00  0.00    +0.000 C 
ATOM     36  C   UNL     1      -3.505  10.676  17.551  0.00  0.00    +0.000 C 
ATOM     37  C   UNL     1      -3.849   9.257  17.959  0.00  0.00    +0.000 C 
ATOM     38  F   UNL     1      -4.373  11.068  16.582  0.00  0.00    +0.000 F 
ATOM     39  C   UNL     1      -3.243  11.726  18.672  0.00  0.00    +0.000 C 
ENDBRANCH  33  34
ENDBRANCH   1  33
TORSDOF 7
ENDMDL
MODEL 3
REMARK VINA RESULT:     -10.0      3.151      8.871
REMARK  Name = 
REMARK  10 active torsions:
REMARK  status: ('A' for Active; 'I' for Inactive)
REMARK    1  A    between atoms: C_1  and  C_2
REMARK    2  A    between atoms: C_2  and  C_3
REMARK    3  A    between atoms: C_2  and  N_34
REMARK    4  A    between atoms: C_7  and  C_8
REMARK    5  A    between atoms: N_14  and  C_15
REMARK    6  A    between atoms: C_19  and  C_20
REMARK    7  A    between atoms: C_20  and  C_21
REMARK    8  A    between atoms: C_21  and  C_22
REMARK    9  A    between atoms: N_26  and  C_27
REMARK   10  A    between atoms: C_36  and  C_37
REMARK                            x       y       z     vdW  Elec       q    Type
REMARK                         _______ _______ _______ _____ _____    ______ ____
ROOT
ATOM      1  C   UNL     1       4.433   4.999  18.219  0.00  0.00    +0.000 A 
ATOM      2  C   UNL     1       3.997   6.324  18.102  0.00  0.00    +0.000 A 
ATOM      3  C   UNL     1       2.980   6.745  18.935  0.00  0.00    +0.000 A 
ATOM      4  C   UNL     1       2.393   5.920  19.887  0.00  0.00    +0.000 A 
ATOM      5  C   UNL     1       2.780   4.592  20.018  0.00  0.00    +0.000 A 
ATOM      6  C   UNL     1       3.797   4.139  19.156  0.00  0.00    +0.000 A 
ATOM      7  C   UNL     1       1.394   6.703  20.669  0.00  0.00    +0.000 C 
ATOM      8  N   UNL     1       1.437   8.022  20.052  0.00  0.00    +0.000 N 
ATOM      9  C   UNL     1       2.360   8.072  19.010  0.00  0.00    +0.000 C 
ATOM     10  O   UNL     1       2.682   8.979  18.265  0.00  0.00    +0.000 OA
ENDROOT
BRANCH   8  11
ATOM     11  C   UNL     1       0.633   9.088  20.520  0.00  0.00    +0.000 A 
ATOM     12  C   UNL     1       0.512   9.389  21.877  0.00  0.00    +0.000 A 
ATOM     13  C   UNL     1      -0.285  10.451  22.298  0.00  0.00    +0.000 A 
ATOM     14  C   UNL     1      -1.002  11.199  21.365  0.00  0.00    +0.000 A 
ATOM     15  C   UNL     1      -0.954  10.908  19.990  0.00  0.00    +0.000 A 
ATOM     16  C   UNL     1      -0.089   9.868  19.604  0.00  0.00    +0.000 A 
BRANCH  15  17
ATOM     17  C   UNL     1      -1.855  11.675  18.915  0.00  0.00    +0.000 C 
ATOM     18  C   UNL     1      -2.858  10.855  18.048  0.00  0.00    +0.000 C 
ATOM     19  O   UNL     1      -3.912  11.822  18.322  0.00  0.00    +0.000 OA
ATOM     20  C   UNL     1      -3.173  12.277  19.481  0.00  0.00    +0.000 C 
BRANCH  17  21
ATOM     21  C   UNL     1      -1.024  12.681  18.096  0.00  0.00    +0.000 C 
BRANCH  21  22
ATOM     22  C   UNL     1      -0.214  13.607  18.948  0.00  0.00    +0.000 A 
ATOM     23  N   UNL     1      -0.680  14.619  19.653  0.00  0.00    +0.000 NA
ATOM     24  N   UNL     1       0.371  15.218  20.303  0.00  0.00    +0.000 NA
ATOM     25  C   UNL     1       1.461  14.559  19.991  0.00  0.00    +0.000 A 
ATOM     26  N   UNL     1       1.144  13.547  19.134  0.00  0.00    +0.000 N 
ATOM     27  C   UNL     1       2.083  12.615  18.567  0.00  0.00    +0.000 C 
ENDBRANCH  21  22
ENDBRANCH  17  21
ENDBRANCH  15  17
ENDBRANCH   8  11
BRANCH   5  28
ATOM     28  C   UNL     1       2.162   3.660  21.032  0.00  0.00    +0.000 C 
ATOM     29  F   UNL     1       2.632   2.386  20.956  0.00  0.00    +0.000 F 
ATOM     30  F   UNL     1       2.384   4.064  22.313  0.00  0.00    +0.000 F 
ATOM     31  F   UNL     1       0.812   3.562  20.892  0.00  0.00    +0.000 F 
ENDBRANCH   5  28
BRANCH   1  33
ATOM     32  C   UNL     1       6.696   5.528  17.363  0.00  0.00    +0.000 C 
ATOM     33  C   UNL     1       5.549   4.508  17.298  0.00  0.00    +0.000 C 
BRANCH  33  34
ATOM     34  N   UNL     1       5.067   4.320  15.919  0.00  0.00    +0.000 NA
ATOM     35  C   UNL     1       5.549   5.391  15.008  0.00  0.00    +0.000 C 
ATOM     36  C   UNL     1       5.776   4.302  13.928  0.00  0.00    +0.000 C 
ATOM     37  C   UNL     1       6.990   4.549  13.053  0.00  0.00    +0.000 C 
ATOM     38  F   UNL     1       4.714   4.033  13.124  0.00  0.00    +0.000 F 
ATOM     39  C   UNL     1       5.930   3.361  15.160  0.00  0.00    +0.000 C 
ENDBRANCH  33  34
ENDBRANCH   1  33
TORSDOF 7
ENDMDL
MODEL 4
REMARK VINA RESULT:      -9.7      2.982      8.814
REMARK  Name = 
REMARK  10 active torsions:
REMARK  status: ('A' for Active; 'I' for Inactive)
REMARK    1  A    between atoms: C_1  and  C_2
REMARK    2  A    between atoms: C_2  and  C_3
REMARK    3  A    between atoms: C_2  and  N_34
REMARK    4  A    between atoms: C_7  and  C_8
REMARK    5  A    between atoms: N_14  and  C_15
REMARK    6  A    between atoms: C_19  and  C_20
REMARK    7  A    between atoms: C_20  and  C_21
REMARK    8  A    between atoms: C_21  and  C_22
REMARK    9  A    between atoms: N_26  and  C_27
REMARK   10  A    between atoms: C_36  and  C_37
REMARK                            x       y       z     vdW  Elec       q    Type
REMARK                         _______ _______ _______ _____ _____    ______ ____
ROOT
ATOM      1  C   UNL     1       3.688   5.802  17.623  0.00  0.00    +0.000 A 
ATOM      2  C   UNL     1       3.192   7.103  17.763  0.00  0.00    +0.000 A 
ATOM      3  C   UNL     1       2.362   7.367  18.834  0.00  0.00    +0.000 A 
ATOM      4  C   UNL     1       2.020   6.407  19.779  0.00  0.00    +0.000 A 
ATOM      5  C   UNL     1       2.472   5.098  19.664  0.00  0.00    +0.000 A 
ATOM      6  C   UNL     1       3.297   4.805  18.560  0.00  0.00    +0.000 A 
ATOM      7  C   UNL     1       1.185   7.037  20.841  0.00  0.00    +0.000 C 
ATOM      8  N   UNL     1       1.050   8.417  20.394  0.00  0.00    +0.000 N 
ATOM      9  C   UNL     1       1.728   8.638  19.197  0.00  0.00    +0.000 C 
ATOM     10  O   UNL     1       1.852   9.640  18.518  0.00  0.00    +0.000 OA
ENDROOT
BRANCH   8  11
ATOM     11  C   UNL     1       0.328   9.375  21.145  0.00  0.00    +0.000 A 
ATOM     12  C   UNL     1       0.263   9.332  22.538  0.00  0.00    +0.000 A 
ATOM     13  C   UNL     1      -0.453  10.298  23.242  0.00  0.00    +0.000 A 
ATOM     14  C   UNL     1      -1.147  11.293  22.556  0.00  0.00    +0.000 A 
ATOM     15  C   UNL     1      -1.154  11.352  21.151  0.00  0.00    +0.000 A 
ATOM     16  C   UNL     1      -0.367  10.397  20.482  0.00  0.00    +0.000 A 
BRANCH  15  17
ATOM     17  C   UNL     1      -2.034  12.412  20.338  0.00  0.00    +0.000 C 
ATOM     18  C   UNL     1      -2.782  11.945  19.053  0.00  0.00    +0.000 C 
ATOM     19  O   UNL     1      -4.003  12.595  19.506  0.00  0.00    +0.000 OA
ATOM     20  C   UNL     1      -3.489  12.585  20.860  0.00  0.00    +0.000 C 
BRANCH  17  21
ATOM     21  C   UNL     1      -1.286  13.746  20.155  0.00  0.00    +0.000 C 
BRANCH  21  22
ATOM     22  C   UNL     1       0.090  13.577  19.592  0.00  0.00    +0.000 A 
ATOM     23  N   UNL     1       0.384  13.140  18.383  0.00  0.00    +0.000 NA
ATOM     24  N   UNL     1       1.751  13.135  18.243  0.00  0.00    +0.000 NA
ATOM     25  C   UNL     1       2.269  13.574  19.364  0.00  0.00    +0.000 A 
ATOM     26  N   UNL     1       1.265  13.853  20.245  0.00  0.00    +0.000 N 
ATOM     27  C   UNL     1       1.449  14.348  21.583  0.00  0.00    +0.000 C 
ENDBRANCH  21  22
ENDBRANCH  17  21
ENDBRANCH  15  17
ENDBRANCH   8  11
BRANCH   5  28
ATOM     28  C   UNL     1       2.117   4.023  20.662  0.00  0.00    +0.000 C 
ATOM     29  F   UNL     1       0.788   3.738  20.704  0.00  0.00    +0.000 F 
ATOM     30  F   UNL     1       2.743   2.843  20.401  0.00  0.00    +0.000 F 
ATOM     31  F   UNL     1       2.460   4.363  21.934  0.00  0.00    +0.000 F 
ENDBRANCH   5  28
BRANCH   1  33
ATOM     32  C   UNL     1       4.957   3.992  16.506  0.00  0.00    +0.000 C 
ATOM     33  C   UNL     1       4.599   5.484  16.438  0.00  0.00    +0.000 C 
BRANCH  33  34
ATOM     34  N   UNL     1       5.803   6.332  16.441  0.00  0.00    +0.000 NA
ATOM     35  C   UNL     1       5.984   7.041  17.734  0.00  0.00    +0.000 C 
ATOM     36  C   UNL     1       7.504   6.752  17.623  0.00  0.00    +0.000 C 
ATOM     37  C   UNL     1       8.174   6.475  18.955  0.00  0.00    +0.000 C 
ATOM     38  F   UNL     1       8.237   7.683  16.958  0.00  0.00    +0.000 F 
ATOM     39  C   UNL     1       7.033   5.542  16.764  0.00  0.00    +0.000 C 
ENDBRANCH  33  34
ENDBRANCH   1  33
TORSDOF 7
ENDMDL
MODEL 5
REMARK VINA RESULT:      -9.7      3.088      9.029
REMARK  Name = 
REMARK  10 active torsions:
REMARK  status: ('A' for Active; 'I' for Inactive)
REMARK    1  A    between atoms: C_1  and  C_2
REMARK    2  A    between atoms: C_2  and  C_3
REMARK    3  A    between atoms: C_2  and  N_34
REMARK    4  A    between atoms: C_7  and  C_8
REMARK    5  A    between atoms: N_14  and  C_15
REMARK    6  A    between atoms: C_19  and  C_20
REMARK    7  A    between atoms: C_20  and  C_21
REMARK    8  A    between atoms: C_21  and  C_22
REMARK    9  A    between atoms: N_26  and  C_27
REMARK   10  A    between atoms: C_36  and  C_37
REMARK                            x       y       z     vdW  Elec       q    Type
REMARK                         _______ _______ _______ _____ _____    ______ ____
ROOT
ATOM      1  C   UNL     1       3.650   5.690  17.703  0.00  0.00    +0.000 A 
ATOM      2  C   UNL     1       3.162   6.996  17.827  0.00  0.00    +0.000 A 
ATOM      3  C   UNL     1       2.352   7.283  18.907  0.00  0.00    +0.000 A 
ATOM      4  C   UNL     1       2.022   6.342  19.876  0.00  0.00    +0.000 A 
ATOM      5  C   UNL     1       2.466   5.029  19.776  0.00  0.00    +0.000 A 
ATOM      6  C   UNL     1       3.270   4.712  18.664  0.00  0.00    +0.000 A 
ATOM      7  C   UNL     1       1.207   6.995  20.940  0.00  0.00    +0.000 C 
ATOM      8  N   UNL     1       1.071   8.367  20.470  0.00  0.00    +0.000 N 
ATOM      9  C   UNL     1       1.729   8.563  19.258  0.00  0.00    +0.000 C 
ATOM     10  O   UNL     1       1.845   9.552  18.559  0.00  0.00    +0.000 OA
ENDROOT
BRANCH   8  11
ATOM     11  C   UNL     1       0.366   9.341  21.216  0.00  0.00    +0.000 A 
ATOM     12  C   UNL     1       0.099   9.187  22.576  0.00  0.00    +0.000 A 
ATOM     13  C   UNL     1      -0.592  10.172  23.278  0.00  0.00    +0.000 A 
ATOM     14  C   UNL     1      -1.060  11.305  22.614  0.00  0.00    +0.000 A 
ATOM     15  C   UNL     1      -0.860  11.487  21.234  0.00  0.00    +0.000 A 
ATOM     16  C   UNL     1      -0.103  10.499  20.578  0.00  0.00    +0.000 A 
BRANCH  15  17
ATOM     17  C   UNL     1      -1.485  12.719  20.428  0.00  0.00    +0.000 C 
ATOM     18  C   UNL     1      -3.036  12.851  20.334  0.00  0.00    +0.000 C 
ATOM     19  O   UNL     1      -2.955  14.260  20.693  0.00  0.00    +0.000 OA
ATOM     20  C   UNL     1      -1.642  14.026  21.257  0.00  0.00    +0.000 C 
BRANCH  17  21
ATOM     21  C   UNL     1      -0.775  12.930  19.078  0.00  0.00    +0.000 C 
BRANCH  21  22
ATOM     22  C   UNL     1       0.074  14.163  19.046  0.00  0.00    +0.000 A 
ATOM     23  N   UNL     1      -0.301  15.350  18.611  0.00  0.00    +0.000 NA
ATOM     24  N   UNL     1       0.753  16.219  18.753  0.00  0.00    +0.000 NA
ATOM     25  C   UNL     1       1.753  15.551  19.278  0.00  0.00    +0.000 A 
ATOM     26  N   UNL     1       1.376  14.254  19.468  0.00  0.00    +0.000 N 
ATOM     27  C   UNL     1       2.211  13.219  20.017  0.00  0.00    +0.000 C 
ENDBRANCH  21  22
ENDBRANCH  17  21
ENDBRANCH  15  17
ENDBRANCH   8  11
BRANCH   5  28
ATOM     28  C   UNL     1       2.124   3.974  20.800  0.00  0.00    +0.000 C 
ATOM     29  F   UNL     1       2.510   4.297  22.063  0.00  0.00    +0.000 F 
ATOM     30  F   UNL     1       0.786   3.732  20.870  0.00  0.00    +0.000 F 
ATOM     31  F   UNL     1       2.713   2.778  20.530  0.00  0.00    +0.000 F 
ENDBRANCH   5  28
BRANCH   1  33
ATOM     32  C   UNL     1       4.891   3.855  16.597  0.00  0.00    +0.000 C 
ATOM     33  C   UNL     1       4.538   5.346  16.508  0.00  0.00    +0.000 C 
BRANCH  33  34
ATOM     34  N   UNL     1       5.747   6.188  16.475  0.00  0.00    +0.000 NA
ATOM     35  C   UNL     1       5.937   6.942  17.742  0.00  0.00    +0.000 C 
ATOM     36  C   UNL     1       7.455   6.642  17.633  0.00  0.00    +0.000 C 
ATOM     37  C   UNL     1       8.131   6.408  18.971  0.00  0.00    +0.000 C 
ATOM     38  F   UNL     1       8.189   7.545  16.933  0.00  0.00    +0.000 F 
ATOM     39  C   UNL     1       6.974   5.405  16.819  0.00  0.00    +0.000 C 
ENDBRANCH  33  34
ENDBRANCH   1  33
TORSDOF 7
ENDMDL
MODEL 6
REMARK VINA RESULT:      -9.6      3.094      9.284
REMARK  Name = 
REMARK  10 active torsions:
REMARK  status: ('A' for Active; 'I' for Inactive)
REMARK    1  A    between atoms: C_1  and  C_2
REMARK    2  A    between atoms: C_2  and  C_3
REMARK    3  A    between atoms: C_2  and  N_34
REMARK    4  A    between atoms: C_7  and  C_8
REMARK    5  A    between atoms: N_14  and  C_15
REMARK    6  A    between atoms: C_19  and  C_20
REMARK    7  A    between atoms: C_20  and  C_21
REMARK    8  A    between atoms: C_21  and  C_22
REMARK    9  A    between atoms: N_26  and  C_27
REMARK   10  A    between atoms: C_36  and  C_37
REMARK                            x       y       z     vdW  Elec       q    Type
REMARK                         _______ _______ _______ _____ _____    ______ ____
ROOT
ATOM      1  C   UNL     1       4.485   4.912  18.214  0.00  0.00    +0.000 A 
ATOM      2  C   UNL     1       4.047   6.237  18.098  0.00  0.00    +0.000 A 
ATOM      3  C   UNL     1       3.042   6.662  18.943  0.00  0.00    +0.000 A 
ATOM      4  C   UNL     1       2.468   5.841  19.906  0.00  0.00    +0.000 A 
ATOM      5  C   UNL     1       2.857   4.513  20.038  0.00  0.00    +0.000 A 
ATOM      6  C   UNL     1       3.862   4.056  19.164  0.00  0.00    +0.000 A 
ATOM      7  C   UNL     1       1.479   6.627  20.699  0.00  0.00    +0.000 C 
ATOM      8  N   UNL     1       1.514   7.944  20.075  0.00  0.00    +0.000 N 
ATOM      9  C   UNL     1       2.424   7.989  19.020  0.00  0.00    +0.000 C 
ATOM     10  O   UNL     1       2.735   8.893  18.267  0.00  0.00    +0.000 OA
ENDROOT
BRANCH   8  11
ATOM     11  C   UNL     1       0.717   9.012  20.549  0.00  0.00    +0.000 A 
ATOM     12  C   UNL     1       0.070   8.966  21.784  0.00  0.00    +0.000 A 
ATOM     13  C   UNL     1      -0.702  10.042  22.219  0.00  0.00    +0.000 A 
ATOM     14  C   UNL     1      -0.867  11.159  21.402  0.00  0.00    +0.000 A 
ATOM     15  C   UNL     1      -0.276  11.236  20.129  0.00  0.00    +0.000 A 
ATOM     16  C   UNL     1       0.545  10.156  19.756  0.00  0.00    +0.000 A 
BRANCH  15  17
ATOM     17  C   UNL     1      -0.543  12.454  19.127  0.00  0.00    +0.000 C 
ATOM     18  C   UNL     1      -1.082  13.800  19.701  0.00  0.00    +0.000 C 
ATOM     19  O   UNL     1      -0.084  14.542  18.944  0.00  0.00    +0.000 OA
ATOM     20  C   UNL     1       0.704  13.333  18.825  0.00  0.00    +0.000 C 
BRANCH  17  21
ATOM     21  C   UNL     1      -1.288  11.992  17.860  0.00  0.00    +0.000 C 
BRANCH  21  22
ATOM     22  C   UNL     1      -2.718  11.633  18.117  0.00  0.00    +0.000 A 
ATOM     23  N   UNL     1      -3.486  12.140  19.061  0.00  0.00    +0.000 NA
ATOM     24  N   UNL     1      -4.730  11.565  18.966  0.00  0.00    +0.000 NA
ATOM     25  C   UNL     1      -4.704  10.721  17.963  0.00  0.00    +0.000 A 
ATOM     26  N   UNL     1      -3.458  10.722  17.407  0.00  0.00    +0.000 N 
ATOM     27  C   UNL     1      -3.048   9.915  16.289  0.00  0.00    +0.000 C 
ENDBRANCH  21  22
ENDBRANCH  17  21
ENDBRANCH  15  17
ENDBRANCH   8  11
BRANCH   5  28
ATOM     28  C   UNL     1       2.253   3.586  21.063  0.00  0.00    +0.000 C 
ATOM     29  F   UNL     1       0.912   3.410  20.916  0.00  0.00    +0.000 F 
ATOM     30  F   UNL     1       2.798   2.339  21.023  0.00  0.00    +0.000 F 
ATOM     31  F   UNL     1       2.426   4.035  22.336  0.00  0.00    +0.000 F 
ENDBRANCH   5  28
BRANCH   1  33
ATOM     32  C   UNL     1       6.755   5.413  17.361  0.00  0.00    +0.000 C 
ATOM     33  C   UNL     1       5.589   4.417  17.281  0.00  0.00    +0.000 C 
BRANCH  33  34
ATOM     34  N   UNL     1       5.099   4.265  15.900  0.00  0.00    +0.000 NA
ATOM     35  C   UNL     1       5.629   5.322  15.000  0.00  0.00    +0.000 C 
ATOM     36  C   UNL     1       5.806   4.234  13.909  0.00  0.00    +0.000 C 
ATOM     37  C   UNL     1       7.030   4.435  13.036  0.00  0.00    +0.000 C 
ATOM     38  F   UNL     1       4.733   4.021  13.103  0.00  0.00    +0.000 F 
ATOM     39  C   UNL     1       5.917   3.275  15.131  0.00  0.00    +0.000 C 
ENDBRANCH  33  34
ENDBRANCH   1  33
TORSDOF 7
ENDMDL
MODEL 7
REMARK VINA RESULT:      -9.6      3.177      8.864
REMARK  Name = 
REMARK  10 active torsions:
REMARK  status: ('A' for Active; 'I' for Inactive)
REMARK    1  A    between atoms: C_1  and  C_2
REMARK    2  A    between atoms: C_2  and  C_3
REMARK    3  A    between atoms: C_2  and  N_34
REMARK    4  A    between atoms: C_7  and  C_8
REMARK    5  A    between atoms: N_14  and  C_15
REMARK    6  A    between atoms: C_19  and  C_20
REMARK    7  A    between atoms: C_20  and  C_21
REMARK    8  A    between atoms: C_21  and  C_22
REMARK    9  A    between atoms: N_26  and  C_27
REMARK   10  A    between atoms: C_36  and  C_37
REMARK                            x       y       z     vdW  Elec       q    Type
REMARK                         _______ _______ _______ _____ _____    ______ ____
ROOT
ATOM      1  C   UNL     1       4.495   4.899  18.285  0.00  0.00    +0.000 A 
ATOM      2  C   UNL     1       4.047   6.219  18.155  0.00  0.00    +0.000 A 
ATOM      3  C   UNL     1       3.027   6.640  18.984  0.00  0.00    +0.000 A 
ATOM      4  C   UNL     1       2.447   5.820  19.945  0.00  0.00    +0.000 A 
ATOM      5  C   UNL     1       2.846   4.496  20.089  0.00  0.00    +0.000 A 
ATOM      6  C   UNL     1       3.867   4.043  19.231  0.00  0.00    +0.000 A 
ATOM      7  C   UNL     1       1.442   6.602  20.719  0.00  0.00    +0.000 C 
ATOM      8  N   UNL     1       1.473   7.915  20.088  0.00  0.00    +0.000 N 
ATOM      9  C   UNL     1       2.396   7.962  19.045  0.00  0.00    +0.000 C 
ATOM     10  O   UNL     1       2.710   8.864  18.291  0.00  0.00    +0.000 OA
ENDROOT
BRANCH   8  11
ATOM     11  C   UNL     1       0.660   8.979  20.545  0.00  0.00    +0.000 A 
ATOM     12  C   UNL     1       0.426   9.207  21.901  0.00  0.00    +0.000 A 
ATOM     13  C   UNL     1      -0.375  10.270  22.312  0.00  0.00    +0.000 A 
ATOM     14  C   UNL     1      -0.985  11.092  21.366  0.00  0.00    +0.000 A 
ATOM     15  C   UNL     1      -0.821  10.877  19.986  0.00  0.00    +0.000 A 
ATOM     16  C   UNL     1       0.046   9.832  19.616  0.00  0.00    +0.000 A 
BRANCH  15  17
ATOM     17  C   UNL     1      -1.601  11.732  18.882  0.00  0.00    +0.000 C 
ATOM     18  C   UNL     1      -2.400  10.983  17.772  0.00  0.00    +0.000 C 
ATOM     19  O   UNL     1      -3.549  11.850  17.991  0.00  0.00    +0.000 OA
ATOM     20  C   UNL     1      -3.029  12.186  19.300  0.00  0.00    +0.000 C 
BRANCH  17  21
ATOM     21  C   UNL     1      -0.729  12.879  18.336  0.00  0.00    +0.000 C 
BRANCH  21  22
ATOM     22  C   UNL     1       0.314  13.339  19.306  0.00  0.00    +0.000 A 
ATOM     23  N   UNL     1       1.568  12.935  19.344  0.00  0.00    +0.000 NA
ATOM     24  N   UNL     1       2.206  13.592  20.368  0.00  0.00    +0.000 NA
ATOM     25  C   UNL     1       1.334  14.392  20.934  0.00  0.00    +0.000 A 
ATOM     26  N   UNL     1       0.130  14.258  20.308  0.00  0.00    +0.000 N 
ATOM     27  C   UNL     1      -1.071  14.969  20.658  0.00  0.00    +0.000 C 
ENDBRANCH  21  22
ENDBRANCH  17  21
ENDBRANCH  15  17
ENDBRANCH   8  11
BRANCH   5  28
ATOM     28  C   UNL     1       2.236   3.570  21.112  0.00  0.00    +0.000 C 
ATOM     29  F   UNL     1       2.743   2.308  21.074  0.00  0.00    +0.000 F 
ATOM     30  F   UNL     1       2.424   4.007  22.388  0.00  0.00    +0.000 F 
ATOM     31  F   UNL     1       0.892   3.431  20.952  0.00  0.00    +0.000 F 
ENDBRANCH   5  28
BRANCH   1  33
ATOM     32  C   UNL     1       6.762   5.426  17.441  0.00  0.00    +0.000 C 
ATOM     33  C   UNL     1       5.615   4.408  17.369  0.00  0.00    +0.000 C 
BRANCH  33  34
ATOM     34  N   UNL     1       5.140   4.223  15.987  0.00  0.00    +0.000 NA
ATOM     35  C   UNL     1       5.574   5.329  15.095  0.00  0.00    +0.000 C 
ATOM     36  C   UNL     1       5.846   4.268  13.996  0.00  0.00    +0.000 C 
ATOM     37  C   UNL     1       7.047   4.583  13.125  0.00  0.00    +0.000 C 
ATOM     38  F   UNL     1       4.795   3.969  13.188  0.00  0.00    +0.000 F 
ATOM     39  C   UNL     1       6.041   3.315  15.211  0.00  0.00    +0.000 C 
ENDBRANCH  33  34
ENDBRANCH   1  33
TORSDOF 7
ENDMDL
MODEL 8
REMARK VINA RESULT:      -9.6      1.714      2.259
REMARK  Name = 
REMARK  10 active torsions:
REMARK  status: ('A' for Active; 'I' for Inactive)
REMARK    1  A    between atoms: C_1  and  C_2
REMARK    2  A    between atoms: C_2  and  C_3
REMARK    3  A    between atoms: C_2  and  N_34
REMARK    4  A    between atoms: C_7  and  C_8
REMARK    5  A    between atoms: N_14  and  C_15
REMARK    6  A    between atoms: C_19  and  C_20
REMARK    7  A    between atoms: C_20  and  C_21
REMARK    8  A    between atoms: C_21  and  C_22
REMARK    9  A    between atoms: N_26  and  C_27
REMARK   10  A    between atoms: C_36  and  C_37
REMARK                            x       y       z     vdW  Elec       q    Type
REMARK                         _______ _______ _______ _____ _____    ______ ____
ROOT
ATOM      1  C   UNL     1       0.416  11.842  19.610  0.00  0.00    +0.000 A 
ATOM      2  C   UNL     1       1.094  10.994  18.726  0.00  0.00    +0.000 A 
ATOM      3  C   UNL     1       1.391   9.717  19.155  0.00  0.00    +0.000 A 
ATOM      4  C   UNL     1       1.030   9.238  20.409  0.00  0.00    +0.000 A 
ATOM      5  C   UNL     1       0.377  10.055  21.325  0.00  0.00    +0.000 A 
ATOM      6  C   UNL     1       0.092  11.371  20.913  0.00  0.00    +0.000 A 
ATOM      7  C   UNL     1       1.424   7.805  20.522  0.00  0.00    +0.000 C 
ATOM      8  N   UNL     1       2.073   7.530  19.247  0.00  0.00    +0.000 N 
ATOM      9  C   UNL     1       2.080   8.652  18.421  0.00  0.00    +0.000 C 
ATOM     10  O   UNL     1       2.520   8.819  17.298  0.00  0.00    +0.000 OA
ENDROOT
BRANCH   8  11
ATOM     11  C   UNL     1       2.588   6.248  18.936  0.00  0.00    +0.000 A 
ATOM     12  C   UNL     1       2.191   5.101  19.622  0.00  0.00    +0.000 A 
ATOM     13  C   UNL     1       2.716   3.856  19.282  0.00  0.00    +0.000 A 
ATOM     14  C   UNL     1       3.677   3.753  18.277  0.00  0.00    +0.000 A 
ATOM     15  C   UNL     1       4.147   4.885  17.588  0.00  0.00    +0.000 A 
ATOM     16  C   UNL     1       3.544   6.112  17.919  0.00  0.00    +0.000 A 
BRANCH  15  17
ATOM     17  C   UNL     1       5.329   4.809  16.513  0.00  0.00    +0.000 C 
ATOM     18  C   UNL     1       5.189   3.835  15.304  0.00  0.00    +0.000 C 
ATOM     19  O   UNL     1       5.603   4.886  14.386  0.00  0.00    +0.000 OA
ATOM     20  C   UNL     1       5.250   5.876  15.383  0.00  0.00    +0.000 C 
BRANCH  17  21
ATOM     21  C   UNL     1       6.709   4.740  17.194  0.00  0.00    +0.000 C 
BRANCH  21  22
ATOM     22  C   UNL     1       7.280   6.088  17.505  0.00  0.00    +0.000 A 
ATOM     23  N   UNL     1       7.299   7.127  16.693  0.00  0.00    +0.000 NA
ATOM     24  N   UNL     1       7.899   8.177  17.345  0.00  0.00    +0.000 NA
ATOM     25  C   UNL     1       8.231   7.766  18.545  0.00  0.00    +0.000 A 
ATOM     26  N   UNL     1       7.873   6.457  18.686  0.00  0.00    +0.000 N 
ATOM     27  C   UNL     1       8.085   5.661  19.866  0.00  0.00    +0.000 C 
ENDBRANCH  21  22
ENDBRANCH  17  21
ENDBRANCH  15  17
ENDBRANCH   8  11
BRANCH   5  28
ATOM     28  C   UNL     1      -0.024   9.578  22.699  0.00  0.00    +0.000 C 
ATOM     29  F   UNL     1       1.029   9.201  23.473  0.00  0.00    +0.000 F 
ATOM     30  F   UNL     1      -0.684  10.533  23.409  0.00  0.00    +0.000 F 
ATOM     31  F   UNL     1      -0.851   8.499  22.654  0.00  0.00    +0.000 F 
ENDBRANCH   5  28
BRANCH   1  33
ATOM     32  C   UNL     1       1.322  13.828  18.442  0.00  0.00    +0.000 C 
ATOM     33  C   UNL     1       0.088  13.265  19.160  0.00  0.00    +0.000 C 
BRANCH  33  34
ATOM     34  N   UNL     1      -0.312  14.111  20.297  0.00  0.00    +0.000 NA
ATOM     35  C   UNL     1      -0.075  15.554  20.030  0.00  0.00    +0.000 C 
ATOM     36  C   UNL     1      -1.429  15.854  20.725  0.00  0.00    +0.000 C 
ATOM     37  C   UNL     1      -2.195  17.006  20.104  0.00  0.00    +0.000 C 
ATOM     38  F   UNL     1      -1.376  16.048  22.069  0.00  0.00    +0.000 F 
ATOM     39  C   UNL     1      -1.780  14.404  20.278  0.00  0.00    +0.000 C 
ENDBRANCH  33  34
ENDBRANCH   1  33
TORSDOF 7
ENDMDL
MODEL 9
REMARK VINA RESULT:      -9.6      2.960      9.407
REMARK  Name = 
REMARK  10 active torsions:
REMARK  status: ('A' for Active; 'I' for Inactive)
REMARK    1  A    between atoms: C_1  and  C_2
REMARK    2  A    between atoms: C_2  and  C_3
REMARK    3  A    between atoms: C_2  and  N_34
REMARK    4  A    between atoms: C_7  and  C_8
REMARK    5  A    between atoms: N_14  and  C_15
REMARK    6  A    between atoms: C_19  and  C_20
REMARK    7  A    between atoms: C_20  and  C_21
REMARK    8  A    between atoms: C_21  and  C_22
REMARK    9  A    between atoms: N_26  and  C_27
REMARK   10  A    between atoms: C_36  and  C_37
REMARK                            x       y       z     vdW  Elec       q    Type
REMARK                         _______ _______ _______ _____ _____    ______ ____
ROOT
ATOM      1  C   UNL     1       3.648   5.629  17.678  0.00  0.00    +0.000 A 
ATOM      2  C   UNL     1       3.166   6.939  17.792  0.00  0.00    +0.000 A 
ATOM      3  C   UNL     1       2.355   7.238  18.868  0.00  0.00    +0.000 A 
ATOM      4  C   UNL     1       2.019   6.306  19.843  0.00  0.00    +0.000 A 
ATOM      5  C   UNL     1       2.457   4.990  19.754  0.00  0.00    +0.000 A 
ATOM      6  C   UNL     1       3.262   4.661  18.646  0.00  0.00    +0.000 A 
ATOM      7  C   UNL     1       1.206   6.971  20.901  0.00  0.00    +0.000 C 
ATOM      8  N   UNL     1       1.077   8.340  20.420  0.00  0.00    +0.000 N 
ATOM      9  C   UNL     1       1.738   8.524  19.208  0.00  0.00    +0.000 C 
ATOM     10  O   UNL     1       1.861   9.507  18.501  0.00  0.00    +0.000 OA
ENDROOT
BRANCH   8  11
ATOM     11  C   UNL     1       0.376   9.324  21.158  0.00  0.00    +0.000 A 
ATOM     12  C   UNL     1       0.136   9.197  22.526  0.00  0.00    +0.000 A 
ATOM     13  C   UNL     1      -0.553  10.190  23.218  0.00  0.00    +0.000 A 
ATOM     14  C   UNL     1      -1.045  11.304  22.538  0.00  0.00    +0.000 A 
ATOM     15  C   UNL     1      -0.872  11.457  21.151  0.00  0.00    +0.000 A 
ATOM     16  C   UNL     1      -0.117  10.462  20.503  0.00  0.00    +0.000 A 
BRANCH  15  17
ATOM     17  C   UNL     1      -1.524  12.664  20.330  0.00  0.00    +0.000 C 
ATOM     18  C   UNL     1      -1.128  14.127  20.696  0.00  0.00    +0.000 C 
ATOM     19  O   UNL     1      -0.918  14.441  19.290  0.00  0.00    +0.000 OA
ATOM     20  C   UNL     1      -0.786  13.026  19.009  0.00  0.00    +0.000 C 
BRANCH  17  21
ATOM     21  C   UNL     1      -3.042  12.471  20.151  0.00  0.00    +0.000 C 
BRANCH  21  22
ATOM     22  C   UNL     1      -3.402  11.805  18.860  0.00  0.00    +0.000 A 
ATOM     23  N   UNL     1      -2.631  10.987  18.169  0.00  0.00    +0.000 NA
ATOM     24  N   UNL     1      -3.319  10.581  17.052  0.00  0.00    +0.000 NA
ATOM     25  C   UNL     1      -4.500  11.151  17.081  0.00  0.00    +0.000 A 
ATOM     26  N   UNL     1      -4.592  11.938  18.191  0.00  0.00    +0.000 N 
ATOM     27  C   UNL     1      -5.738  12.727  18.556  0.00  0.00    +0.000 C 
ENDBRANCH  21  22
ENDBRANCH  17  21
ENDBRANCH  15  17
ENDBRANCH   8  11
BRANCH   5  28
ATOM     28  C   UNL     1       2.108   3.945  20.785  0.00  0.00    +0.000 C 
ATOM     29  F   UNL     1       2.682   2.735  20.550  0.00  0.00    +0.000 F 
ATOM     30  F   UNL     1       2.494   4.303  22.040  0.00  0.00    +0.000 F 
ATOM     31  F   UNL     1       0.769   3.708  20.852  0.00  0.00    +0.000 F 
ENDBRANCH   5  28
BRANCH   1  33
ATOM     32  C   UNL     1       4.911   3.788  16.608  0.00  0.00    +0.000 C 
ATOM     33  C   UNL     1       4.536   5.272  16.488  0.00  0.00    +0.000 C 
BRANCH  33  34
ATOM     34  N   UNL     1       5.731   6.131  16.430  0.00  0.00    +0.000 NA
ATOM     35  C   UNL     1       5.907   6.927  17.673  0.00  0.00    +0.000 C 
ATOM     36  C   UNL     1       7.430   6.647  17.576  0.00  0.00    +0.000 C 
ATOM     37  C   UNL     1       8.107   6.466  18.922  0.00  0.00    +0.000 C 
ATOM     38  F   UNL     1       8.152   7.540  16.849  0.00  0.00    +0.000 F 
ATOM     39  C   UNL     1       6.970   5.378  16.801  0.00  0.00    +0.000 C 
ENDBRANCH  33  34
ENDBRANCH   1  33
TORSDOF 7
ENDMDL
