MODEL 1
REMARK VINA RESULT:      -9.1      0.000      0.000
REMARK  Name = 
REMARK  9 active torsions:
REMARK  status: ('A' for Active; 'I' for Inactive)
REMARK    1  A    between atoms: C_1  and  N_2
REMARK    2  A    between atoms: C_6  and  C_7
REMARK    3  A    between atoms: C_7  and  C_8
REMARK    4  A    between atoms: C_8  and  C_9
REMARK    5  A    between atoms: C_13  and  N_14
REMARK    6  A    between atoms: C_15  and  C_17
REMARK    7  A    between atoms: C_19  and  O_20
REMARK    8  A    between atoms: O_20  and  C_21
REMARK    9  A    between atoms: C_25  and  C_26
REMARK                            x       y       z     vdW  Elec       q    Type
REMARK                         _______ _______ _______ _____ _____    ______ ____
ROOT
ATOM      1  C   UNL     1       4.415   4.793  17.343  0.00  0.00    +0.000 A 
ATOM      2  C   UNL     1       3.750   3.552  17.275  0.00  0.00    +0.000 A 
ATOM      3  C   UNL     1       2.411   3.416  17.630  0.00  0.00    +0.000 A 
ATOM      4  C   UNL     1       1.693   4.524  18.063  0.00  0.00    +0.000 A 
ATOM      5  C   UNL     1       2.306   5.773  18.150  0.00  0.00    +0.000 A 
ATOM      6  C   UNL     1       3.652   5.895  17.785  0.00  0.00    +0.000 A 
ENDROOT
BRANCH   1   7
ATOM      7  C   UNL     1       5.953   4.947  16.921  0.00  0.00    +0.000 C 
ATOM      8  C   UNL     1       6.981   4.888  18.092  0.00  0.00    +0.000 C 
ATOM      9  O   UNL     1       7.470   6.213  17.815  0.00  0.00    +0.000 OA
ATOM     10  C   UNL     1       6.523   6.382  16.740  0.00  0.00    +0.000 C 
BRANCH   7  11
ATOM     11  C   UNL     1       6.295   3.954  15.792  0.00  0.00    +0.000 C 
BRANCH  11  17
ATOM     12  C   UNL     1       5.628   3.364  12.710  0.00  0.00    +0.000 C 
ATOM     13  N   UNL     1       6.609   4.264  13.254  0.00  0.00    +0.000 N 
ATOM     14  C   UNL     1       7.483   4.991  12.501  0.00  0.00    +0.000 A 
ATOM     15  N   UNL     1       8.236   5.723  13.283  0.00  0.00    +0.000 NA
ATOM     16  N   UNL     1       7.861   5.463  14.577  0.00  0.00    +0.000 NA
ATOM     17  C   UNL     1       6.891   4.569  14.565  0.00  0.00    +0.000 A 
ENDBRANCH  11  17
ENDBRANCH   7  11
ENDBRANCH   1   7
BRANCH   5  18
ATOM     18  N   UNL     1       1.638   6.936  18.573  0.00  0.00    +0.000 N 
ATOM     19  C   UNL     1       2.052   8.238  18.385  0.00  0.00    +0.000 C 
ATOM     20  O   UNL     1       3.050   8.624  17.783  0.00  0.00    +0.000 OA
ATOM     21  H   UNL     1       0.741   6.836  19.044  0.00  0.00    +0.000 HD
BRANCH  19  22
ATOM     22  C   UNL     1       1.152   9.252  19.008  0.00  0.00    +0.000 A 
ATOM     23  C   UNL     1       1.253   9.495  20.368  0.00  0.00    +0.000 A 
ATOM     24  C   UNL     1       0.357  10.388  20.926  0.00  0.00    +0.000 A 
ATOM     25  C   UNL     1      -0.562  11.033  20.098  0.00  0.00    +0.000 A 
ATOM     26  C   UNL     1      -0.605  10.745  18.731  0.00  0.00    +0.000 A 
ATOM     27  N   UNL     1       0.248   9.844  18.185  0.00  0.00    +0.000 NA
BRANCH  26  28
ATOM     28  C   UNL     1      -1.626  11.391  17.827  0.00  0.00    +0.000 C 
ATOM     29  C   UNL     1      -2.454  10.565  16.871  0.00  0.00    +0.000 C 
ATOM     30  C   UNL     1      -3.095  11.150  18.093  0.00  0.00    +0.000 C 
ENDBRANCH  26  28
BRANCH  24  31
ATOM     31  O   UNL     1       0.297  10.716  22.252  0.00  0.00    +0.000 OA
BRANCH  31  32
ATOM     32  C   UNL     1      -0.312   9.750  23.099  0.00  0.00    +0.000 C 
ATOM     33  F   UNL     1      -0.832   8.760  22.333  0.00  0.00    +0.000 F 
ATOM     34  F   UNL     1       0.674   9.193  23.845  0.00  0.00    +0.000 F 
ENDBRANCH  31  32
ENDBRANCH  24  31
ENDBRANCH  19  22
ENDBRANCH   5  18
TORSDOF 8
ENDMDL
MODEL 2
REMARK VINA RESULT:      -9.1      3.384      9.231
REMARK  Name = 
REMARK  9 active torsions:
REMARK  status: ('A' for Active; 'I' for Inactive)
REMARK    1  A    between atoms: C_1  and  N_2
REMARK    2  A    between atoms: C_6  and  C_7
REMARK    3  A    between atoms: C_7  and  C_8
REMARK    4  A    between atoms: C_8  and  C_9
REMARK    5  A    between atoms: C_13  and  N_14
REMARK    6  A    between atoms: C_15  and  C_17
REMARK    7  A    between atoms: C_19  and  O_20
REMARK    8  A    between atoms: O_20  and  C_21
REMARK    9  A    between atoms: C_25  and  C_26
REMARK                            x       y       z     vdW  Elec       q    Type
REMARK                         _______ _______ _______ _____ _____    ______ ____
ROOT
ATOM      1  C   UNL     1      -0.036  10.795  20.741  0.00  0.00    +0.000 A 
ATOM      2  C   UNL     1      -0.171  10.647  22.136  0.00  0.00    +0.000 A 
ATOM      3  C   UNL     1       0.324   9.534  22.809  0.00  0.00    +0.000 A 
ATOM      4  C   UNL     1       0.975   8.531  22.102  0.00  0.00    +0.000 A 
ATOM      5  C   UNL     1       1.132   8.628  20.721  0.00  0.00    +0.000 A 
ATOM      6  C   UNL     1       0.634   9.756  20.059  0.00  0.00    +0.000 A 
ENDROOT
BRANCH   1   7
ATOM      7  C   UNL     1      -0.595  12.085  19.973  0.00  0.00    +0.000 C 
ATOM      8  C   UNL     1      -2.097  12.021  19.558  0.00  0.00    +0.000 C 
ATOM      9  O   UNL     1      -1.783  12.158  18.160  0.00  0.00    +0.000 OA
ATOM     10  C   UNL     1      -0.368  12.180  18.438  0.00  0.00    +0.000 C 
BRANCH   7  11
ATOM     11  C   UNL     1      -0.263  13.362  20.770  0.00  0.00    +0.000 C 
BRANCH  11  17
ATOM     12  C   UNL     1       0.873  15.700  18.889  0.00  0.00    +0.000 C 
ATOM     13  N   UNL     1       1.602  14.835  19.777  0.00  0.00    +0.000 N 
ATOM     14  C   UNL     1       2.960  14.844  19.911  0.00  0.00    +0.000 A 
ATOM     15  N   UNL     1       3.320  13.955  20.803  0.00  0.00    +0.000 NA
ATOM     16  N   UNL     1       2.181  13.338  21.254  0.00  0.00    +0.000 NA
ATOM     17  C   UNL     1       1.143  13.854  20.624  0.00  0.00    +0.000 A 
ENDBRANCH  11  17
ENDBRANCH   7  11
ENDBRANCH   1   7
BRANCH   5  18
ATOM     18  N   UNL     1       1.787   7.655  19.945  0.00  0.00    +0.000 N 
ATOM     19  C   UNL     1       2.356   7.837  18.702  0.00  0.00    +0.000 C 
ATOM     20  O   UNL     1       2.434   8.883  18.065  0.00  0.00    +0.000 OA
ATOM     21  H   UNL     1       1.888   6.716  20.328  0.00  0.00    +0.000 HD
BRANCH  19  22
ATOM     22  C   UNL     1       2.920   6.589  18.109  0.00  0.00    +0.000 A 
ATOM     23  C   UNL     1       2.135   5.448  18.070  0.00  0.00    +0.000 A 
ATOM     24  C   UNL     1       2.712   4.292  17.579  0.00  0.00    +0.000 A 
ATOM     25  C   UNL     1       4.024   4.338  17.104  0.00  0.00    +0.000 A 
ATOM     26  C   UNL     1       4.756   5.526  17.166  0.00  0.00    +0.000 A 
ATOM     27  N   UNL     1       4.207   6.654  17.680  0.00  0.00    +0.000 NA
BRANCH  26  28
ATOM     28  C   UNL     1       6.192   5.584  16.707  0.00  0.00    +0.000 C 
ATOM     29  C   UNL     1       7.159   6.585  17.296  0.00  0.00    +0.000 C 
ATOM     30  C   UNL     1       7.282   5.135  17.656  0.00  0.00    +0.000 C 
ENDBRANCH  26  28
BRANCH  24  31
ATOM     31  O   UNL     1       2.093   3.076  17.503  0.00  0.00    +0.000 OA
BRANCH  31  32
ATOM     32  C   UNL     1       1.532   2.592  18.716  0.00  0.00    +0.000 C 
ATOM     33  F   UNL     1       0.274   2.151  18.474  0.00  0.00    +0.000 F 
ATOM     34  F   UNL     1       2.261   1.512  19.092  0.00  0.00    +0.000 F 
ENDBRANCH  31  32
ENDBRANCH  24  31
ENDBRANCH  19  22
ENDBRANCH   5  18
TORSDOF 8
ENDMDL
MODEL 3
REMARK VINA RESULT:      -9.0      4.150     10.764
REMARK  Name = 
REMARK  9 active torsions:
REMARK  status: ('A' for Active; 'I' for Inactive)
REMARK    1  A    between atoms: C_1  and  N_2
REMARK    2  A    between atoms: C_6  and  C_7
REMARK    3  A    between atoms: C_7  and  C_8
REMARK    4  A    between atoms: C_8  and  C_9
REMARK    5  A    between atoms: C_13  and  N_14
REMARK    6  A    between atoms: C_15  and  C_17
REMARK    7  A    between atoms: C_19  and  O_20
REMARK    8  A    between atoms: O_20  and  C_21
REMARK    9  A    between atoms: C_25  and  C_26
REMARK                            x       y       z     vdW  Elec       q    Type
REMARK                         _______ _______ _______ _____ _____    ______ ____
ROOT
ATOM      1  C   UNL     1      -1.436  11.664  20.056  0.00  0.00    +0.000 A 
ATOM      2  C   UNL     1      -2.163  11.924  18.877  0.00  0.00    +0.000 A 
ATOM      3  C   UNL     1      -1.946  11.204  17.706  0.00  0.00    +0.000 A 
ATOM      4  C   UNL     1      -0.990  10.195  17.681  0.00  0.00    +0.000 A 
ATOM      5  C   UNL     1      -0.242   9.902  18.820  0.00  0.00    +0.000 A 
ATOM      6  C   UNL     1      -0.476  10.631  19.991  0.00  0.00    +0.000 A 
ENDROOT
BRANCH   1   7
ATOM      7  C   UNL     1      -1.699  12.487  21.405  0.00  0.00    +0.000 C 
ATOM      8  C   UNL     1      -0.446  13.173  22.030  0.00  0.00    +0.000 C 
ATOM      9  O   UNL     1      -0.569  12.429  23.255  0.00  0.00    +0.000 OA
ATOM     10  C   UNL     1      -1.711  11.706  22.750  0.00  0.00    +0.000 C 
BRANCH   7  11
ATOM     11  C   UNL     1      -2.867  13.474  21.205  0.00  0.00    +0.000 C 
BRANCH  11  17
ATOM     12  C   UNL     1      -3.452  14.791  24.072  0.00  0.00    +0.000 C 
ATOM     13  N   UNL     1      -4.237  13.819  23.359  0.00  0.00    +0.000 N 
ATOM     14  C   UNL     1      -5.371  13.243  23.850  0.00  0.00    +0.000 A 
ATOM     15  N   UNL     1      -5.863  12.414  22.964  0.00  0.00    +0.000 NA
ATOM     16  N   UNL     1      -5.030  12.433  21.874  0.00  0.00    +0.000 NA
ATOM     17  C   UNL     1      -4.036  13.267  22.116  0.00  0.00    +0.000 A 
ENDBRANCH  11  17
ENDBRANCH   7  11
ENDBRANCH   1   7
BRANCH   5  18
ATOM     18  N   UNL     1       0.734   8.891  18.866  0.00  0.00    +0.000 N 
ATOM     19  C   UNL     1       1.905   8.841  18.140  0.00  0.00    +0.000 C 
ATOM     20  O   UNL     1       2.330   9.683  17.354  0.00  0.00    +0.000 OA
ATOM     21  H   UNL     1       0.600   8.117  19.516  0.00  0.00    +0.000 HD
BRANCH  19  22
ATOM     22  C   UNL     1       2.703   7.601  18.367  0.00  0.00    +0.000 A 
ATOM     23  C   UNL     1       3.784   7.336  17.542  0.00  0.00    +0.000 A 
ATOM     24  C   UNL     1       4.458   6.145  17.735  0.00  0.00    +0.000 A 
ATOM     25  C   UNL     1       4.058   5.299  18.770  0.00  0.00    +0.000 A 
ATOM     26  C   UNL     1       2.962   5.633  19.571  0.00  0.00    +0.000 A 
ATOM     27  N   UNL     1       2.275   6.783  19.363  0.00  0.00    +0.000 NA
BRANCH  26  28
ATOM     28  C   UNL     1       2.480   4.708  20.661  0.00  0.00    +0.000 C 
ATOM     29  C   UNL     1       1.080   4.139  20.638  0.00  0.00    +0.000 C 
ATOM     30  C   UNL     1       2.248   3.249  20.334  0.00  0.00    +0.000 C 
ENDBRANCH  26  28
BRANCH  24  31
ATOM     31  O   UNL     1       5.521   5.714  16.991  0.00  0.00    +0.000 OA
BRANCH  31  32
ATOM     32  C   UNL     1       5.522   4.331  16.662  0.00  0.00    +0.000 C 
ATOM     33  F   UNL     1       4.599   4.108  15.695  0.00  0.00    +0.000 F 
ATOM     34  F   UNL     1       6.734   4.049  16.122  0.00  0.00    +0.000 F 
ENDBRANCH  31  32
ENDBRANCH  24  31
ENDBRANCH  19  22
ENDBRANCH   5  18
TORSDOF 8
ENDMDL
MODEL 4
REMARK VINA RESULT:      -9.0      3.302     10.002
REMARK  Name = 
REMARK  9 active torsions:
REMARK  status: ('A' for Active; 'I' for Inactive)
REMARK    1  A    between atoms: C_1  and  N_2
REMARK    2  A    between atoms: C_6  and  C_7
REMARK    3  A    between atoms: C_7  and  C_8
REMARK    4  A    between atoms: C_8  and  C_9
REMARK    5  A    between atoms: C_13  and  N_14
REMARK    6  A    between atoms: C_15  and  C_17
REMARK    7  A    between atoms: C_19  and  O_20
REMARK    8  A    between atoms: O_20  and  C_21
REMARK    9  A    between atoms: C_25  and  C_26
REMARK                            x       y       z     vdW  Elec       q    Type
REMARK                         _______ _______ _______ _____ _____    ______ ____
ROOT
ATOM      1  C   UNL     1      -1.511  11.040  18.871  0.00  0.00    +0.000 A 
ATOM      2  C   UNL     1      -1.220  12.018  19.844  0.00  0.00    +0.000 A 
ATOM      3  C   UNL     1      -0.087  11.940  20.648  0.00  0.00    +0.000 A 
ATOM      4  C   UNL     1       0.795  10.876  20.500  0.00  0.00    +0.000 A 
ATOM      5  C   UNL     1       0.551   9.882  19.554  0.00  0.00    +0.000 A 
ATOM      6  C   UNL     1      -0.591   9.978  18.749  0.00  0.00    +0.000 A 
ENDROOT
BRANCH   1   7
ATOM      7  C   UNL     1      -2.810  11.142  17.939  0.00  0.00    +0.000 C 
ATOM      8  C   UNL     1      -3.530   9.792  17.639  0.00  0.00    +0.000 C 
ATOM      9  O   UNL     1      -3.328   9.925  16.220  0.00  0.00    +0.000 OA
ATOM     10  C   UNL     1      -2.607  11.162  16.398  0.00  0.00    +0.000 C 
BRANCH   7  11
ATOM     11  C   UNL     1      -3.777  12.209  18.491  0.00  0.00    +0.000 C 
BRANCH  11  17
ATOM     12  C   UNL     1      -5.377  12.475  21.260  0.00  0.00    +0.000 C 
ATOM     13  N   UNL     1      -5.784  11.805  20.054  0.00  0.00    +0.000 N 
ATOM     14  C   UNL     1      -6.944  11.098  19.925  0.00  0.00    +0.000 A 
ATOM     15  N   UNL     1      -7.036  10.621  18.709  0.00  0.00    +0.000 NA
ATOM     16  N   UNL     1      -5.910  11.008  18.028  0.00  0.00    +0.000 NA
ATOM     17  C   UNL     1      -5.142  11.707  18.842  0.00  0.00    +0.000 A 
ENDBRANCH  11  17
ENDBRANCH   7  11
ENDBRANCH   1   7
BRANCH   5  18
ATOM     18  N   UNL     1       1.404   8.784  19.346  0.00  0.00    +0.000 N 
ATOM     19  C   UNL     1       2.171   8.537  18.227  0.00  0.00    +0.000 C 
ATOM     20  O   UNL     1       2.284   9.244  17.230  0.00  0.00    +0.000 OA
ATOM     21  H   UNL     1       1.505   8.100  20.093  0.00  0.00    +0.000 HD
BRANCH  19  22
ATOM     22  C   UNL     1       2.923   7.249  18.285  0.00  0.00    +0.000 A 
ATOM     23  C   UNL     1       2.542   6.289  19.207  0.00  0.00    +0.000 A 
ATOM     24  C   UNL     1       3.305   5.137  19.283  0.00  0.00    +0.000 A 
ATOM     25  C   UNL     1       4.376   4.975  18.404  0.00  0.00    +0.000 A 
ATOM     26  C   UNL     1       4.701   5.983  17.492  0.00  0.00    +0.000 A 
ATOM     27  N   UNL     1       3.979   7.129  17.438  0.00  0.00    +0.000 NA
BRANCH  26  28
ATOM     28  C   UNL     1       5.887   5.851  16.570  0.00  0.00    +0.000 C 
ATOM     29  C   UNL     1       6.527   4.507  16.309  0.00  0.00    +0.000 C 
ATOM     30  C   UNL     1       5.706   5.157  15.238  0.00  0.00    +0.000 C 
ENDBRANCH  26  28
BRANCH  24  31
ATOM     31  O   UNL     1       3.089   4.108  20.156  0.00  0.00    +0.000 OA
BRANCH  31  32
ATOM     32  C   UNL     1       2.013   4.289  21.068  0.00  0.00    +0.000 C 
ATOM     33  F   UNL     1       0.911   3.675  20.573  0.00  0.00    +0.000 F 
ATOM     34  F   UNL     1       2.344   3.640  22.212  0.00  0.00    +0.000 F 
ENDBRANCH  31  32
ENDBRANCH  24  31
ENDBRANCH  19  22
ENDBRANCH   5  18
TORSDOF 8
ENDMDL
MODEL 5
REMARK VINA RESULT:      -9.0      3.946      9.806
REMARK  Name = 
REMARK  9 active torsions:
REMARK  status: ('A' for Active; 'I' for Inactive)
REMARK    1  A    between atoms: C_1  and  N_2
REMARK    2  A    between atoms: C_6  and  C_7
REMARK    3  A    between atoms: C_7  and  C_8
REMARK    4  A    between atoms: C_8  and  C_9
REMARK    5  A    between atoms: C_13  and  N_14
REMARK    6  A    between atoms: C_15  and  C_17
REMARK    7  A    between atoms: C_19  and  O_20
REMARK    8  A    between atoms: O_20  and  C_21
REMARK    9  A    between atoms: C_25  and  C_26
REMARK                            x       y       z     vdW  Elec       q    Type
REMARK                         _______ _______ _______ _____ _____    ______ ____
ROOT
ATOM      1  C   UNL     1      -0.018  10.438  20.226  0.00  0.00    +0.000 A 
ATOM      2  C   UNL     1      -0.250  10.210  21.598  0.00  0.00    +0.000 A 
ATOM      3  C   UNL     1       0.324   9.137  22.272  0.00  0.00    +0.000 A 
ATOM      4  C   UNL     1       1.154   8.255  21.591  0.00  0.00    +0.000 A 
ATOM      5  C   UNL     1       1.414   8.435  20.233  0.00  0.00    +0.000 A 
ATOM      6  C   UNL     1       0.833   9.522  19.570  0.00  0.00    +0.000 A 
ENDROOT
BRANCH   1   7
ATOM      7  C   UNL     1      -0.670  11.683  19.457  0.00  0.00    +0.000 C 
ATOM      8  C   UNL     1      -1.931  12.303  20.132  0.00  0.00    +0.000 C 
ATOM      9  O   UNL     1      -2.759  12.026  18.988  0.00  0.00    +0.000 OA
ATOM     10  C   UNL     1      -1.664  11.390  18.298  0.00  0.00    +0.000 C 
BRANCH   7  11
ATOM     11  C   UNL     1       0.409  12.741  19.151  0.00  0.00    +0.000 C 
BRANCH  11  17
ATOM     12  C   UNL     1      -0.449  15.817  19.462  0.00  0.00    +0.000 C 
ATOM     13  N   UNL     1       0.349  15.019  20.353  0.00  0.00    +0.000 N 
ATOM     14  C   UNL     1       0.937  15.494  21.489  0.00  0.00    +0.000 A 
ATOM     15  N   UNL     1       1.582  14.525  22.089  0.00  0.00    +0.000 NA
ATOM     16  N   UNL     1       1.429  13.394  21.328  0.00  0.00    +0.000 NA
ATOM     17  C   UNL     1       0.700  13.692  20.269  0.00  0.00    +0.000 A 
ENDBRANCH  11  17
ENDBRANCH   7  11
ENDBRANCH   1   7
BRANCH   5  18
ATOM     18  N   UNL     1       2.249   7.587  19.485  0.00  0.00    +0.000 N 
ATOM     19  C   UNL     1       2.645   7.765  18.176  0.00  0.00    +0.000 C 
ATOM     20  O   UNL     1       2.379   8.709  17.439  0.00  0.00    +0.000 OA
ATOM     21  H   UNL     1       2.638   6.763  19.941  0.00  0.00    +0.000 HD
BRANCH  19  22
ATOM     22  C   UNL     1       3.485   6.652  17.645  0.00  0.00    +0.000 A 
ATOM     23  C   UNL     1       4.412   6.925  16.652  0.00  0.00    +0.000 A 
ATOM     24  C   UNL     1       5.123   5.859  16.132  0.00  0.00    +0.000 A 
ATOM     25  C   UNL     1       4.916   4.584  16.658  0.00  0.00    +0.000 A 
ATOM     26  C   UNL     1       3.969   4.381  17.666  0.00  0.00    +0.000 A 
ATOM     27  N   UNL     1       3.243   5.417  18.154  0.00  0.00    +0.000 NA
BRANCH  26  28
ATOM     28  C   UNL     1       3.691   3.003  18.212  0.00  0.00    +0.000 C 
ATOM     29  C   UNL     1       2.528   2.753  19.144  0.00  0.00    +0.000 C 
ATOM     30  C   UNL     1       2.465   2.259  17.730  0.00  0.00    +0.000 C 
ENDBRANCH  26  28
BRANCH  24  31
ATOM     31  O   UNL     1       6.048   5.946  15.128  0.00  0.00    +0.000 OA
BRANCH  31  32
ATOM     32  C   UNL     1       6.549   4.708  14.643  0.00  0.00    +0.000 C 
ATOM     33  F   UNL     1       5.741   4.266  13.649  0.00  0.00    +0.000 F 
ATOM     34  F   UNL     1       7.760   4.957  14.084  0.00  0.00    +0.000 F 
ENDBRANCH  31  32
ENDBRANCH  24  31
ENDBRANCH  19  22
ENDBRANCH   5  18
TORSDOF 8
ENDMDL
MODEL 6
REMARK VINA RESULT:      -8.9      3.906      9.361
REMARK  Name = 
REMARK  9 active torsions:
REMARK  status: ('A' for Active; 'I' for Inactive)
REMARK    1  A    between atoms: C_1  and  N_2
REMARK    2  A    between atoms: C_6  and  C_7
REMARK    3  A    between atoms: C_7  and  C_8
REMARK    4  A    between atoms: C_8  and  C_9
REMARK    5  A    between atoms: C_13  and  N_14
REMARK    6  A    between atoms: C_15  and  C_17
REMARK    7  A    between atoms: C_19  and  O_20
REMARK    8  A    between atoms: O_20  and  C_21
REMARK    9  A    between atoms: C_25  and  C_26
REMARK                            x       y       z     vdW  Elec       q    Type
REMARK                         _______ _______ _______ _____ _____    ______ ____
ROOT
ATOM      1  C   UNL     1      -0.426  10.310  20.283  0.00  0.00    +0.000 A 
ATOM      2  C   UNL     1      -0.209  10.526  21.659  0.00  0.00    +0.000 A 
ATOM      3  C   UNL     1       0.700   9.766  22.388  0.00  0.00    +0.000 A 
ATOM      4  C   UNL     1       1.424   8.761  21.758  0.00  0.00    +0.000 A 
ATOM      5  C   UNL     1       1.244   8.505  20.400  0.00  0.00    +0.000 A 
ATOM      6  C   UNL     1       0.330   9.282  19.679  0.00  0.00    +0.000 A 
ENDROOT
BRANCH   1   7
ATOM      7  C   UNL     1      -1.464  11.197  19.445  0.00  0.00    +0.000 C 
ATOM      8  C   UNL     1      -0.830  12.152  18.387  0.00  0.00    +0.000 C 
ATOM      9  O   UNL     1      -1.376  13.322  19.021  0.00  0.00    +0.000 OA
ATOM     10  C   UNL     1      -1.964  12.528  20.073  0.00  0.00    +0.000 C 
BRANCH   7  11
ATOM     11  C   UNL     1      -2.561  10.299  18.839  0.00  0.00    +0.000 C 
BRANCH  11  17
ATOM     12  C   UNL     1      -4.896  11.919  17.349  0.00  0.00    +0.000 C 
ATOM     13  N   UNL     1      -3.828  11.154  16.765  0.00  0.00    +0.000 N 
ATOM     14  C   UNL     1      -3.680  10.945  15.425  0.00  0.00    +0.000 A 
ATOM     15  N   UNL     1      -2.608  10.224  15.207  0.00  0.00    +0.000 NA
ATOM     16  N   UNL     1      -2.048   9.939  16.427  0.00  0.00    +0.000 NA
ATOM     17  C   UNL     1      -2.792  10.483  17.371  0.00  0.00    +0.000 A 
ENDBRANCH  11  17
ENDBRANCH   7  11
ENDBRANCH   1   7
BRANCH   5  18
ATOM     18  N   UNL     1       1.949   7.510  19.699  0.00  0.00    +0.000 N 
ATOM     19  C   UNL     1       2.546   7.639  18.463  0.00  0.00    +0.000 C 
ATOM     20  O   UNL     1       2.610   8.650  17.768  0.00  0.00    +0.000 OA
ATOM     21  H   UNL     1       2.068   6.599  20.139  0.00  0.00    +0.000 HD
BRANCH  19  22
ATOM     22  C   UNL     1       3.164   6.379  17.958  0.00  0.00    +0.000 A 
ATOM     23  C   UNL     1       4.388   6.441  17.313  0.00  0.00    +0.000 A 
ATOM     24  C   UNL     1       4.898   5.265  16.795  0.00  0.00    +0.000 A 
ATOM     25  C   UNL     1       4.191   4.077  16.986  0.00  0.00    +0.000 A 
ATOM     26  C   UNL     1       2.963   4.085  17.654  0.00  0.00    +0.000 A 
ATOM     27  N   UNL     1       2.442   5.242  18.133  0.00  0.00    +0.000 NA
BRANCH  26  28
ATOM     28  C   UNL     1       2.157   2.821  17.825  0.00  0.00    +0.000 C 
ATOM     29  C   UNL     1       2.208   2.032  19.112  0.00  0.00    +0.000 C 
ATOM     30  C   UNL     1       0.982   2.826  18.777  0.00  0.00    +0.000 C 
ENDBRANCH  26  28
BRANCH  24  31
ATOM     31  O   UNL     1       6.072   5.155  16.103  0.00  0.00    +0.000 OA
BRANCH  31  32
ATOM     32  C   UNL     1       5.960   4.668  14.772  0.00  0.00    +0.000 C 
ATOM     33  F   UNL     1       6.920   5.246  14.011  0.00  0.00    +0.000 F 
ATOM     34  F   UNL     1       6.232   3.340  14.807  0.00  0.00    +0.000 F 
ENDBRANCH  31  32
ENDBRANCH  24  31
ENDBRANCH  19  22
ENDBRANCH   5  18
TORSDOF 8
ENDMDL
MODEL 7
REMARK VINA RESULT:      -8.9      3.835      9.595
REMARK  Name = 
REMARK  9 active torsions:
REMARK  status: ('A' for Active; 'I' for Inactive)
REMARK    1  A    between atoms: C_1  and  N_2
REMARK    2  A    between atoms: C_6  and  C_7
REMARK    3  A    between atoms: C_7  and  C_8
REMARK    4  A    between atoms: C_8  and  C_9
REMARK    5  A    between atoms: C_13  and  N_14
REMARK    6  A    between atoms: C_15  and  C_17
REMARK    7  A    between atoms: C_19  and  O_20
REMARK    8  A    between atoms: O_20  and  C_21
REMARK    9  A    between atoms: C_25  and  C_26
REMARK                            x       y       z     vdW  Elec       q    Type
REMARK                         _______ _______ _______ _____ _____    ______ ____
ROOT
ATOM      1  C   UNL     1      -0.257  10.630  20.271  0.00  0.00    +0.000 A 
ATOM      2  C   UNL     1      -0.369  10.835  21.661  0.00  0.00    +0.000 A 
ATOM      3  C   UNL     1       0.260  10.001  22.581  0.00  0.00    +0.000 A 
ATOM      4  C   UNL     1       1.026   8.932  22.133  0.00  0.00    +0.000 A 
ATOM      5  C   UNL     1       1.166   8.684  20.769  0.00  0.00    +0.000 A 
ATOM      6  C   UNL     1       0.532   9.536  19.856  0.00  0.00    +0.000 A 
ENDROOT
BRANCH   1   7
ATOM      7  C   UNL     1      -0.972  11.601  19.217  0.00  0.00    +0.000 C 
ATOM      8  C   UNL     1      -0.064  12.709  18.601  0.00  0.00    +0.000 C 
ATOM      9  O   UNL     1      -0.893  13.766  19.117  0.00  0.00    +0.000 OA
ATOM     10  C   UNL     1      -1.768  12.820  19.765  0.00  0.00    +0.000 C 
BRANCH   7  11
ATOM     11  C   UNL     1      -1.696  10.772  18.137  0.00  0.00    +0.000 C 
BRANCH  11  17
ATOM     12  C   UNL     1      -3.221  10.908  15.317  0.00  0.00    +0.000 C 
ATOM     13  N   UNL     1      -3.712  11.282  16.616  0.00  0.00    +0.000 N 
ATOM     14  C   UNL     1      -4.939  11.832  16.841  0.00  0.00    +0.000 A 
ATOM     15  N   UNL     1      -5.097  12.047  18.123  0.00  0.00    +0.000 NA
ATOM     16  N   UNL     1      -3.947  11.644  18.754  0.00  0.00    +0.000 NA
ATOM     17  C   UNL     1      -3.101  11.198  17.845  0.00  0.00    +0.000 A 
ENDBRANCH  11  17
ENDBRANCH   7  11
ENDBRANCH   1   7
BRANCH   5  18
ATOM     18  N   UNL     1       1.932   7.627  20.248  0.00  0.00    +0.000 N 
ATOM     19  C   UNL     1       2.530   7.575  19.006  0.00  0.00    +0.000 C 
ATOM     20  O   UNL     1       2.541   8.453  18.148  0.00  0.00    +0.000 OA
ATOM     21  H   UNL     1       2.101   6.813  20.838  0.00  0.00    +0.000 HD
BRANCH  19  22
ATOM     22  C   UNL     1       3.223   6.285  18.724  0.00  0.00    +0.000 A 
ATOM     23  C   UNL     1       4.047   6.192  17.614  0.00  0.00    +0.000 A 
ATOM     24  C   UNL     1       4.617   4.962  17.342  0.00  0.00    +0.000 A 
ATOM     25  C   UNL     1       4.382   3.898  18.214  0.00  0.00    +0.000 A 
ATOM     26  C   UNL     1       3.546   4.064  19.321  0.00  0.00    +0.000 A 
ATOM     27  N   UNL     1       2.955   5.258  19.572  0.00  0.00    +0.000 NA
BRANCH  26  28
ATOM     28  C   UNL     1       3.235   2.913  20.246  0.00  0.00    +0.000 C 
ATOM     29  C   UNL     1       2.169   3.033  21.310  0.00  0.00    +0.000 C 
ATOM     30  C   UNL     1       1.916   2.190  20.097  0.00  0.00    +0.000 C 
ENDBRANCH  26  28
BRANCH  24  31
ATOM     31  O   UNL     1       5.424   4.689  16.273  0.00  0.00    +0.000 OA
BRANCH  31  32
ATOM     32  C   UNL     1       6.812   4.574  16.562  0.00  0.00    +0.000 C 
ATOM     33  F   UNL     1       7.491   4.427  15.399  0.00  0.00    +0.000 F 
ATOM     34  F   UNL     1       7.208   5.753  17.102  0.00  0.00    +0.000 F 
ENDBRANCH  31  32
ENDBRANCH  24  31
ENDBRANCH  19  22
ENDBRANCH   5  18
TORSDOF 8
ENDMDL
MODEL 8
REMARK VINA RESULT:      -8.9      3.971      9.313
REMARK  Name = 
REMARK  9 active torsions:
REMARK  status: ('A' for Active; 'I' for Inactive)
REMARK    1  A    between atoms: C_1  and  N_2
REMARK    2  A    between atoms: C_6  and  C_7
REMARK    3  A    between atoms: C_7  and  C_8
REMARK    4  A    between atoms: C_8  and  C_9
REMARK    5  A    between atoms: C_13  and  N_14
REMARK    6  A    between atoms: C_15  and  C_17
REMARK    7  A    between atoms: C_19  and  O_20
REMARK    8  A    between atoms: O_20  and  C_21
REMARK    9  A    between atoms: C_25  and  C_26
REMARK                            x       y       z     vdW  Elec       q    Type
REMARK                         _______ _______ _______ _____ _____    ______ ____
ROOT
ATOM      1  C   UNL     1      -0.715  10.859  20.209  0.00  0.00    +0.000 A 
ATOM      2  C   UNL     1      -0.698  11.136  21.591  0.00  0.00    +0.000 A 
ATOM      3  C   UNL     1       0.051  10.375  22.485  0.00  0.00    +0.000 A 
ATOM      4  C   UNL     1       0.811   9.309  22.017  0.00  0.00    +0.000 A 
ATOM      5  C   UNL     1       0.826   8.992  20.661  0.00  0.00    +0.000 A 
ATOM      6  C   UNL     1       0.072   9.770  19.774  0.00  0.00    +0.000 A 
ENDROOT
BRANCH   1   7
ATOM      7  C   UNL     1      -1.567  11.746  19.184  0.00  0.00    +0.000 C 
ATOM      8  C   UNL     1      -2.758  12.537  19.808  0.00  0.00    +0.000 C 
ATOM      9  O   UNL     1      -3.723  11.863  18.980  0.00  0.00    +0.000 OA
ATOM     10  C   UNL     1      -2.698  11.049  18.375  0.00  0.00    +0.000 C 
BRANCH   7  11
ATOM     11  C   UNL     1      -0.630  12.654  18.362  0.00  0.00    +0.000 C 
BRANCH  11  17
ATOM     12  C   UNL     1       2.559  12.372  18.163  0.00  0.00    +0.000 C 
ATOM     13  N   UNL     1       1.790  13.182  19.069  0.00  0.00    +0.000 N 
ATOM     14  C   UNL     1       2.330  13.941  20.065  0.00  0.00    +0.000 A 
ATOM     15  N   UNL     1       1.377  14.571  20.705  0.00  0.00    +0.000 NA
ATOM     16  N   UNL     1       0.185  14.209  20.130  0.00  0.00    +0.000 NA
ATOM     17  C   UNL     1       0.428  13.355  19.153  0.00  0.00    +0.000 A 
ENDBRANCH  11  17
ENDBRANCH   7  11
ENDBRANCH   1   7
BRANCH   5  18
ATOM     18  N   UNL     1       1.577   7.934  20.120  0.00  0.00    +0.000 N 
ATOM     19  C   UNL     1       2.199   7.909  18.890  0.00  0.00    +0.000 C 
ATOM     20  O   UNL     1       2.248   8.813  18.061  0.00  0.00    +0.000 OA
ATOM     21  H   UNL     1       1.715   7.098  20.686  0.00  0.00    +0.000 HD
BRANCH  19  22
ATOM     22  C   UNL     1       2.868   6.612  18.579  0.00  0.00    +0.000 A 
ATOM     23  C   UNL     1       3.977   6.608  17.749  0.00  0.00    +0.000 A 
ATOM     24  C   UNL     1       4.529   5.383  17.424  0.00  0.00    +0.000 A 
ATOM     25  C   UNL     1       3.983   4.225  17.980  0.00  0.00    +0.000 A 
ATOM     26  C   UNL     1       2.867   4.302  18.818  0.00  0.00    +0.000 A 
ATOM     27  N   UNL     1       2.300   5.498  19.110  0.00  0.00    +0.000 NA
BRANCH  26  28
ATOM     28  C   UNL     1       2.229   3.059  19.386  0.00  0.00    +0.000 C 
ATOM     29  C   UNL     1       0.953   3.135  20.192  0.00  0.00    +0.000 C 
ATOM     30  C   UNL     1       0.920   2.575  18.802  0.00  0.00    +0.000 C 
ENDBRANCH  26  28
BRANCH  24  31
ATOM     31  O   UNL     1       5.599   5.198  16.595  0.00  0.00    +0.000 OA
BRANCH  31  32
ATOM     32  C   UNL     1       5.384   4.321  15.497  0.00  0.00    +0.000 C 
ATOM     33  F   UNL     1       5.191   5.058  14.376  0.00  0.00    +0.000 F 
ATOM     34  F   UNL     1       6.531   3.620  15.314  0.00  0.00    +0.000 F 
ENDBRANCH  31  32
ENDBRANCH  24  31
ENDBRANCH  19  22
ENDBRANCH   5  18
TORSDOF 8
ENDMDL
MODEL 9
REMARK VINA RESULT:      -8.8      3.455      9.391
REMARK  Name = 
REMARK  9 active torsions:
REMARK  status: ('A' for Active; 'I' for Inactive)
REMARK    1  A    between atoms: C_1  and  N_2
REMARK    2  A    between atoms: C_6  and  C_7
REMARK    3  A    between atoms: C_7  and  C_8
REMARK    4  A    between atoms: C_8  and  C_9
REMARK    5  A    between atoms: C_13  and  N_14
REMARK    6  A    between atoms: C_15  and  C_17
REMARK    7  A    between atoms: C_19  and  O_20
REMARK    8  A    between atoms: O_20  and  C_21
REMARK    9  A    between atoms: C_25  and  C_26
REMARK                            x       y       z     vdW  Elec       q    Type
REMARK                         _______ _______ _______ _____ _____    ______ ____
ROOT
ATOM      1  C   UNL     1      -0.613  11.231  21.013  0.00  0.00    +0.000 A 
ATOM      2  C   UNL     1      -1.013  11.262  22.365  0.00  0.00    +0.000 A 
ATOM      3  C   UNL     1      -0.720  10.223  23.243  0.00  0.00    +0.000 A 
ATOM      4  C   UNL     1      -0.011   9.116  22.792  0.00  0.00    +0.000 A 
ATOM      5  C   UNL     1       0.406   9.036  21.464  0.00  0.00    +0.000 A 
ATOM      6  C   UNL     1       0.107  10.092  20.595  0.00  0.00    +0.000 A 
ENDROOT
BRANCH   1   7
ATOM      7  C   UNL     1      -0.941  12.437  20.010  0.00  0.00    +0.000 C 
ATOM      8  C   UNL     1      -2.182  12.225  19.089  0.00  0.00    +0.000 C 
ATOM      9  O   UNL     1      -1.392  12.335  17.891  0.00  0.00    +0.000 OA
ATOM     10  C   UNL     1      -0.179  12.492  18.657  0.00  0.00    +0.000 C 
BRANCH   7  11
ATOM     11  C   UNL     1      -1.009  13.768  20.785  0.00  0.00    +0.000 C 
BRANCH  11  17
ATOM     12  C   UNL     1       0.613  16.024  19.180  0.00  0.00    +0.000 C 
ATOM     13  N   UNL     1       1.003  15.323  20.373  0.00  0.00    +0.000 N 
ATOM     14  C   UNL     1       2.208  15.480  20.995  0.00  0.00    +0.000 A 
ATOM     15  N   UNL     1       2.257  14.719  22.059  0.00  0.00    +0.000 NA
ATOM     16  N   UNL     1       1.070  14.035  22.133  0.00  0.00    +0.000 NA
ATOM     17  C   UNL     1       0.317  14.383  21.106  0.00  0.00    +0.000 A 
ENDBRANCH  11  17
ENDBRANCH   7  11
ENDBRANCH   1   7
BRANCH   5  18
ATOM     18  N   UNL     1       1.132   7.950  20.945  0.00  0.00    +0.000 N 
ATOM     19  C   UNL     1       1.803   7.908  19.740  0.00  0.00    +0.000 C 
ATOM     20  O   UNL     1       1.924   8.816  18.923  0.00  0.00    +0.000 OA
ATOM     21  H   UNL     1       1.210   7.105  21.507  0.00  0.00    +0.000 HD
BRANCH  19  22
ATOM     22  C   UNL     1       2.427   6.585  19.444  0.00  0.00    +0.000 A 
ATOM     23  C   UNL     1       2.243   5.540  20.335  0.00  0.00    +0.000 A 
ATOM     24  C   UNL     1       2.893   4.350  20.067  0.00  0.00    +0.000 A 
ATOM     25  C   UNL     1       3.652   4.240  18.901  0.00  0.00    +0.000 A 
ATOM     26  C   UNL     1       3.789   5.333  18.041  0.00  0.00    +0.000 A 
ATOM     27  N   UNL     1       3.182   6.514  18.318  0.00  0.00    +0.000 NA
BRANCH  26  28
ATOM     28  C   UNL     1       4.647   5.252  16.803  0.00  0.00    +0.000 C 
ATOM     29  C   UNL     1       5.116   6.502  16.096  0.00  0.00    +0.000 C 
ATOM     30  C   UNL     1       6.094   5.687  16.887  0.00  0.00    +0.000 C 
ENDBRANCH  26  28
BRANCH  24  31
ATOM     31  O   UNL     1       2.848   3.235  20.856  0.00  0.00    +0.000 OA
BRANCH  31  32
ATOM     32  C   UNL     1       1.621   2.517  20.839  0.00  0.00    +0.000 C 
ATOM     33  F   UNL     1       1.013   2.658  22.042  0.00  0.00    +0.000 F 
ATOM     34  F   UNL     1       0.821   3.113  19.921  0.00  0.00    +0.000 F 
ENDBRANCH  31  32
ENDBRANCH  24  31
ENDBRANCH  19  22
ENDBRANCH   5  18
TORSDOF 8
ENDMDL
