MODEL 1
REMARK VINA RESULT:      -9.2      0.000      0.000
REMARK  Name = 
REMARK  9 active torsions:
REMARK  status: ('A' for Active; 'I' for Inactive)
REMARK    1  A    between atoms: C_1  and  C_2
REMARK    2  A    between atoms: C_2  and  C_3
REMARK    3  A    between atoms: C_2  and  C_10
REMARK    4  A    between atoms: C_3  and  C_4
REMARK    5  A    between atoms: N_8  and  C_9
REMARK    6  A    between atoms: C_14  and  N_15
REMARK    7  A    between atoms: C_20  and  C_21
REMARK    8  A    between atoms: C_21  and  O_22
REMARK    9  A    between atoms: C_24  and  C_25
REMARK                            x       y       z     vdW  Elec       q    Type
REMARK                         _______ _______ _______ _____ _____    ______ ____
ROOT
ATOM      1  N   UNL     1       2.015   7.554  19.639  0.00  0.00    +0.000 N 
ATOM      2  C   UNL     1       1.334   7.987  20.841  0.00  0.00    +0.000 C 
ATOM      3  C   UNL     1       0.722   9.283  20.483  0.00  0.00    +0.000 A 
ATOM      4  C   UNL     1       1.059   9.610  19.173  0.00  0.00    +0.000 A 
ATOM      5  C   UNL     1       0.665  10.819  18.624  0.00  0.00    +0.000 A 
ATOM      6  C   UNL     1      -0.082  11.701  19.432  0.00  0.00    +0.000 A 
ATOM      7  C   UNL     1      -0.433  11.332  20.755  0.00  0.00    +0.000 A 
ATOM      8  C   UNL     1      -0.041  10.107  21.302  0.00  0.00    +0.000 A 
ATOM      9  C   UNL     1       1.875   8.497  18.611  0.00  0.00    +0.000 C 
ATOM     10  O   UNL     1       2.308   8.492  17.474  0.00  0.00    +0.000 OA
ENDROOT
BRANCH   1  15
ATOM     11  C   UNL     1       4.882   5.196  19.169  0.00  0.00    +0.000 A 
ATOM     12  C   UNL     1       4.323   3.999  19.618  0.00  0.00    +0.000 A 
ATOM     13  C   UNL     1       2.989   3.955  20.053  0.00  0.00    +0.000 A 
ATOM     14  C   UNL     1       2.189   5.111  20.066  0.00  0.00    +0.000 A 
ATOM     15  C   UNL     1       2.728   6.327  19.665  0.00  0.00    +0.000 A 
ATOM     16  C   UNL     1       4.073   6.336  19.239  0.00  0.00    +0.000 A 
BRANCH  11  18
ATOM     17  C   UNL     1       7.424   5.617  19.534  0.00  0.00    +0.000 C 
ATOM     18  C   UNL     1       6.276   5.275  18.555  0.00  0.00    +0.000 C 
BRANCH  18  19
ATOM     19  C   UNL     1       6.307   6.237  17.343  0.00  0.00    +0.000 C 
BRANCH  19  20
ATOM     20  C   UNL     1       6.600   5.560  16.041  0.00  0.00    +0.000 A 
ATOM     21  N   UNL     1       7.662   5.742  15.282  0.00  0.00    +0.000 NA
ATOM     22  N   UNL     1       7.534   4.958  14.161  0.00  0.00    +0.000 NA
ATOM     23  C   UNL     1       6.408   4.296  14.269  0.00  0.00    +0.000 A 
ATOM     24  N   UNL     1       5.793   4.631  15.434  0.00  0.00    +0.000 N 
ATOM     25  C   UNL     1       4.558   4.083  15.924  0.00  0.00    +0.000 C 
ENDBRANCH  19  20
ENDBRANCH  18  19
ENDBRANCH  11  18
ENDBRANCH   1  15
BRANCH   8  26
ATOM     26  C   UNL     1      -0.417   9.724  22.712  0.00  0.00    +0.000 C 
ATOM     27  F   UNL     1       0.652   9.561  23.542  0.00  0.00    +0.000 F 
ATOM     28  F   UNL     1      -1.210  10.650  23.312  0.00  0.00    +0.000 F 
ATOM     29  F   UNL     1      -1.097   8.547  22.765  0.00  0.00    +0.000 F 
ENDBRANCH   8  26
BRANCH   6  30
ATOM     30  C   UNL     1      -0.485  13.068  18.943  0.00  0.00    +0.000 C 
BRANCH  30  31
ATOM     31  O   UNL     1      -0.901  12.998  17.588  0.00  0.00    +0.000 OA
ATOM     32  H   UNL     1      -0.983  12.055  17.365  0.00  0.00    +0.000 HD
ENDBRANCH  30  31
ENDBRANCH   6  30
TORSDOF 7
ENDMDL
MODEL 2
REMARK VINA RESULT:      -9.0      1.257      2.219
REMARK  Name = 
REMARK  9 active torsions:
REMARK  status: ('A' for Active; 'I' for Inactive)
REMARK    1  A    between atoms: C_1  and  C_2
REMARK    2  A    between atoms: C_2  and  C_3
REMARK    3  A    between atoms: C_2  and  C_10
REMARK    4  A    between atoms: C_3  and  C_4
REMARK    5  A    between atoms: N_8  and  C_9
REMARK    6  A    between atoms: C_14  and  N_15
REMARK    7  A    between atoms: C_20  and  C_21
REMARK    8  A    between atoms: C_21  and  O_22
REMARK    9  A    between atoms: C_24  and  C_25
REMARK                            x       y       z     vdW  Elec       q    Type
REMARK                         _______ _______ _______ _____ _____    ______ ____
ROOT
ATOM      1  N   UNL     1       2.012   7.764  19.391  0.00  0.00    +0.000 N 
ATOM      2  C   UNL     1       1.390   8.112  20.651  0.00  0.00    +0.000 C 
ATOM      3  C   UNL     1       0.834   9.464  20.437  0.00  0.00    +0.000 A 
ATOM      4  C   UNL     1       1.149   9.898  19.153  0.00  0.00    +0.000 A 
ATOM      5  C   UNL     1       0.801  11.171  18.733  0.00  0.00    +0.000 A 
ATOM      6  C   UNL     1       0.124  12.007  19.646  0.00  0.00    +0.000 A 
ATOM      7  C   UNL     1      -0.205  11.531  20.940  0.00  0.00    +0.000 A 
ATOM      8  C   UNL     1       0.139  10.242  21.356  0.00  0.00    +0.000 A 
ATOM      9  C   UNL     1       1.891   8.806  18.461  0.00  0.00    +0.000 C 
ATOM     10  O   UNL     1       2.288   8.888  17.315  0.00  0.00    +0.000 OA
ENDROOT
BRANCH   1  15
ATOM     11  C   UNL     1       4.266   5.138  17.968  0.00  0.00    +0.000 A 
ATOM     12  C   UNL     1       4.050   4.086  18.858  0.00  0.00    +0.000 A 
ATOM     13  C   UNL     1       3.140   4.225  19.917  0.00  0.00    +0.000 A 
ATOM     14  C   UNL     1       2.439   5.425  20.122  0.00  0.00    +0.000 A 
ATOM     15  C   UNL     1       2.662   6.506  19.278  0.00  0.00    +0.000 A 
ATOM     16  C   UNL     1       3.586   6.334  18.227  0.00  0.00    +0.000 A 
BRANCH  11  18
ATOM     17  C   UNL     1       4.768   3.828  15.775  0.00  0.00    +0.000 C 
ATOM     18  C   UNL     1       5.133   4.998  16.720  0.00  0.00    +0.000 C 
BRANCH  18  19
ATOM     19  C   UNL     1       6.637   4.939  17.080  0.00  0.00    +0.000 C 
BRANCH  19  20
ATOM     20  C   UNL     1       7.220   6.264  17.460  0.00  0.00    +0.000 A 
ATOM     21  N   UNL     1       7.193   7.369  16.741  0.00  0.00    +0.000 NA
ATOM     22  N   UNL     1       7.865   8.351  17.429  0.00  0.00    +0.000 NA
ATOM     23  C   UNL     1       8.267   7.833  18.564  0.00  0.00    +0.000 A 
ATOM     24  N   UNL     1       7.877   6.531  18.633  0.00  0.00    +0.000 N 
ATOM     25  C   UNL     1       8.096   5.643  19.741  0.00  0.00    +0.000 C 
ENDBRANCH  19  20
ENDBRANCH  18  19
ENDBRANCH  11  18
ENDBRANCH   1  15
BRANCH   8  26
ATOM     26  C   UNL     1      -0.214   9.745  22.736  0.00  0.00    +0.000 C 
ATOM     27  F   UNL     1       0.870   9.460  23.512  0.00  0.00    +0.000 F 
ATOM     28  F   UNL     1      -0.947  10.645  23.444  0.00  0.00    +0.000 F 
ATOM     29  F   UNL     1      -0.945   8.598  22.701  0.00  0.00    +0.000 F 
ENDBRANCH   8  26
BRANCH   6  30
ATOM     30  C   UNL     1      -0.222  13.433  19.301  0.00  0.00    +0.000 C 
BRANCH  30  31
ATOM     31  O   UNL     1      -1.631  13.579  19.193  0.00  0.00    +0.000 OA
ATOM     32  H   UNL     1      -1.835  14.508  19.391  0.00  0.00    +0.000 HD
ENDBRANCH  30  31
ENDBRANCH   6  30
TORSDOF 7
ENDMDL
MODEL 3
REMARK VINA RESULT:      -8.9      3.611      8.292
REMARK  Name = 
REMARK  9 active torsions:
REMARK  status: ('A' for Active; 'I' for Inactive)
REMARK    1  A    between atoms: C_1  and  C_2
REMARK    2  A    between atoms: C_2  and  C_3
REMARK    3  A    between atoms: C_2  and  C_10
REMARK    4  A    between atoms: C_3  and  C_4
REMARK    5  A    between atoms: N_8  and  C_9
REMARK    6  A    between atoms: C_14  and  N_15
REMARK    7  A    between atoms: C_20  and  C_21
REMARK    8  A    between atoms: C_21  and  O_22
REMARK    9  A    between atoms: C_24  and  C_25
REMARK                            x       y       z     vdW  Elec       q    Type
REMARK                         _______ _______ _______ _____ _____    ______ ____
ROOT
ATOM      1  N   UNL     1       1.617   7.993  19.879  0.00  0.00    +0.000 N 
ATOM      2  C   UNL     1       1.577   6.674  20.475  0.00  0.00    +0.000 C 
ATOM      3  C   UNL     1       2.422   5.838  19.598  0.00  0.00    +0.000 A 
ATOM      4  C   UNL     1       2.889   6.605  18.534  0.00  0.00    +0.000 A 
ATOM      5  C   UNL     1       3.647   6.028  17.529  0.00  0.00    +0.000 A 
ATOM      6  C   UNL     1       3.925   4.648  17.617  0.00  0.00    +0.000 A 
ATOM      7  C   UNL     1       3.456   3.896  18.723  0.00  0.00    +0.000 A 
ATOM      8  C   UNL     1       2.700   4.484  19.741  0.00  0.00    +0.000 A 
ATOM      9  C   UNL     1       2.395   7.999  18.713  0.00  0.00    +0.000 C 
ATOM     10  O   UNL     1       2.653   8.905  17.944  0.00  0.00    +0.000 OA
ENDROOT
BRANCH   1  15
ATOM     11  C   UNL     1      -0.563  11.025  20.112  0.00  0.00    +0.000 A 
ATOM     12  C   UNL     1      -0.643  11.195  21.494  0.00  0.00    +0.000 A 
ATOM     13  C   UNL     1       0.043  10.328  22.359  0.00  0.00    +0.000 A 
ATOM     14  C   UNL     1       0.810   9.260  21.862  0.00  0.00    +0.000 A 
ATOM     15  C   UNL     1       0.876   9.038  20.492  0.00  0.00    +0.000 A 
ATOM     16  C   UNL     1       0.171   9.926  19.652  0.00  0.00    +0.000 A 
BRANCH  11  18
ATOM     17  C   UNL     1      -1.015  13.512  19.490  0.00  0.00    +0.000 C 
ATOM     18  C   UNL     1      -1.170  12.017  19.124  0.00  0.00    +0.000 C 
BRANCH  18  19
ATOM     19  C   UNL     1      -2.655  11.692  18.836  0.00  0.00    +0.000 C 
BRANCH  19  20
ATOM     20  C   UNL     1      -2.899  11.138  17.468  0.00  0.00    +0.000 A 
ATOM     21  N   UNL     1      -2.073  10.388  16.765  0.00  0.00    +0.000 NA
ATOM     22  N   UNL     1      -2.658  10.117  15.551  0.00  0.00    +0.000 NA
ATOM     23  C   UNL     1      -3.838  10.687  15.546  0.00  0.00    +0.000 A 
ATOM     24  N   UNL     1      -4.038  11.329  16.729  0.00  0.00    +0.000 N 
ATOM     25  C   UNL     1      -5.230  12.034  17.114  0.00  0.00    +0.000 C 
ENDBRANCH  19  20
ENDBRANCH  18  19
ENDBRANCH  11  18
ENDBRANCH   1  15
BRANCH   8  26
ATOM     26  C   UNL     1       2.205   3.674  20.914  0.00  0.00    +0.000 C 
ATOM     27  F   UNL     1       2.470   4.241  22.125  0.00  0.00    +0.000 F 
ATOM     28  F   UNL     1       0.859   3.481  20.886  0.00  0.00    +0.000 F 
ATOM     29  F   UNL     1       2.768   2.437  20.964  0.00  0.00    +0.000 F 
ENDBRANCH   8  26
BRANCH   6  30
ATOM     30  C   UNL     1       4.674   3.923  16.528  0.00  0.00    +0.000 C 
BRANCH  30  31
ATOM     31  O   UNL     1       6.027   3.730  16.915  0.00  0.00    +0.000 OA
ATOM     32  H   UNL     1       6.038   2.990  17.546  0.00  0.00    +0.000 HD
ENDBRANCH  30  31
ENDBRANCH   6  30
TORSDOF 7
ENDMDL
MODEL 4
REMARK VINA RESULT:      -8.8      2.885      4.012
REMARK  Name = 
REMARK  9 active torsions:
REMARK  status: ('A' for Active; 'I' for Inactive)
REMARK    1  A    between atoms: C_1  and  C_2
REMARK    2  A    between atoms: C_2  and  C_3
REMARK    3  A    between atoms: C_2  and  C_10
REMARK    4  A    between atoms: C_3  and  C_4
REMARK    5  A    between atoms: N_8  and  C_9
REMARK    6  A    between atoms: C_14  and  N_15
REMARK    7  A    between atoms: C_20  and  C_21
REMARK    8  A    between atoms: C_21  and  O_22
REMARK    9  A    between atoms: C_24  and  C_25
REMARK                            x       y       z     vdW  Elec       q    Type
REMARK                         _______ _______ _______ _____ _____    ______ ____
ROOT
ATOM      1  N   UNL     1       2.501   6.144  19.184  0.00  0.00    +0.000 N 
ATOM      2  C   UNL     1       2.243   7.426  18.562  0.00  0.00    +0.000 C 
ATOM      3  C   UNL     1       1.584   8.229  19.613  0.00  0.00    +0.000 A 
ATOM      4  C   UNL     1       1.425   7.455  20.759  0.00  0.00    +0.000 A 
ATOM      5  C   UNL     1       0.765   7.961  21.866  0.00  0.00    +0.000 A 
ATOM      6  C   UNL     1       0.260   9.276  21.792  0.00  0.00    +0.000 A 
ATOM      7  C   UNL     1       0.457  10.051  20.621  0.00  0.00    +0.000 A 
ATOM      8  C   UNL     1       1.133   9.540  19.509  0.00  0.00    +0.000 A 
ATOM      9  C   UNL     1       2.029   6.117  20.503  0.00  0.00    +0.000 C 
ATOM     10  O   UNL     1       2.054   5.225  21.330  0.00  0.00    +0.000 OA
ENDROOT
BRANCH   1  15
ATOM     11  C   UNL     1       4.761   4.631  16.614  0.00  0.00    +0.000 A 
ATOM     12  C   UNL     1       4.468   3.275  16.762  0.00  0.00    +0.000 A 
ATOM     13  C   UNL     1       3.505   2.852  17.691  0.00  0.00    +0.000 A 
ATOM     14  C   UNL     1       2.825   3.774  18.506  0.00  0.00    +0.000 A 
ATOM     15  C   UNL     1       3.123   5.127  18.412  0.00  0.00    +0.000 A 
ATOM     16  C   UNL     1       4.099   5.517  17.472  0.00  0.00    +0.000 A 
BRANCH  11  18
ATOM     17  C   UNL     1       5.425   4.631  14.097  0.00  0.00    +0.000 C 
ATOM     18  C   UNL     1       5.692   5.159  15.527  0.00  0.00    +0.000 C 
BRANCH  18  19
ATOM     19  C   UNL     1       7.178   4.947  15.902  0.00  0.00    +0.000 C 
BRANCH  19  20
ATOM     20  C   UNL     1       7.493   5.265  17.330  0.00  0.00    +0.000 A 
ATOM     21  N   UNL     1       7.736   4.398  18.293  0.00  0.00    +0.000 NA
ATOM     22  N   UNL     1       7.947   5.093  19.459  0.00  0.00    +0.000 NA
ATOM     23  C   UNL     1       7.853   6.370  19.181  0.00  0.00    +0.000 A 
ATOM     24  N   UNL     1       7.580   6.528  17.857  0.00  0.00    +0.000 N 
ATOM     25  C   UNL     1       7.445   7.781  17.168  0.00  0.00    +0.000 C 
ENDBRANCH  19  20
ENDBRANCH  18  19
ENDBRANCH  11  18
ENDBRANCH   1  15
BRANCH   8  26
ATOM     26  C   UNL     1       1.335  10.371  18.267  0.00  0.00    +0.000 C 
ATOM     27  F   UNL     1       2.642  10.503  17.900  0.00  0.00    +0.000 F 
ATOM     28  F   UNL     1       0.699   9.855  17.182  0.00  0.00    +0.000 F 
ATOM     29  F   UNL     1       0.872  11.642  18.413  0.00  0.00    +0.000 F 
ENDBRANCH   8  26
BRANCH   6  30
ATOM     30  C   UNL     1      -0.540   9.879  22.919  0.00  0.00    +0.000 C 
BRANCH  30  31
ATOM     31  O   UNL     1      -0.004   9.469  24.168  0.00  0.00    +0.000 OA
ATOM     32  H   UNL     1       0.808   8.971  23.979  0.00  0.00    +0.000 HD
ENDBRANCH  30  31
ENDBRANCH   6  30
TORSDOF 7
ENDMDL
MODEL 5
REMARK VINA RESULT:      -8.7      1.372      2.357
REMARK  Name = 
REMARK  9 active torsions:
REMARK  status: ('A' for Active; 'I' for Inactive)
REMARK    1  A    between atoms: C_1  and  C_2
REMARK    2  A    between atoms: C_2  and  C_3
REMARK    3  A    between atoms: C_2  and  C_10
REMARK    4  A    between atoms: C_3  and  C_4
REMARK    5  A    between atoms: N_8  and  C_9
REMARK    6  A    between atoms: C_14  and  N_15
REMARK    7  A    between atoms: C_20  and  C_21
REMARK    8  A    between atoms: C_21  and  O_22
REMARK    9  A    between atoms: C_24  and  C_25
REMARK                            x       y       z     vdW  Elec       q    Type
REMARK                         _______ _______ _______ _____ _____    ______ ____
ROOT
ATOM      1  N   UNL     1       2.044   7.781  19.238  0.00  0.00    +0.000 N 
ATOM      2  C   UNL     1       1.427   8.073  20.514  0.00  0.00    +0.000 C 
ATOM      3  C   UNL     1       0.896   9.444  20.372  0.00  0.00    +0.000 A 
ATOM      4  C   UNL     1       1.219   9.940  19.112  0.00  0.00    +0.000 A 
ATOM      5  C   UNL     1       0.894  11.239  18.760  0.00  0.00    +0.000 A 
ATOM      6  C   UNL     1       0.231  12.038  19.716  0.00  0.00    +0.000 A 
ATOM      7  C   UNL     1      -0.107  11.500  20.983  0.00  0.00    +0.000 A 
ATOM      8  C   UNL     1       0.214  10.185  21.331  0.00  0.00    +0.000 A 
ATOM      9  C   UNL     1       1.942   8.872  18.364  0.00  0.00    +0.000 C 
ATOM     10  O   UNL     1       2.341   9.008  17.224  0.00  0.00    +0.000 OA
ENDROOT
BRANCH   1  15
ATOM     11  C   UNL     1       4.135   5.148  17.597  0.00  0.00    +0.000 A 
ATOM     12  C   UNL     1       3.997   4.092  18.498  0.00  0.00    +0.000 A 
ATOM     13  C   UNL     1       3.192   4.232  19.640  0.00  0.00    +0.000 A 
ATOM     14  C   UNL     1       2.521   5.436  19.915  0.00  0.00    +0.000 A 
ATOM     15  C   UNL     1       2.671   6.520  19.059  0.00  0.00    +0.000 A 
ATOM     16  C   UNL     1       3.491   6.347  17.924  0.00  0.00    +0.000 A 
BRANCH  11  18
ATOM     17  C   UNL     1       5.236   3.563  15.851  0.00  0.00    +0.000 C 
ATOM     18  C   UNL     1       4.880   5.008  16.273  0.00  0.00    +0.000 C 
BRANCH  18  19
ATOM     19  C   UNL     1       6.145   5.898  16.238  0.00  0.00    +0.000 C 
BRANCH  19  20
ATOM     20  C   UNL     1       6.984   5.805  17.473  0.00  0.00    +0.000 A 
ATOM     21  N   UNL     1       7.261   4.711  18.154  0.00  0.00    +0.000 NA
ATOM     22  N   UNL     1       8.032   5.057  19.238  0.00  0.00    +0.000 NA
ATOM     23  C   UNL     1       8.232   6.352  19.182  0.00  0.00    +0.000 A 
ATOM     24  N   UNL     1       7.604   6.862  18.089  0.00  0.00    +0.000 N 
ATOM     25  C   UNL     1       7.627   8.236  17.668  0.00  0.00    +0.000 C 
ENDBRANCH  19  20
ENDBRANCH  18  19
ENDBRANCH  11  18
ENDBRANCH   1  15
BRANCH   8  26
ATOM     26  C   UNL     1      -0.149   9.623  22.682  0.00  0.00    +0.000 C 
ATOM     27  F   UNL     1      -0.854  10.487  23.467  0.00  0.00    +0.000 F 
ATOM     28  F   UNL     1      -0.912   8.501  22.595  0.00  0.00    +0.000 F 
ATOM     29  F   UNL     1       0.947   9.284  23.414  0.00  0.00    +0.000 F 
ENDBRANCH   8  26
BRANCH   6  30
ATOM     30  C   UNL     1      -0.090  13.486  19.447  0.00  0.00    +0.000 C 
BRANCH  30  31
ATOM     31  O   UNL     1      -1.470  13.630  19.145  0.00  0.00    +0.000 OA
ATOM     32  H   UNL     1      -1.650  14.584  19.094  0.00  0.00    +0.000 HD
ENDBRANCH  30  31
ENDBRANCH   6  30
TORSDOF 7
ENDMDL
MODEL 6
REMARK VINA RESULT:      -8.7      2.684      3.852
REMARK  Name = 
REMARK  9 active torsions:
REMARK  status: ('A' for Active; 'I' for Inactive)
REMARK    1  A    between atoms: C_1  and  C_2
REMARK    2  A    between atoms: C_2  and  C_3
REMARK    3  A    between atoms: C_2  and  C_10
REMARK    4  A    between atoms: C_3  and  C_4
REMARK    5  A    between atoms: N_8  and  C_9
REMARK    6  A    between atoms: C_14  and  N_15
REMARK    7  A    between atoms: C_20  and  C_21
REMARK    8  A    between atoms: C_21  and  O_22
REMARK    9  A    between atoms: C_24  and  C_25
REMARK                            x       y       z     vdW  Elec       q    Type
REMARK                         _______ _______ _______ _____ _____    ______ ____
ROOT
ATOM      1  N   UNL     1       2.226   6.157  19.155  0.00  0.00    +0.000 N 
ATOM      2  C   UNL     1       1.979   7.452  18.559  0.00  0.00    +0.000 C 
ATOM      3  C   UNL     1       1.452   8.282  19.663  0.00  0.00    +0.000 A 
ATOM      4  C   UNL     1       1.354   7.511  20.818  0.00  0.00    +0.000 A 
ATOM      5  C   UNL     1       0.817   8.043  21.977  0.00  0.00    +0.000 A 
ATOM      6  C   UNL     1       0.372   9.382  21.948  0.00  0.00    +0.000 A 
ATOM      7  C   UNL     1       0.506  10.151  20.765  0.00  0.00    +0.000 A 
ATOM      8  C   UNL     1       1.058   9.613  19.599  0.00  0.00    +0.000 A 
ATOM      9  C   UNL     1       1.867   6.146  20.511  0.00  0.00    +0.000 C 
ATOM     10  O   UNL     1       1.919   5.250  21.331  0.00  0.00    +0.000 OA
ENDROOT
BRANCH   1  15
ATOM     11  C   UNL     1       4.520   4.431  16.756  0.00  0.00    +0.000 A 
ATOM     12  C   UNL     1       3.895   3.190  16.629  0.00  0.00    +0.000 A 
ATOM     13  C   UNL     1       2.698   2.923  17.312  0.00  0.00    +0.000 A 
ATOM     14  C   UNL     1       2.109   3.884  18.152  0.00  0.00    +0.000 A 
ATOM     15  C   UNL     1       2.729   5.114  18.333  0.00  0.00    +0.000 A 
ATOM     16  C   UNL     1       3.932   5.347  17.635  0.00  0.00    +0.000 A 
BRANCH  11  18
ATOM     17  C   UNL     1       5.948   4.038  14.616  0.00  0.00    +0.000 C 
ATOM     18  C   UNL     1       5.741   4.826  15.931  0.00  0.00    +0.000 C 
BRANCH  18  19
ATOM     19  C   UNL     1       7.034   4.789  16.781  0.00  0.00    +0.000 C 
BRANCH  19  20
ATOM     20  C   UNL     1       7.468   6.132  17.279  0.00  0.00    +0.000 A 
ATOM     21  N   UNL     1       7.564   7.240  16.571  0.00  0.00    +0.000 NA
ATOM     22  N   UNL     1       8.027   8.240  17.391  0.00  0.00    +0.000 NA
ATOM     23  C   UNL     1       8.182   7.730  18.588  0.00  0.00    +0.000 A 
ATOM     24  N   UNL     1       7.835   6.415  18.570  0.00  0.00    +0.000 N 
ATOM     25  C   UNL     1       7.831   5.528  19.701  0.00  0.00    +0.000 C 
ENDBRANCH  19  20
ENDBRANCH  18  19
ENDBRANCH  11  18
ENDBRANCH   1  15
BRANCH   8  26
ATOM     26  C   UNL     1       1.195  10.440  18.345  0.00  0.00    +0.000 C 
ATOM     27  F   UNL     1       0.422  10.002  17.310  0.00  0.00    +0.000 F 
ATOM     28  F   UNL     1       0.850  11.741  18.535  0.00  0.00    +0.000 F 
ATOM     29  F   UNL     1       2.468  10.447  17.865  0.00  0.00    +0.000 F 
ENDBRANCH   8  26
BRANCH   6  30
ATOM     30  C   UNL     1      -0.298  10.017  23.139  0.00  0.00    +0.000 C 
BRANCH  30  31
ATOM     31  O   UNL     1      -0.387  11.422  22.955  0.00  0.00    +0.000 OA
ATOM     32  H   UNL     1      -1.296  11.680  23.185  0.00  0.00    +0.000 HD
ENDBRANCH  30  31
ENDBRANCH   6  30
TORSDOF 7
ENDMDL
MODEL 7
REMARK VINA RESULT:      -8.6      0.724      1.006
REMARK  Name = 
REMARK  9 active torsions:
REMARK  status: ('A' for Active; 'I' for Inactive)
REMARK    1  A    between atoms: C_1  and  C_2
REMARK    2  A    between atoms: C_2  and  C_3
REMARK    3  A    between atoms: C_2  and  C_10
REMARK    4  A    between atoms: C_3  and  C_4
REMARK    5  A    between atoms: N_8  and  C_9
REMARK    6  A    between atoms: C_14  and  N_15
REMARK    7  A    between atoms: C_20  and  C_21
REMARK    8  A    between atoms: C_21  and  O_22
REMARK    9  A    between atoms: C_24  and  C_25
REMARK                            x       y       z     vdW  Elec       q    Type
REMARK                         _______ _______ _______ _____ _____    ______ ____
ROOT
ATOM      1  N   UNL     1       2.316   7.373  19.340  0.00  0.00    +0.000 N 
ATOM      2  C   UNL     1       1.641   7.787  20.552  0.00  0.00    +0.000 C 
ATOM      3  C   UNL     1       1.018   9.083  20.214  0.00  0.00    +0.000 A 
ATOM      4  C   UNL     1       1.344   9.428  18.905  0.00  0.00    +0.000 A 
ATOM      5  C   UNL     1       0.938  10.640  18.373  0.00  0.00    +0.000 A 
ATOM      6  C   UNL     1       0.192  11.508  19.197  0.00  0.00    +0.000 A 
ATOM      7  C   UNL     1      -0.147  11.122  20.518  0.00  0.00    +0.000 A 
ATOM      8  C   UNL     1       0.256   9.893  21.048  0.00  0.00    +0.000 A 
ATOM      9  C   UNL     1       2.164   8.327  18.324  0.00  0.00    +0.000 C 
ATOM     10  O   UNL     1       2.588   8.338  17.185  0.00  0.00    +0.000 OA
ENDROOT
BRANCH   1  15
ATOM     11  C   UNL     1       5.270   5.086  19.140  0.00  0.00    +0.000 A 
ATOM     12  C   UNL     1       4.661   3.843  19.314  0.00  0.00    +0.000 A 
ATOM     13  C   UNL     1       3.270   3.747  19.471  0.00  0.00    +0.000 A 
ATOM     14  C   UNL     1       2.457   4.894  19.477  0.00  0.00    +0.000 A 
ATOM     15  C   UNL     1       3.037   6.150  19.348  0.00  0.00    +0.000 A 
ATOM     16  C   UNL     1       4.438   6.210  19.196  0.00  0.00    +0.000 A 
BRANCH  11  18
ATOM     17  C   UNL     1       7.649   5.703  19.998  0.00  0.00    +0.000 C 
ATOM     18  C   UNL     1       6.755   5.239  18.823  0.00  0.00    +0.000 C 
BRANCH  18  19
ATOM     19  C   UNL     1       6.981   6.148  17.593  0.00  0.00    +0.000 C 
BRANCH  19  20
ATOM     20  C   UNL     1       6.787   5.452  16.282  0.00  0.00    +0.000 A 
ATOM     21  N   UNL     1       7.505   4.453  15.810  0.00  0.00    +0.000 NA
ATOM     22  N   UNL     1       7.026   4.123  14.565  0.00  0.00    +0.000 NA
ATOM     23  C   UNL     1       6.009   4.912  14.313  0.00  0.00    +0.000 A 
ATOM     24  N   UNL     1       5.815   5.754  15.363  0.00  0.00    +0.000 N 
ATOM     25  C   UNL     1       4.771   6.735  15.475  0.00  0.00    +0.000 C 
ENDBRANCH  19  20
ENDBRANCH  18  19
ENDBRANCH  11  18
ENDBRANCH   1  15
BRANCH   8  26
ATOM     26  C   UNL     1      -0.108   9.492  22.456  0.00  0.00    +0.000 C 
ATOM     27  F   UNL     1      -0.795  10.450  23.141  0.00  0.00    +0.000 F 
ATOM     28  F   UNL     1      -0.888   8.379  22.498  0.00  0.00    +0.000 F 
ATOM     29  F   UNL     1       0.987   9.220  23.216  0.00  0.00    +0.000 F 
ENDBRANCH   8  26
BRANCH   6  30
ATOM     30  C   UNL     1      -0.223  12.879  18.727  0.00  0.00    +0.000 C 
BRANCH  30  31
ATOM     31  O   UNL     1      -1.024  12.772  17.559  0.00  0.00    +0.000 OA
ATOM     32  H   UNL     1      -0.510  12.263  16.909  0.00  0.00    +0.000 HD
ENDBRANCH  30  31
ENDBRANCH   6  30
TORSDOF 7
ENDMDL
MODEL 8
REMARK VINA RESULT:      -8.4      3.927      8.502
REMARK  Name = 
REMARK  9 active torsions:
REMARK  status: ('A' for Active; 'I' for Inactive)
REMARK    1  A    between atoms: C_1  and  C_2
REMARK    2  A    between atoms: C_2  and  C_3
REMARK    3  A    between atoms: C_2  and  C_10
REMARK    4  A    between atoms: C_3  and  C_4
REMARK    5  A    between atoms: N_8  and  C_9
REMARK    6  A    between atoms: C_14  and  N_15
REMARK    7  A    between atoms: C_20  and  C_21
REMARK    8  A    between atoms: C_21  and  O_22
REMARK    9  A    between atoms: C_24  and  C_25
REMARK                            x       y       z     vdW  Elec       q    Type
REMARK                         _______ _______ _______ _____ _____    ______ ____
ROOT
ATOM      1  N   UNL     1       2.529   7.220  18.839  0.00  0.00    +0.000 N 
ATOM      2  C   UNL     1       2.507   5.790  19.065  0.00  0.00    +0.000 C 
ATOM      3  C   UNL     1       3.477   5.240  18.096  0.00  0.00    +0.000 A 
ATOM      4  C   UNL     1       3.999   6.274  17.323  0.00  0.00    +0.000 A 
ATOM      5  C   UNL     1       4.879   6.005  16.289  0.00  0.00    +0.000 A 
ATOM      6  C   UNL     1       5.225   4.659  16.045  0.00  0.00    +0.000 A 
ATOM      7  C   UNL     1       4.698   3.629  16.864  0.00  0.00    +0.000 A 
ATOM      8  C   UNL     1       3.817   3.905  17.913  0.00  0.00    +0.000 A 
ATOM      9  C   UNL     1       3.411   7.556  17.803  0.00  0.00    +0.000 C 
ATOM     10  O   UNL     1       3.689   8.640  17.327  0.00  0.00    +0.000 OA
ENDROOT
BRANCH   1  15
ATOM     11  C   UNL     1       0.201  10.042  19.626  0.00  0.00    +0.000 A 
ATOM     12  C   UNL     1      -0.046   9.818  20.981  0.00  0.00    +0.000 A 
ATOM     13  C   UNL     1       0.574   8.752  21.651  0.00  0.00    +0.000 A 
ATOM     14  C   UNL     1       1.441   7.874  20.978  0.00  0.00    +0.000 A 
ATOM     15  C   UNL     1       1.675   8.045  19.619  0.00  0.00    +0.000 A 
ATOM     16  C   UNL     1       1.033   9.123  18.976  0.00  0.00    +0.000 A 
BRANCH  11  18
ATOM     17  C   UNL     1       0.282  12.622  19.295  0.00  0.00    +0.000 C 
ATOM     18  C   UNL     1      -0.331  11.263  18.883  0.00  0.00    +0.000 C 
BRANCH  18  19
ATOM     19  C   UNL     1      -1.876  11.336  18.947  0.00  0.00    +0.000 C 
BRANCH  19  20
ATOM     20  C   UNL     1      -2.550  11.039  17.645  0.00  0.00    +0.000 A 
ATOM     21  N   UNL     1      -2.011  10.443  16.599  0.00  0.00    +0.000 NA
ATOM     22  N   UNL     1      -2.951  10.391  15.597  0.00  0.00    +0.000 NA
ATOM     23  C   UNL     1      -4.051  10.934  16.059  0.00  0.00    +0.000 A 
ATOM     24  N   UNL     1      -3.852  11.345  17.340  0.00  0.00    +0.000 N 
ATOM     25  C   UNL     1      -4.837  11.949  18.195  0.00  0.00    +0.000 C 
ENDBRANCH  19  20
ENDBRANCH  18  19
ENDBRANCH  11  18
ENDBRANCH   1  15
BRANCH   8  26
ATOM     26  C   UNL     1       3.260   2.801  18.777  0.00  0.00    +0.000 C 
ATOM     27  F   UNL     1       1.897   2.775  18.826  0.00  0.00    +0.000 F 
ATOM     28  F   UNL     1       3.636   1.565  18.354  0.00  0.00    +0.000 F 
ATOM     29  F   UNL     1       3.665   2.902  20.071  0.00  0.00    +0.000 F 
ENDBRANCH   8  26
BRANCH   6  30
ATOM     30  C   UNL     1       6.114   4.269  14.892  0.00  0.00    +0.000 C 
BRANCH  30  31
ATOM     31  O   UNL     1       6.866   5.392  14.456  0.00  0.00    +0.000 OA
ATOM     32  H   UNL     1       6.479   6.175  14.882  0.00  0.00    +0.000 HD
ENDBRANCH  30  31
ENDBRANCH   6  30
TORSDOF 7
ENDMDL
MODEL 9
REMARK VINA RESULT:      -8.4      3.693      8.621
REMARK  Name = 
REMARK  9 active torsions:
REMARK  status: ('A' for Active; 'I' for Inactive)
REMARK    1  A    between atoms: C_1  and  C_2
REMARK    2  A    between atoms: C_2  and  C_3
REMARK    3  A    between atoms: C_2  and  C_10
REMARK    4  A    between atoms: C_3  and  C_4
REMARK    5  A    between atoms: N_8  and  C_9
REMARK    6  A    between atoms: C_14  and  N_15
REMARK    7  A    between atoms: C_20  and  C_21
REMARK    8  A    between atoms: C_21  and  O_22
REMARK    9  A    between atoms: C_24  and  C_25
REMARK                            x       y       z     vdW  Elec       q    Type
REMARK                         _______ _______ _______ _____ _____    ______ ____
ROOT
ATOM      1  N   UNL     1       1.539   7.874  20.136  0.00  0.00    +0.000 N 
ATOM      2  C   UNL     1       1.507   6.529  20.670  0.00  0.00    +0.000 C 
ATOM      3  C   UNL     1       2.341   5.735  19.745  0.00  0.00    +0.000 A 
ATOM      4  C   UNL     1       2.795   6.551  18.712  0.00  0.00    +0.000 A 
ATOM      5  C   UNL     1       3.540   6.022  17.671  0.00  0.00    +0.000 A 
ATOM      6  C   UNL     1       3.819   4.639  17.692  0.00  0.00    +0.000 A 
ATOM      7  C   UNL     1       3.365   3.837  18.769  0.00  0.00    +0.000 A 
ATOM      8  C   UNL     1       2.622   4.376  19.822  0.00  0.00    +0.000 A 
ATOM      9  C   UNL     1       2.302   7.935  18.961  0.00  0.00    +0.000 C 
ATOM     10  O   UNL     1       2.550   8.875  18.232  0.00  0.00    +0.000 OA
ENDROOT
BRANCH   1  15
ATOM     11  C   UNL     1      -0.556  10.948  20.539  0.00  0.00    +0.000 A 
ATOM     12  C   UNL     1      -0.687  11.005  21.927  0.00  0.00    +0.000 A 
ATOM     13  C   UNL     1      -0.064  10.046  22.741  0.00  0.00    +0.000 A 
ATOM     14  C   UNL     1       0.690   8.998  22.185  0.00  0.00    +0.000 A 
ATOM     15  C   UNL     1       0.805   8.889  20.805  0.00  0.00    +0.000 A 
ATOM     16  C   UNL     1       0.163   9.867  20.017  0.00  0.00    +0.000 A 
BRANCH  11  18
ATOM     17  C   UNL     1      -0.355  13.398  19.684  0.00  0.00    +0.000 C 
ATOM     18  C   UNL     1      -1.090  12.039  19.616  0.00  0.00    +0.000 C 
BRANCH  18  19
ATOM     19  C   UNL     1      -2.611  12.248  19.808  0.00  0.00    +0.000 C 
BRANCH  19  20
ATOM     20  C   UNL     1      -3.431  11.849  18.622  0.00  0.00    +0.000 A 
ATOM     21  N   UNL     1      -2.977  11.501  17.434  0.00  0.00    +0.000 NA
ATOM     22  N   UNL     1      -4.051  11.241  16.617  0.00  0.00    +0.000 NA
ATOM     23  C   UNL     1      -5.139  11.411  17.329  0.00  0.00    +0.000 A 
ATOM     24  N   UNL     1      -4.801  11.782  18.593  0.00  0.00    +0.000 N 
ATOM     25  C   UNL     1      -5.716  12.020  19.675  0.00  0.00    +0.000 C 
ENDBRANCH  19  20
ENDBRANCH  18  19
ENDBRANCH  11  18
ENDBRANCH   1  15
BRANCH   8  26
ATOM     26  C   UNL     1       2.142   3.513  20.963  0.00  0.00    +0.000 C 
ATOM     27  F   UNL     1       2.444   4.012  22.195  0.00  0.00    +0.000 F 
ATOM     28  F   UNL     1       0.793   3.340  20.957  0.00  0.00    +0.000 F 
ATOM     29  F   UNL     1       2.687   2.267  20.934  0.00  0.00    +0.000 F 
ENDBRANCH   8  26
BRANCH   6  30
ATOM     30  C   UNL     1       4.555   3.966  16.562  0.00  0.00    +0.000 C 
BRANCH  30  31
ATOM     31  O   UNL     1       5.261   4.932  15.797  0.00  0.00    +0.000 OA
ATOM     32  H   UNL     1       5.431   4.535  14.927  0.00  0.00    +0.000 HD
ENDBRANCH  30  31
ENDBRANCH   6  30
TORSDOF 7
ENDMDL
