MODEL 1
REMARK VINA RESULT:      -9.5      0.000      0.000
REMARK  Name = 
REMARK  8 active torsions:
REMARK  status: ('A' for Active; 'I' for Inactive)
REMARK    1  A    between atoms: C_1  and  C_2
REMARK    2  A    between atoms: C_4  and  C_5
REMARK    3  A    between atoms: N_7  and  C_8
REMARK    4  A    between atoms: C_12  and  C_13
REMARK    5  A    between atoms: C_13  and  C_14
REMARK    6  A    between atoms: C_14  and  C_15
REMARK    7  A    between atoms: C_19  and  C_20
REMARK    8  A    between atoms: C_26  and  C_27
REMARK                            x       y       z     vdW  Elec       q    Type
REMARK                         _______ _______ _______ _____ _____    ______ ____
ROOT
ATOM      1  C   UNL     1       2.464   5.938  18.108  0.00  0.00    +0.000 A 
ATOM      2  C   UNL     1       1.743   4.758  17.954  0.00  0.00    +0.000 A 
ATOM      3  C   UNL     1       2.347   3.626  17.412  0.00  0.00    +0.000 A 
ATOM      4  C   UNL     1       3.687   3.661  17.037  0.00  0.00    +0.000 A 
ATOM      5  C   UNL     1       4.464   4.831  17.152  0.00  0.00    +0.000 A 
ATOM      6  C   UNL     1       3.800   5.973  17.672  0.00  0.00    +0.000 A 
ENDROOT
BRANCH   1   9
ATOM      7  C   UNL     1       2.007   8.385  18.172  0.00  0.00    +0.000 C 
ATOM      8  O   UNL     1       2.534   8.701  17.107  0.00  0.00    +0.000 OA
ATOM      9  N   UNL     1       1.924   7.105  18.694  0.00  0.00    +0.000 N 
ATOM     10  H   UNL     1       1.343   7.010  19.523  0.00  0.00    +0.000 HD
BRANCH   7  14
ATOM     11  C   UNL     1       0.987  13.169  18.994  0.00  0.00    +0.000 C 
ATOM     12  C   UNL     1       0.902  11.716  19.341  0.00  0.00    +0.000 A 
ATOM     13  C   UNL     1       1.502  10.763  18.563  0.00  0.00    +0.000 A 
ATOM     14  C   UNL     1       1.354   9.459  18.987  0.00  0.00    +0.000 A 
ATOM     15  N   UNL     1       0.658   9.083  20.087  0.00  0.00    +0.000 NA
ATOM     16  C   UNL     1       0.095  10.087  20.791  0.00  0.00    +0.000 A 
ATOM     17  N   UNL     1       0.206  11.390  20.445  0.00  0.00    +0.000 NA
BRANCH  16  18
ATOM     18  C   UNL     1      -0.719   9.800  22.030  0.00  0.00    +0.000 C 
ATOM     19  C   UNL     1       0.024   9.552  23.326  0.00  0.00    +0.000 C 
ATOM     20  C   UNL     1      -0.850  10.762  23.182  0.00  0.00    +0.000 C 
ENDBRANCH  16  18
ENDBRANCH   7  14
ENDBRANCH   1   9
BRANCH   5  21
ATOM     21  C   UNL     1       6.026   4.835  16.751  0.00  0.00    +0.000 C 
ATOM     22  C   UNL     1       6.797   6.181  16.659  0.00  0.00    +0.000 C 
ATOM     23  O   UNL     1       7.882   5.651  17.467  0.00  0.00    +0.000 OA
ATOM     24  C   UNL     1       7.013   4.588  17.929  0.00  0.00    +0.000 C 
BRANCH  21  25
ATOM     25  C   UNL     1       6.335   3.866  15.595  0.00  0.00    +0.000 C 
BRANCH  25  26
ATOM     26  C   UNL     1       6.910   4.499  14.373  0.00  0.00    +0.000 A 
ATOM     27  N   UNL     1       7.877   5.419  14.477  0.00  0.00    +0.000 NA
ATOM     28  O   UNL     1       8.223   5.752  13.182  0.00  0.00    +0.000 OA
ATOM     29  C   UNL     1       7.472   5.031  12.317  0.00  0.00    +0.000 A 
ATOM     30  C   UNL     1       6.612   4.216  13.011  0.00  0.00    +0.000 A 
ATOM     31  C   UNL     1       5.628   3.257  12.462  0.00  0.00    +0.000 C 
ENDBRANCH  25  26
ENDBRANCH  21  25
ENDBRANCH   5  21
TORSDOF 6
ENDMDL
MODEL 2
REMARK VINA RESULT:      -9.4      0.657      2.180
REMARK  Name = 
REMARK  8 active torsions:
REMARK  status: ('A' for Active; 'I' for Inactive)
REMARK    1  A    between atoms: C_1  and  C_2
REMARK    2  A    between atoms: C_4  and  C_5
REMARK    3  A    between atoms: N_7  and  C_8
REMARK    4  A    between atoms: C_12  and  C_13
REMARK    5  A    between atoms: C_13  and  C_14
REMARK    6  A    between atoms: C_14  and  C_15
REMARK    7  A    between atoms: C_19  and  C_20
REMARK    8  A    between atoms: C_26  and  C_27
REMARK                            x       y       z     vdW  Elec       q    Type
REMARK                         _______ _______ _______ _____ _____    ______ ____
ROOT
ATOM      1  C   UNL     1       2.514   6.020  18.294  0.00  0.00    +0.000 A 
ATOM      2  C   UNL     1       1.741   4.892  18.034  0.00  0.00    +0.000 A 
ATOM      3  C   UNL     1       2.292   3.793  17.380  0.00  0.00    +0.000 A 
ATOM      4  C   UNL     1       3.630   3.807  16.996  0.00  0.00    +0.000 A 
ATOM      5  C   UNL     1       4.458   4.927  17.216  0.00  0.00    +0.000 A 
ATOM      6  C   UNL     1       3.848   6.040  17.850  0.00  0.00    +0.000 A 
ENDROOT
BRANCH   1   9
ATOM      7  C   UNL     1       1.872   8.419  18.473  0.00  0.00    +0.000 C 
ATOM      8  O   UNL     1       2.099   8.760  17.313  0.00  0.00    +0.000 OA
ATOM      9  N   UNL     1       2.028   7.147  18.996  0.00  0.00    +0.000 N 
ATOM     10  H   UNL     1       1.673   7.017  19.940  0.00  0.00    +0.000 HD
BRANCH   7  14
ATOM     11  C   UNL     1      -0.024   9.654  22.887  0.00  0.00    +0.000 C 
ATOM     12  C   UNL     1       0.447   9.986  21.505  0.00  0.00    +0.000 A 
ATOM     13  C   UNL     1       0.939   9.019  20.671  0.00  0.00    +0.000 A 
ATOM     14  C   UNL     1       1.340   9.448  19.423  0.00  0.00    +0.000 A 
ATOM     15  N   UNL     1       1.287  10.734  18.998  0.00  0.00    +0.000 NA
ATOM     16  C   UNL     1       0.793  11.621  19.888  0.00  0.00    +0.000 A 
ATOM     17  N   UNL     1       0.370  11.274  21.125  0.00  0.00    +0.000 NA
BRANCH  16  18
ATOM     18  C   UNL     1       0.695  13.087  19.544  0.00  0.00    +0.000 C 
ATOM     19  C   UNL     1       1.777  14.012  20.060  0.00  0.00    +0.000 C 
ATOM     20  C   UNL     1       1.627  13.783  18.586  0.00  0.00    +0.000 C 
ENDBRANCH  16  18
ENDBRANCH   7  14
ENDBRANCH   1   9
BRANCH   5  21
ATOM     21  C   UNL     1       6.016   4.902  16.801  0.00  0.00    +0.000 C 
ATOM     22  C   UNL     1       6.807   6.236  16.689  0.00  0.00    +0.000 C 
ATOM     23  O   UNL     1       7.891   5.696  17.493  0.00  0.00    +0.000 OA
ATOM     24  C   UNL     1       7.009   4.651  17.972  0.00  0.00    +0.000 C 
BRANCH  21  25
ATOM     25  C   UNL     1       6.300   3.918  15.651  0.00  0.00    +0.000 C 
BRANCH  25  26
ATOM     26  C   UNL     1       6.888   4.528  14.425  0.00  0.00    +0.000 A 
ATOM     27  N   UNL     1       7.874   5.429  14.521  0.00  0.00    +0.000 NA
ATOM     28  O   UNL     1       8.228   5.743  13.223  0.00  0.00    +0.000 OA
ATOM     29  C   UNL     1       7.462   5.030  12.364  0.00  0.00    +0.000 A 
ATOM     30  C   UNL     1       6.584   4.240  13.064  0.00  0.00    +0.000 A 
ATOM     31  C   UNL     1       5.581   3.297  12.524  0.00  0.00    +0.000 C 
ENDBRANCH  25  26
ENDBRANCH  21  25
ENDBRANCH   5  21
TORSDOF 6
ENDMDL
MODEL 3
REMARK VINA RESULT:      -9.3      1.990      2.742
REMARK  Name = 
REMARK  8 active torsions:
REMARK  status: ('A' for Active; 'I' for Inactive)
REMARK    1  A    between atoms: C_1  and  C_2
REMARK    2  A    between atoms: C_4  and  C_5
REMARK    3  A    between atoms: N_7  and  C_8
REMARK    4  A    between atoms: C_12  and  C_13
REMARK    5  A    between atoms: C_13  and  C_14
REMARK    6  A    between atoms: C_14  and  C_15
REMARK    7  A    between atoms: C_19  and  C_20
REMARK    8  A    between atoms: C_26  and  C_27
REMARK                            x       y       z     vdW  Elec       q    Type
REMARK                         _______ _______ _______ _____ _____    ______ ____
ROOT
ATOM      1  C   UNL     1       3.009   6.186  19.337  0.00  0.00    +0.000 A 
ATOM      2  C   UNL     1       2.692   4.892  19.737  0.00  0.00    +0.000 A 
ATOM      3  C   UNL     1       3.638   3.874  19.650  0.00  0.00    +0.000 A 
ATOM      4  C   UNL     1       4.918   4.148  19.179  0.00  0.00    +0.000 A 
ATOM      5  C   UNL     1       5.294   5.435  18.743  0.00  0.00    +0.000 A 
ATOM      6  C   UNL     1       4.289   6.435  18.811  0.00  0.00    +0.000 A 
ENDROOT
BRANCH   1   9
ATOM      7  C   UNL     1       1.951   8.285  18.514  0.00  0.00    +0.000 C 
ATOM      8  O   UNL     1       2.539   8.381  17.438  0.00  0.00    +0.000 OA
ATOM      9  N   UNL     1       2.111   7.273  19.445  0.00  0.00    +0.000 N 
ATOM     10  H   UNL     1       1.452   7.285  20.219  0.00  0.00    +0.000 HD
BRANCH   7  14
ATOM     11  C   UNL     1      -0.059  11.450  21.762  0.00  0.00    +0.000 C 
ATOM     12  C   UNL     1       0.015  10.797  20.417  0.00  0.00    +0.000 A 
ATOM     13  C   UNL     1       0.969   9.858  20.134  0.00  0.00    +0.000 A 
ATOM     14  C   UNL     1       0.933   9.328  18.861  0.00  0.00    +0.000 A 
ATOM     15  N   UNL     1       0.043   9.686  17.905  0.00  0.00    +0.000 NA
ATOM     16  C   UNL     1      -0.858  10.623  18.269  0.00  0.00    +0.000 A 
ATOM     17  N   UNL     1      -0.893  11.180  19.501  0.00  0.00    +0.000 NA
BRANCH  16  18
ATOM     18  C   UNL     1      -1.895  11.119  17.291  0.00  0.00    +0.000 C 
ATOM     19  C   UNL     1      -2.719  10.090  16.546  0.00  0.00    +0.000 C 
ATOM     20  C   UNL     1      -3.380  11.014  17.525  0.00  0.00    +0.000 C 
ENDBRANCH  16  18
ENDBRANCH   7  14
ENDBRANCH   1   9
BRANCH   5  21
ATOM     21  C   UNL     1       6.796   5.737  18.241  0.00  0.00    +0.000 C 
ATOM     22  C   UNL     1       7.180   7.168  17.769  0.00  0.00    +0.000 C 
ATOM     23  O   UNL     1       8.370   7.157  18.601  0.00  0.00    +0.000 OA
ATOM     24  C   UNL     1       7.818   6.059  19.370  0.00  0.00    +0.000 C 
BRANCH  21  25
ATOM     25  C   UNL     1       7.347   4.619  17.336  0.00  0.00    +0.000 C 
BRANCH  25  26
ATOM     26  C   UNL     1       6.918   4.689  15.910  0.00  0.00    +0.000 A 
ATOM     27  N   UNL     1       7.688   5.295  14.999  0.00  0.00    +0.000 NA
ATOM     28  O   UNL     1       7.042   5.131  13.789  0.00  0.00    +0.000 OA
ATOM     29  C   UNL     1       5.902   4.428  13.980  0.00  0.00    +0.000 A 
ATOM     30  C   UNL     1       5.760   4.118  15.310  0.00  0.00    +0.000 A 
ATOM     31  C   UNL     1       4.670   3.353  15.954  0.00  0.00    +0.000 C 
ENDBRANCH  25  26
ENDBRANCH  21  25
ENDBRANCH   5  21
TORSDOF 6
ENDMDL
MODEL 4
REMARK VINA RESULT:      -9.0      3.183      9.406
REMARK  Name = 
REMARK  8 active torsions:
REMARK  status: ('A' for Active; 'I' for Inactive)
REMARK    1  A    between atoms: C_1  and  C_2
REMARK    2  A    between atoms: C_4  and  C_5
REMARK    3  A    between atoms: N_7  and  C_8
REMARK    4  A    between atoms: C_12  and  C_13
REMARK    5  A    between atoms: C_13  and  C_14
REMARK    6  A    between atoms: C_14  and  C_15
REMARK    7  A    between atoms: C_19  and  C_20
REMARK    8  A    between atoms: C_26  and  C_27
REMARK                            x       y       z     vdW  Elec       q    Type
REMARK                         _______ _______ _______ _____ _____    ______ ____
ROOT
ATOM      1  C   UNL     1       0.335   9.020  21.427  0.00  0.00    +0.000 A 
ATOM      2  C   UNL     1       0.064   9.433  22.729  0.00  0.00    +0.000 A 
ATOM      3  C   UNL     1      -0.645  10.608  22.965  0.00  0.00    +0.000 A 
ATOM      4  C   UNL     1      -1.106  11.372  21.897  0.00  0.00    +0.000 A 
ATOM      5  C   UNL     1      -0.848  11.016  20.557  0.00  0.00    +0.000 A 
ATOM      6  C   UNL     1      -0.090   9.833  20.361  0.00  0.00    +0.000 A 
ENDROOT
BRANCH   1   9
ATOM      7  C   UNL     1       1.810   7.596  20.014  0.00  0.00    +0.000 C 
ATOM      8  O   UNL     1       2.089   8.421  19.145  0.00  0.00    +0.000 OA
ATOM      9  N   UNL     1       1.007   7.815  21.121  0.00  0.00    +0.000 N 
ATOM     10  H   UNL     1       0.986   7.059  21.800  0.00  0.00    +0.000 HD
BRANCH   7  14
ATOM     11  C   UNL     1       2.077   2.872  21.503  0.00  0.00    +0.000 C 
ATOM     12  C   UNL     1       2.507   4.019  20.642  0.00  0.00    +0.000 A 
ATOM     13  C   UNL     1       1.925   5.252  20.757  0.00  0.00    +0.000 A 
ATOM     14  C   UNL     1       2.409   6.228  19.911  0.00  0.00    +0.000 A 
ATOM     15  N   UNL     1       3.387   6.033  18.993  0.00  0.00    +0.000 NA
ATOM     16  C   UNL     1       3.900   4.786  18.944  0.00  0.00    +0.000 A 
ATOM     17  N   UNL     1       3.485   3.781  19.749  0.00  0.00    +0.000 NA
BRANCH  16  18
ATOM     18  C   UNL     1       4.985   4.434  17.956  0.00  0.00    +0.000 C 
ATOM     19  C   UNL     1       4.565   3.956  16.581  0.00  0.00    +0.000 C 
ATOM     20  C   UNL     1       5.296   5.257  16.732  0.00  0.00    +0.000 C 
ENDBRANCH  16  18
ENDBRANCH   7  14
ENDBRANCH   1   9
BRANCH   5  21
ATOM     21  C   UNL     1      -1.430  11.894  19.337  0.00  0.00    +0.000 C 
ATOM     22  C   UNL     1      -1.622  11.243  17.939  0.00  0.00    +0.000 C 
ATOM     23  O   UNL     1      -2.971  11.773  17.843  0.00  0.00    +0.000 OA
ATOM     24  C   UNL     1      -2.982  11.995  19.274  0.00  0.00    +0.000 C 
BRANCH  21  25
ATOM     25  C   UNL     1      -0.810  13.303  19.282  0.00  0.00    +0.000 C 
BRANCH  25  26
ATOM     26  C   UNL     1       0.676  13.346  19.403  0.00  0.00    +0.000 A 
ATOM     27  N   UNL     1       1.451  12.924  18.397  0.00  0.00    +0.000 NA
ATOM     28  O   UNL     1       2.752  13.154  18.800  0.00  0.00    +0.000 OA
ATOM     29  C   UNL     1       2.749  13.713  20.033  0.00  0.00    +0.000 A 
ATOM     30  C   UNL     1       1.457  13.859  20.477  0.00  0.00    +0.000 A 
ATOM     31  C   UNL     1       0.997  14.436  21.759  0.00  0.00    +0.000 C 
ENDBRANCH  25  26
ENDBRANCH  21  25
ENDBRANCH   5  21
TORSDOF 6
ENDMDL
MODEL 5
REMARK VINA RESULT:      -9.0      1.703      2.270
REMARK  Name = 
REMARK  8 active torsions:
REMARK  status: ('A' for Active; 'I' for Inactive)
REMARK    1  A    between atoms: C_1  and  C_2
REMARK    2  A    between atoms: C_4  and  C_5
REMARK    3  A    between atoms: N_7  and  C_8
REMARK    4  A    between atoms: C_12  and  C_13
REMARK    5  A    between atoms: C_13  and  C_14
REMARK    6  A    between atoms: C_14  and  C_15
REMARK    7  A    between atoms: C_19  and  C_20
REMARK    8  A    between atoms: C_26  and  C_27
REMARK                            x       y       z     vdW  Elec       q    Type
REMARK                         _______ _______ _______ _____ _____    ______ ____
ROOT
ATOM      1  C   UNL     1       2.964   6.297  19.308  0.00  0.00    +0.000 A 
ATOM      2  C   UNL     1       2.607   5.029  19.760  0.00  0.00    +0.000 A 
ATOM      3  C   UNL     1       3.527   3.984  19.729  0.00  0.00    +0.000 A 
ATOM      4  C   UNL     1       4.820   4.204  19.264  0.00  0.00    +0.000 A 
ATOM      5  C   UNL     1       5.235   5.461  18.777  0.00  0.00    +0.000 A 
ATOM      6  C   UNL     1       4.256   6.488  18.789  0.00  0.00    +0.000 A 
ENDROOT
BRANCH   1   9
ATOM      7  C   UNL     1       2.005   8.409  18.403  0.00  0.00    +0.000 C 
ATOM      8  O   UNL     1       2.644   8.470  17.354  0.00  0.00    +0.000 OA
ATOM      9  N   UNL     1       2.093   7.409  19.357  0.00  0.00    +0.000 N 
ATOM     10  H   UNL     1       1.401   7.454  20.101  0.00  0.00    +0.000 HD
BRANCH   7  14
ATOM     11  C   UNL     1      -2.209  10.787  17.312  0.00  0.00    +0.000 C 
ATOM     12  C   UNL     1      -0.978  10.579  18.138  0.00  0.00    +0.000 A 
ATOM     13  C   UNL     1      -0.093   9.575  17.855  0.00  0.00    +0.000 A 
ATOM     14  C   UNL     1       1.003   9.486  18.687  0.00  0.00    +0.000 A 
ATOM     15  N   UNL     1       1.235  10.304  19.742  0.00  0.00    +0.000 NA
ATOM     16  C   UNL     1       0.308  11.262  19.952  0.00  0.00    +0.000 A 
ATOM     17  N   UNL     1      -0.786  11.418  19.172  0.00  0.00    +0.000 NA
BRANCH  16  18
ATOM     18  C   UNL     1       0.441  12.228  21.103  0.00  0.00    +0.000 C 
ATOM     19  C   UNL     1       1.221  13.505  20.872  0.00  0.00    +0.000 C 
ATOM     20  C   UNL     1      -0.250  13.566  21.153  0.00  0.00    +0.000 C 
ENDBRANCH  16  18
ENDBRANCH   7  14
ENDBRANCH   1   9
BRANCH   5  21
ATOM     21  C   UNL     1       6.750   5.702  18.283  0.00  0.00    +0.000 C 
ATOM     22  C   UNL     1       7.198   7.119  17.827  0.00  0.00    +0.000 C 
ATOM     23  O   UNL     1       8.385   7.047  18.662  0.00  0.00    +0.000 OA
ATOM     24  C   UNL     1       7.783   5.967  19.417  0.00  0.00    +0.000 C 
BRANCH  21  25
ATOM     25  C   UNL     1       7.254   4.570  17.368  0.00  0.00    +0.000 C 
BRANCH  25  26
ATOM     26  C   UNL     1       6.846   4.682  15.938  0.00  0.00    +0.000 A 
ATOM     27  N   UNL     1       7.664   5.247  15.041  0.00  0.00    +0.000 NA
ATOM     28  O   UNL     1       7.023   5.138  13.823  0.00  0.00    +0.000 OA
ATOM     29  C   UNL     1       5.837   4.507  13.994  0.00  0.00    +0.000 A 
ATOM     30  C   UNL     1       5.661   4.194  15.320  0.00  0.00    +0.000 A 
ATOM     31  C   UNL     1       4.517   3.493  15.943  0.00  0.00    +0.000 C 
ENDBRANCH  25  26
ENDBRANCH  21  25
ENDBRANCH   5  21
TORSDOF 6
ENDMDL
MODEL 6
REMARK VINA RESULT:      -9.0      1.456      3.456
REMARK  Name = 
REMARK  8 active torsions:
REMARK  status: ('A' for Active; 'I' for Inactive)
REMARK    1  A    between atoms: C_1  and  C_2
REMARK    2  A    between atoms: C_4  and  C_5
REMARK    3  A    between atoms: N_7  and  C_8
REMARK    4  A    between atoms: C_12  and  C_13
REMARK    5  A    between atoms: C_13  and  C_14
REMARK    6  A    between atoms: C_14  and  C_15
REMARK    7  A    between atoms: C_19  and  C_20
REMARK    8  A    between atoms: C_26  and  C_27
REMARK                            x       y       z     vdW  Elec       q    Type
REMARK                         _______ _______ _______ _____ _____    ______ ____
ROOT
ATOM      1  C   UNL     1       2.617   5.358  18.486  0.00  0.00    +0.000 A 
ATOM      2  C   UNL     1       2.069   4.100  18.717  0.00  0.00    +0.000 A 
ATOM      3  C   UNL     1       2.627   2.967  18.131  0.00  0.00    +0.000 A 
ATOM      4  C   UNL     1       3.754   3.082  17.322  0.00  0.00    +0.000 A 
ATOM      5  C   UNL     1       4.344   4.331  17.036  0.00  0.00    +0.000 A 
ATOM      6  C   UNL     1       3.721   5.464  17.621  0.00  0.00    +0.000 A 
ENDROOT
BRANCH   1   9
ATOM      7  C   UNL     1       2.165   7.807  18.530  0.00  0.00    +0.000 C 
ATOM      8  O   UNL     1       2.600   8.097  17.417  0.00  0.00    +0.000 OA
ATOM      9  N   UNL     1       2.127   6.540  19.088  0.00  0.00    +0.000 N 
ATOM     10  H   UNL     1       1.619   6.465  19.965  0.00  0.00    +0.000 HD
BRANCH   7  14
ATOM     11  C   UNL     1       0.393   9.449  22.863  0.00  0.00    +0.000 C 
ATOM     12  C   UNL     1       0.753   9.631  21.421  0.00  0.00    +0.000 A 
ATOM     13  C   UNL     1       1.296   8.610  20.689  0.00  0.00    +0.000 A 
ATOM     14  C   UNL     1       1.582   8.900  19.372  0.00  0.00    +0.000 A 
ATOM     15  N   UNL     1       1.374  10.105  18.787  0.00  0.00    +0.000 NA
ATOM     16  C   UNL     1       0.840  11.055  19.584  0.00  0.00    +0.000 A 
ATOM     17  N   UNL     1       0.523  10.842  20.882  0.00  0.00    +0.000 NA
BRANCH  16  18
ATOM     18  C   UNL     1       0.573  12.444  19.059  0.00  0.00    +0.000 C 
ATOM     19  C   UNL     1      -0.739  12.692  18.344  0.00  0.00    +0.000 C 
ATOM     20  C   UNL     1      -0.455  13.375  19.649  0.00  0.00    +0.000 C 
ENDBRANCH  16  18
ENDBRANCH   7  14
ENDBRANCH   1   9
BRANCH   5  21
ATOM     21  C   UNL     1       5.674   4.434  16.131  0.00  0.00    +0.000 C 
ATOM     22  C   UNL     1       5.800   3.575  14.841  0.00  0.00    +0.000 C 
ATOM     23  O   UNL     1       6.214   4.735  14.072  0.00  0.00    +0.000 OA
ATOM     24  C   UNL     1       5.688   5.604  15.105  0.00  0.00    +0.000 C 
BRANCH  21  25
ATOM     25  C   UNL     1       6.958   4.464  16.980  0.00  0.00    +0.000 C 
BRANCH  25  26
ATOM     26  C   UNL     1       7.427   5.824  17.373  0.00  0.00    +0.000 A 
ATOM     27  N   UNL     1       7.494   6.806  16.467  0.00  0.00    +0.000 NA
ATOM     28  O   UNL     1       7.899   7.932  17.158  0.00  0.00    +0.000 OA
ATOM     29  C   UNL     1       8.064   7.621  18.465  0.00  0.00    +0.000 A 
ATOM     30  C   UNL     1       7.784   6.292  18.669  0.00  0.00    +0.000 A 
ATOM     31  C   UNL     1       7.824   5.540  19.943  0.00  0.00    +0.000 C 
ENDBRANCH  25  26
ENDBRANCH  21  25
ENDBRANCH   5  21
TORSDOF 6
ENDMDL
MODEL 7
REMARK VINA RESULT:      -9.0      3.221      9.397
REMARK  Name = 
REMARK  8 active torsions:
REMARK  status: ('A' for Active; 'I' for Inactive)
REMARK    1  A    between atoms: C_1  and  C_2
REMARK    2  A    between atoms: C_4  and  C_5
REMARK    3  A    between atoms: N_7  and  C_8
REMARK    4  A    between atoms: C_12  and  C_13
REMARK    5  A    between atoms: C_13  and  C_14
REMARK    6  A    between atoms: C_14  and  C_15
REMARK    7  A    between atoms: C_19  and  C_20
REMARK    8  A    between atoms: C_26  and  C_27
REMARK                            x       y       z     vdW  Elec       q    Type
REMARK                         _______ _______ _______ _____ _____    ______ ____
ROOT
ATOM      1  C   UNL     1       0.696   9.080  21.758  0.00  0.00    +0.000 A 
ATOM      2  C   UNL     1      -0.256   9.115  22.772  0.00  0.00    +0.000 A 
ATOM      3  C   UNL     1      -0.904  10.305  23.092  0.00  0.00    +0.000 A 
ATOM      4  C   UNL     1      -0.618  11.469  22.385  0.00  0.00    +0.000 A 
ATOM      5  C   UNL     1       0.350  11.501  21.360  0.00  0.00    +0.000 A 
ATOM      6  C   UNL     1       1.015  10.276  21.091  0.00  0.00    +0.000 A 
ENDROOT
BRANCH   1   9
ATOM      7  C   UNL     1       1.827   7.629  20.079  0.00  0.00    +0.000 C 
ATOM      8  O   UNL     1       1.780   8.389  19.114  0.00  0.00    +0.000 OA
ATOM      9  N   UNL     1       1.353   7.896  21.353  0.00  0.00    +0.000 N 
ATOM     10  H   UNL     1       1.589   7.204  22.059  0.00  0.00    +0.000 HD
BRANCH   7  14
ATOM     11  C   UNL     1       2.357   2.865  21.354  0.00  0.00    +0.000 C 
ATOM     12  C   UNL     1       2.709   4.066  20.533  0.00  0.00    +0.000 A 
ATOM     13  C   UNL     1       2.073   5.264  20.717  0.00  0.00    +0.000 A 
ATOM     14  C   UNL     1       2.487   6.297  19.901  0.00  0.00    +0.000 A 
ATOM     15  N   UNL     1       3.446   6.187  18.951  0.00  0.00    +0.000 NA
ATOM     16  C   UNL     1       4.015   4.969  18.834  0.00  0.00    +0.000 A 
ATOM     17  N   UNL     1       3.671   3.913  19.605  0.00  0.00    +0.000 NA
BRANCH  16  18
ATOM     18  C   UNL     1       5.087   4.712  17.803  0.00  0.00    +0.000 C 
ATOM     19  C   UNL     1       4.681   4.034  16.511  0.00  0.00    +0.000 C 
ATOM     20  C   UNL     1       5.176   5.449  16.492  0.00  0.00    +0.000 C 
ENDBRANCH  16  18
ENDBRANCH   7  14
ENDBRANCH   1   9
BRANCH   5  21
ATOM     21  C   UNL     1       0.633  12.851  20.526  0.00  0.00    +0.000 C 
ATOM     22  C   UNL     1       0.464  14.235  21.214  0.00  0.00    +0.000 C 
ATOM     23  O   UNL     1       1.759  14.672  20.724  0.00  0.00    +0.000 OA
ATOM     24  C   UNL     1       2.125  13.294  20.469  0.00  0.00    +0.000 C 
BRANCH  21  25
ATOM     25  C   UNL     1       0.048  12.794  19.103  0.00  0.00    +0.000 C 
BRANCH  25  26
ATOM     26  C   UNL     1      -1.344  12.267  19.010  0.00  0.00    +0.000 A 
ATOM     27  N   UNL     1      -2.368  12.964  19.517  0.00  0.00    +0.000 NA
ATOM     28  O   UNL     1      -3.505  12.239  19.214  0.00  0.00    +0.000 OA
ATOM     29  C   UNL     1      -3.158  11.125  18.529  0.00  0.00    +0.000 A 
ATOM     30  C   UNL     1      -1.794  11.079  18.368  0.00  0.00    +0.000 A 
ATOM     31  C   UNL     1      -0.996  10.048  17.671  0.00  0.00    +0.000 C 
ENDBRANCH  25  26
ENDBRANCH  21  25
ENDBRANCH   5  21
TORSDOF 6
ENDMDL
MODEL 8
REMARK VINA RESULT:      -9.0      1.533      3.713
REMARK  Name = 
REMARK  8 active torsions:
REMARK  status: ('A' for Active; 'I' for Inactive)
REMARK    1  A    between atoms: C_1  and  C_2
REMARK    2  A    between atoms: C_4  and  C_5
REMARK    3  A    between atoms: N_7  and  C_8
REMARK    4  A    between atoms: C_12  and  C_13
REMARK    5  A    between atoms: C_13  and  C_14
REMARK    6  A    between atoms: C_14  and  C_15
REMARK    7  A    between atoms: C_19  and  C_20
REMARK    8  A    between atoms: C_26  and  C_27
REMARK                            x       y       z     vdW  Elec       q    Type
REMARK                         _______ _______ _______ _____ _____    ______ ____
ROOT
ATOM      1  C   UNL     1       2.508   5.753  18.367  0.00  0.00    +0.000 A 
ATOM      2  C   UNL     1       1.853   4.529  18.463  0.00  0.00    +0.000 A 
ATOM      3  C   UNL     1       2.323   3.419  17.765  0.00  0.00    +0.000 A 
ATOM      4  C   UNL     1       3.465   3.522  16.977  0.00  0.00    +0.000 A 
ATOM      5  C   UNL     1       4.161   4.738  16.825  0.00  0.00    +0.000 A 
ATOM      6  C   UNL     1       3.627   5.853  17.522  0.00  0.00    +0.000 A 
ENDROOT
BRANCH   1   9
ATOM      7  C   UNL     1       1.885   8.157  18.546  0.00  0.00    +0.000 C 
ATOM      8  O   UNL     1       1.963   8.459  17.356  0.00  0.00    +0.000 OA
ATOM      9  N   UNL     1       2.110   6.903  19.087  0.00  0.00    +0.000 N 
ATOM     10  H   UNL     1       1.878   6.805  20.072  0.00  0.00    +0.000 HD
BRANCH   7  14
ATOM     11  C   UNL     1       0.300   9.506  23.048  0.00  0.00    +0.000 C 
ATOM     12  C   UNL     1       0.724   9.809  21.645  0.00  0.00    +0.000 A 
ATOM     13  C   UNL     1       1.106   8.813  20.787  0.00  0.00    +0.000 A 
ATOM     14  C   UNL     1       1.473   9.217  19.521  0.00  0.00    +0.000 A 
ATOM     15  N   UNL     1       1.489  10.505  19.100  0.00  0.00    +0.000 NA
ATOM     16  C   UNL     1       1.103  11.421  20.012  0.00  0.00    +0.000 A 
ATOM     17  N   UNL     1       0.718  11.101  21.269  0.00  0.00    +0.000 NA
BRANCH  16  18
ATOM     18  C   UNL     1       1.089  12.892  19.673  0.00  0.00    +0.000 C 
ATOM     19  C   UNL     1       1.726  13.326  18.369  0.00  0.00    +0.000 C 
ATOM     20  C   UNL     1       0.249  13.486  18.572  0.00  0.00    +0.000 C 
ENDBRANCH  16  18
ENDBRANCH   7  14
ENDBRANCH   1   9
BRANCH   5  21
ATOM     21  C   UNL     1       5.506   4.822  15.941  0.00  0.00    +0.000 C 
ATOM     22  C   UNL     1       6.324   3.531  15.654  0.00  0.00    +0.000 C 
ATOM     23  O   UNL     1       6.390   3.851  14.238  0.00  0.00    +0.000 OA
ATOM     24  C   UNL     1       5.290   4.780  14.400  0.00  0.00    +0.000 C 
BRANCH  21  25
ATOM     25  C   UNL     1       6.379   6.034  16.317  0.00  0.00    +0.000 C 
BRANCH  25  26
ATOM     26  C   UNL     1       7.072   5.933  17.633  0.00  0.00    +0.000 A 
ATOM     27  N   UNL     1       7.091   4.774  18.303  0.00  0.00    +0.000 NA
ATOM     28  O   UNL     1       7.854   5.002  19.431  0.00  0.00    +0.000 OA
ATOM     29  C   UNL     1       8.289   6.284  19.428  0.00  0.00    +0.000 A 
ATOM     30  C   UNL     1       7.823   6.934  18.312  0.00  0.00    +0.000 A 
ATOM     31  C   UNL     1       8.069   8.335  17.908  0.00  0.00    +0.000 C 
ENDBRANCH  25  26
ENDBRANCH  21  25
ENDBRANCH   5  21
TORSDOF 6
ENDMDL
MODEL 9
REMARK VINA RESULT:      -8.9      2.848      9.431
REMARK  Name = 
REMARK  8 active torsions:
REMARK  status: ('A' for Active; 'I' for Inactive)
REMARK    1  A    between atoms: C_1  and  C_2
REMARK    2  A    between atoms: C_4  and  C_5
REMARK    3  A    between atoms: N_7  and  C_8
REMARK    4  A    between atoms: C_12  and  C_13
REMARK    5  A    between atoms: C_13  and  C_14
REMARK    6  A    between atoms: C_14  and  C_15
REMARK    7  A    between atoms: C_19  and  C_20
REMARK    8  A    between atoms: C_26  and  C_27
REMARK                            x       y       z     vdW  Elec       q    Type
REMARK                         _______ _______ _______ _____ _____    ______ ____
ROOT
ATOM      1  C   UNL     1       1.061   8.995  20.213  0.00  0.00    +0.000 A 
ATOM      2  C   UNL     1       1.058   9.260  21.579  0.00  0.00    +0.000 A 
ATOM      3  C   UNL     1       0.265  10.279  22.100  0.00  0.00    +0.000 A 
ATOM      4  C   UNL     1      -0.548  11.032  21.257  0.00  0.00    +0.000 A 
ATOM      5  C   UNL     1      -0.574  10.824  19.863  0.00  0.00    +0.000 A 
ATOM      6  C   UNL     1       0.277   9.802  19.369  0.00  0.00    +0.000 A 
ENDROOT
BRANCH   1   9
ATOM      7  C   UNL     1       2.342   7.947  18.352  0.00  0.00    +0.000 C 
ATOM      8  O   UNL     1       2.284   8.870  17.542  0.00  0.00    +0.000 OA
ATOM      9  N   UNL     1       1.805   7.945  19.629  0.00  0.00    +0.000 N 
ATOM     10  H   UNL     1       2.058   7.147  20.206  0.00  0.00    +0.000 HD
BRANCH   7  14
ATOM     11  C   UNL     1       2.483   3.051  17.569  0.00  0.00    +0.000 C 
ATOM     12  C   UNL     1       3.116   4.407  17.611  0.00  0.00    +0.000 A 
ATOM     13  C   UNL     1       2.395   5.518  17.959  0.00  0.00    +0.000 A 
ATOM     14  C   UNL     1       3.090   6.709  17.964  0.00  0.00    +0.000 A 
ATOM     15  N   UNL     1       4.400   6.836  17.640  0.00  0.00    +0.000 NA
ATOM     16  C   UNL     1       5.030   5.691  17.304  0.00  0.00    +0.000 A 
ATOM     17  N   UNL     1       4.420   4.484  17.288  0.00  0.00    +0.000 NA
BRANCH  16  18
ATOM     18  C   UNL     1       6.487   5.699  16.909  0.00  0.00    +0.000 C 
ATOM     19  C   UNL     1       7.491   6.239  17.906  0.00  0.00    +0.000 C 
ATOM     20  C   UNL     1       7.522   4.790  17.522  0.00  0.00    +0.000 C 
ENDBRANCH  16  18
ENDBRANCH   7  14
ENDBRANCH   1   9
BRANCH   5  21
ATOM     21  C   UNL     1      -1.556  11.680  18.913  0.00  0.00    +0.000 C 
ATOM     22  C   UNL     1      -2.616  10.951  18.040  0.00  0.00    +0.000 C 
ATOM     23  O   UNL     1      -3.657  11.858  18.492  0.00  0.00    +0.000 OA
ATOM     24  C   UNL     1      -2.824  12.249  19.612  0.00  0.00    +0.000 C 
BRANCH  21  25
ATOM     25  C   UNL     1      -0.815  12.808  18.171  0.00  0.00    +0.000 C 
BRANCH  25  26
ATOM     26  C   UNL     1       0.160  13.577  18.997  0.00  0.00    +0.000 A 
ATOM     27  N   UNL     1      -0.270  14.449  19.917  0.00  0.00    +0.000 NA
ATOM     28  O   UNL     1       0.865  14.936  20.536  0.00  0.00    +0.000 OA
ATOM     29  C   UNL     1       1.958  14.353  19.992  0.00  0.00    +0.000 A 
ATOM     30  C   UNL     1       1.580  13.479  19.002  0.00  0.00    +0.000 A 
ATOM     31  C   UNL     1       2.449  12.626  18.163  0.00  0.00    +0.000 C 
ENDBRANCH  25  26
ENDBRANCH  21  25
ENDBRANCH   5  21
TORSDOF 6
ENDMDL
