MODEL 1
REMARK VINA RESULT:      -8.5      0.000      0.000
REMARK  Name = 
REMARK  10 active torsions:
REMARK  status: ('A' for Active; 'I' for Inactive)
REMARK    1  A    between atoms: C_1  and  C_2
REMARK    2  A    between atoms: C_2  and  C_3
REMARK    3  A    between atoms: C_2  and  C_10
REMARK    4  A    between atoms: C_3  and  C_4
REMARK    5  A    between atoms: N_8  and  C_9
REMARK    6  A    between atoms: C_14  and  N_15
REMARK    7  A    between atoms: C_16  and  C_18
REMARK    8  A    between atoms: C_20  and  O_21
REMARK    9  A    between atoms: O_21  and  C_22
REMARK   10  A    between atoms: C_25  and  O_26
REMARK                            x       y       z     vdW  Elec       q    Type
REMARK                         _______ _______ _______ _____ _____    ______ ____
ROOT
ATOM      1  N   UNL     1       0.944   7.643  21.070  0.00  0.00    +0.000 N 
ATOM      2  C   UNL     1       1.826   7.376  20.037  0.00  0.00    +0.000 C 
ATOM      3  O   UNL     1       2.254   8.187  19.216  0.00  0.00    +0.000 OA
ATOM      4  H   UNL     1       0.786   6.875  21.715  0.00  0.00    +0.000 HD
ENDROOT
BRANCH   1   9
ATOM      5  C   UNL     1      -0.668  10.950  20.431  0.00  0.00    +0.000 A 
ATOM      6  C   UNL     1      -0.923  11.368  21.745  0.00  0.00    +0.000 A 
ATOM      7  C   UNL     1      -0.553  10.578  22.828  0.00  0.00    +0.000 A 
ATOM      8  C   UNL     1       0.067   9.348  22.616  0.00  0.00    +0.000 A 
ATOM      9  C   UNL     1       0.322   8.882  21.324  0.00  0.00    +0.000 A 
ATOM     10  C   UNL     1      -0.037   9.698  20.239  0.00  0.00    +0.000 A 
BRANCH   5  12
ATOM     11  C   UNL     1      -0.583  13.285  19.355  0.00  0.00    +0.000 C 
ATOM     12  C   UNL     1      -1.027  11.815  19.218  0.00  0.00    +0.000 C 
BRANCH  12  13
ATOM     13  C   UNL     1      -2.540  11.718  18.918  0.00  0.00    +0.000 C 
BRANCH  13  14
ATOM     14  C   UNL     1      -2.824  11.196  17.549  0.00  0.00    +0.000 A 
ATOM     15  N   UNL     1      -1.978  10.564  16.761  0.00  0.00    +0.000 NA
ATOM     16  N   UNL     1      -2.619  10.289  15.576  0.00  0.00    +0.000 NA
ATOM     17  C   UNL     1      -3.843  10.750  15.669  0.00  0.00    +0.000 A 
ATOM     18  N   UNL     1      -4.019  11.324  16.889  0.00  0.00    +0.000 N 
ATOM     19  C   UNL     1      -5.221  11.947  17.371  0.00  0.00    +0.000 C 
ENDBRANCH  13  14
ENDBRANCH  12  13
ENDBRANCH   5  12
ENDBRANCH   1   9
BRANCH   2  20
ATOM     20  C   UNL     1       2.341   5.976  19.973  0.00  0.00    +0.000 A 
ATOM     21  C   UNL     1       3.512   5.758  19.258  0.00  0.00    +0.000 A 
ATOM     22  C   UNL     1       4.120   4.515  19.342  0.00  0.00    +0.000 A 
ATOM     23  C   UNL     1       3.466   3.495  20.022  0.00  0.00    +0.000 A 
ATOM     24  C   UNL     1       2.269   3.789  20.663  0.00  0.00    +0.000 A 
ATOM     25  N   UNL     1       1.696   5.017  20.685  0.00  0.00    +0.000 NA
BRANCH  22  26
ATOM     26  O   UNL     1       5.364   4.227  18.836  0.00  0.00    +0.000 OA
BRANCH  26  27
ATOM     27  C   UNL     1       5.646   4.799  17.557  0.00  0.00    +0.000 C 
ATOM     28  C   UNL     1       7.142   4.845  17.225  0.00  0.00    +0.000 C 
ATOM     29  C   UNL     1       7.170   5.075  15.722  0.00  0.00    +0.000 C 
ATOM     30  C   UNL     1       5.886   4.425  15.200  0.00  0.00    +0.000 C 
ATOM     31  C   UNL     1       5.137   3.905  16.430  0.00  0.00    +0.000 C 
BRANCH  30  32
ATOM     32  O   UNL     1       6.174   3.373  14.295  0.00  0.00    +0.000 OA
ATOM     33  H   UNL     1       6.081   3.715  13.389  0.00  0.00    +0.000 HD
ENDBRANCH  30  32
ENDBRANCH  26  27
ENDBRANCH  22  26
ENDBRANCH   2  20
TORSDOF 8
ENDMDL
MODEL 2
REMARK VINA RESULT:      -8.3      7.547      9.857
REMARK  Name = 
REMARK  10 active torsions:
REMARK  status: ('A' for Active; 'I' for Inactive)
REMARK    1  A    between atoms: C_1  and  C_2
REMARK    2  A    between atoms: C_2  and  C_3
REMARK    3  A    between atoms: C_2  and  C_10
REMARK    4  A    between atoms: C_3  and  C_4
REMARK    5  A    between atoms: N_8  and  C_9
REMARK    6  A    between atoms: C_14  and  N_15
REMARK    7  A    between atoms: C_16  and  C_18
REMARK    8  A    between atoms: C_20  and  O_21
REMARK    9  A    between atoms: O_21  and  C_22
REMARK   10  A    between atoms: C_25  and  O_26
REMARK                            x       y       z     vdW  Elec       q    Type
REMARK                         _______ _______ _______ _____ _____    ______ ____
ROOT
ATOM      1  N   UNL     1       7.799   8.743  17.760  0.00  0.00    +0.000 N 
ATOM      2  C   UNL     1       7.849   7.404  18.104  0.00  0.00    +0.000 C 
ATOM      3  O   UNL     1       8.511   6.910  19.017  0.00  0.00    +0.000 OA
ATOM      4  H   UNL     1       7.114   8.984  17.050  0.00  0.00    +0.000 HD
ENDROOT
BRANCH   1   9
ATOM      5  C   UNL     1       9.569  12.008  18.150  0.00  0.00    +0.000 A 
ATOM      6  C   UNL     1      10.053  11.880  19.459  0.00  0.00    +0.000 A 
ATOM      7  C   UNL     1       9.815  10.727  20.199  0.00  0.00    +0.000 A 
ATOM      8  C   UNL     1       9.074   9.684  19.646  0.00  0.00    +0.000 A 
ATOM      9  C   UNL     1       8.555   9.775  18.352  0.00  0.00    +0.000 A 
ATOM     10  C   UNL     1       8.820  10.936  17.608  0.00  0.00    +0.000 A 
BRANCH   5  12
ATOM     11  C   UNL     1      11.322  13.377  16.857  0.00  0.00    +0.000 C 
ATOM     12  C   UNL     1       9.849  13.249  17.296  0.00  0.00    +0.000 C 
BRANCH  12  13
ATOM     13  C   UNL     1       9.377  14.524  18.031  0.00  0.00    +0.000 C 
BRANCH  13  14
ATOM     14  C   UNL     1      10.348  15.651  17.913  0.00  0.00    +0.000 A 
ATOM     15  N   UNL     1      10.446  16.498  16.908  0.00  0.00    +0.000 NA
ATOM     16  N   UNL     1      11.490  17.355  17.169  0.00  0.00    +0.000 NA
ATOM     17  C   UNL     1      12.001  17.018  18.329  0.00  0.00    +0.000 A 
ATOM     18  N   UNL     1      11.315  15.958  18.834  0.00  0.00    +0.000 N 
ATOM     19  C   UNL     1      11.574  15.295  20.084  0.00  0.00    +0.000 C 
ENDBRANCH  13  14
ENDBRANCH  12  13
ENDBRANCH   5  12
ENDBRANCH   1   9
BRANCH   2  20
ATOM     20  C   UNL     1       6.956   6.501  17.319  0.00  0.00    +0.000 A 
ATOM     21  C   UNL     1       5.682   6.266  17.821  0.00  0.00    +0.000 A 
ATOM     22  C   UNL     1       4.766   5.597  17.024  0.00  0.00    +0.000 A 
ATOM     23  C   UNL     1       5.195   5.066  15.814  0.00  0.00    +0.000 A 
ATOM     24  C   UNL     1       6.505   5.303  15.415  0.00  0.00    +0.000 A 
ATOM     25  N   UNL     1       7.398   6.036  16.122  0.00  0.00    +0.000 NA
BRANCH  22  26
ATOM     26  O   UNL     1       3.434   5.462  17.324  0.00  0.00    +0.000 OA
BRANCH  26  27
ATOM     27  C   UNL     1       2.999   4.121  17.567  0.00  0.00    +0.000 C 
ATOM     28  C   UNL     1       3.647   3.483  18.800  0.00  0.00    +0.000 C 
ATOM     29  C   UNL     1       2.756   2.286  19.096  0.00  0.00    +0.000 C 
ATOM     30  C   UNL     1       1.368   2.696  18.597  0.00  0.00    +0.000 C 
ATOM     31  C   UNL     1       1.529   4.085  17.973  0.00  0.00    +0.000 C 
BRANCH  30  32
ATOM     32  O   UNL     1       0.427   2.717  19.656  0.00  0.00    +0.000 OA
ATOM     33  H   UNL     1       0.914   2.680  20.498  0.00  0.00    +0.000 HD
ENDBRANCH  30  32
ENDBRANCH  26  27
ENDBRANCH  22  26
ENDBRANCH   2  20
TORSDOF 8
ENDMDL
MODEL 3
REMARK VINA RESULT:      -8.3      2.098      2.904
REMARK  Name = 
REMARK  10 active torsions:
REMARK  status: ('A' for Active; 'I' for Inactive)
REMARK    1  A    between atoms: C_1  and  C_2
REMARK    2  A    between atoms: C_2  and  C_3
REMARK    3  A    between atoms: C_2  and  C_10
REMARK    4  A    between atoms: C_3  and  C_4
REMARK    5  A    between atoms: N_8  and  C_9
REMARK    6  A    between atoms: C_14  and  N_15
REMARK    7  A    between atoms: C_16  and  C_18
REMARK    8  A    between atoms: C_20  and  O_21
REMARK    9  A    between atoms: O_21  and  C_22
REMARK   10  A    between atoms: C_25  and  O_26
REMARK                            x       y       z     vdW  Elec       q    Type
REMARK                         _______ _______ _______ _____ _____    ______ ____
ROOT
ATOM      1  N   UNL     1       2.118   8.797  17.778  0.00  0.00    +0.000 N 
ATOM      2  C   UNL     1       2.343   7.778  18.687  0.00  0.00    +0.000 C 
ATOM      3  O   UNL     1       2.082   7.803  19.889  0.00  0.00    +0.000 OA
ATOM      4  H   UNL     1       2.294   8.560  16.807  0.00  0.00    +0.000 HD
ENDROOT
BRANCH   1   9
ATOM      5  C   UNL     1      -0.336  11.502  18.552  0.00  0.00    +0.000 A 
ATOM      6  C   UNL     1       0.527  12.597  18.695  0.00  0.00    +0.000 A 
ATOM      7  C   UNL     1       1.899  12.451  18.522  0.00  0.00    +0.000 A 
ATOM      8  C   UNL     1       2.434  11.201  18.216  0.00  0.00    +0.000 A 
ATOM      9  C   UNL     1       1.613  10.078  18.083  0.00  0.00    +0.000 A 
ATOM     10  C   UNL     1       0.228  10.243  18.240  0.00  0.00    +0.000 A 
BRANCH   5  12
ATOM     11  C   UNL     1      -2.306  12.062  20.110  0.00  0.00    +0.000 C 
ATOM     12  C   UNL     1      -1.856  11.640  18.697  0.00  0.00    +0.000 C 
BRANCH  12  13
ATOM     13  C   UNL     1      -2.558  10.335  18.258  0.00  0.00    +0.000 C 
BRANCH  13  14
ATOM     14  C   UNL     1      -2.929  10.338  16.812  0.00  0.00    +0.000 A 
ATOM     15  N   UNL     1      -2.262   9.764  15.832  0.00  0.00    +0.000 NA
ATOM     16  N   UNL     1      -2.914  10.035  14.652  0.00  0.00    +0.000 NA
ATOM     17  C   UNL     1      -3.968  10.761  14.938  0.00  0.00    +0.000 A 
ATOM     18  N   UNL     1      -4.021  10.974  16.280  0.00  0.00    +0.000 N 
ATOM     19  C   UNL     1      -5.023  11.726  16.984  0.00  0.00    +0.000 C 
ENDBRANCH  13  14
ENDBRANCH  12  13
ENDBRANCH   5  12
ENDBRANCH   1   9
BRANCH   2  20
ATOM     20  C   UNL     1       2.896   6.514  18.116  0.00  0.00    +0.000 A 
ATOM     21  C   UNL     1       3.959   6.625  17.229  0.00  0.00    +0.000 A 
ATOM     22  C   UNL     1       4.620   5.471  16.836  0.00  0.00    +0.000 A 
ATOM     23  C   UNL     1       4.110   4.241  17.231  0.00  0.00    +0.000 A 
ATOM     24  C   UNL     1       3.007   4.223  18.076  0.00  0.00    +0.000 A 
ATOM     25  N   UNL     1       2.397   5.332  18.560  0.00  0.00    +0.000 NA
BRANCH  22  26
ATOM     26  O   UNL     1       5.787   5.457  16.114  0.00  0.00    +0.000 OA
BRANCH  26  27
ATOM     27  C   UNL     1       6.972   5.719  16.870  0.00  0.00    +0.000 C 
ATOM     28  C   UNL     1       7.032   7.141  17.438  0.00  0.00    +0.000 C 
ATOM     29  C   UNL     1       8.108   7.056  18.509  0.00  0.00    +0.000 C 
ATOM     30  C   UNL     1       8.053   5.609  19.008  0.00  0.00    +0.000 C 
ATOM     31  C   UNL     1       6.994   4.902  18.159  0.00  0.00    +0.000 C 
BRANCH  30  32
ATOM     32  O   UNL     1       7.725   5.553  20.385  0.00  0.00    +0.000 OA
ATOM     33  H   UNL     1       6.947   4.978  20.491  0.00  0.00    +0.000 HD
ENDBRANCH  30  32
ENDBRANCH  26  27
ENDBRANCH  22  26
ENDBRANCH   2  20
TORSDOF 8
ENDMDL
MODEL 4
REMARK VINA RESULT:      -8.3      3.132      9.100
REMARK  Name = 
REMARK  10 active torsions:
REMARK  status: ('A' for Active; 'I' for Inactive)
REMARK    1  A    between atoms: C_1  and  C_2
REMARK    2  A    between atoms: C_2  and  C_3
REMARK    3  A    between atoms: C_2  and  C_10
REMARK    4  A    between atoms: C_3  and  C_4
REMARK    5  A    between atoms: N_8  and  C_9
REMARK    6  A    between atoms: C_14  and  N_15
REMARK    7  A    between atoms: C_16  and  C_18
REMARK    8  A    between atoms: C_20  and  O_21
REMARK    9  A    between atoms: O_21  and  C_22
REMARK   10  A    between atoms: C_25  and  O_26
REMARK                            x       y       z     vdW  Elec       q    Type
REMARK                         _______ _______ _______ _____ _____    ______ ____
ROOT
ATOM      1  N   UNL     1       2.718   6.475  20.177  0.00  0.00    +0.000 N 
ATOM      2  C   UNL     1       2.233   7.555  19.460  0.00  0.00    +0.000 C 
ATOM      3  O   UNL     1       2.389   7.760  18.257  0.00  0.00    +0.000 OA
ATOM      4  H   UNL     1       2.399   6.414  21.139  0.00  0.00    +0.000 HD
ENDROOT
BRANCH   1   9
ATOM      5  C   UNL     1       5.766   4.734  18.902  0.00  0.00    +0.000 A 
ATOM      6  C   UNL     1       5.244   3.457  18.652  0.00  0.00    +0.000 A 
ATOM      7  C   UNL     1       3.902   3.177  18.885  0.00  0.00    +0.000 A 
ATOM      8  C   UNL     1       3.059   4.167  19.385  0.00  0.00    +0.000 A 
ATOM      9  C   UNL     1       3.539   5.449  19.667  0.00  0.00    +0.000 A 
ATOM     10  C   UNL     1       4.892   5.725  19.409  0.00  0.00    +0.000 A 
BRANCH   5  12
ATOM     11  C   UNL     1       7.973   5.671  19.835  0.00  0.00    +0.000 C 
ATOM     12  C   UNL     1       7.230   5.085  18.618  0.00  0.00    +0.000 C 
BRANCH  12  13
ATOM     13  C   UNL     1       7.330   6.032  17.400  0.00  0.00    +0.000 C 
BRANCH  13  14
ATOM     14  C   UNL     1       6.829   5.406  16.141  0.00  0.00    +0.000 A 
ATOM     15  N   UNL     1       7.407   4.430  15.469  0.00  0.00    +0.000 NA
ATOM     16  N   UNL     1       6.650   4.173  14.350  0.00  0.00    +0.000 NA
ATOM     17  C   UNL     1       5.624   4.990  14.367  0.00  0.00    +0.000 A 
ATOM     18  N   UNL     1       5.692   5.778  15.473  0.00  0.00    +0.000 N 
ATOM     19  C   UNL     1       4.755   6.803  15.846  0.00  0.00    +0.000 C 
ENDBRANCH  13  14
ENDBRANCH  12  13
ENDBRANCH   5  12
ENDBRANCH   1   9
BRANCH   2  20
ATOM     20  C   UNL     1       1.390   8.516  20.232  0.00  0.00    +0.000 A 
ATOM     21  C   UNL     1       0.624   9.420  19.505  0.00  0.00    +0.000 A 
ATOM     22  C   UNL     1      -0.312  10.189  20.179  0.00  0.00    +0.000 A 
ATOM     23  C   UNL     1      -0.353  10.129  21.566  0.00  0.00    +0.000 A 
ATOM     24  C   UNL     1       0.489   9.235  22.215  0.00  0.00    +0.000 A 
ATOM     25  N   UNL     1       1.346   8.397  21.583  0.00  0.00    +0.000 NA
BRANCH  22  26
ATOM     26  O   UNL     1      -1.249  10.981  19.563  0.00  0.00    +0.000 OA
BRANCH  26  27
ATOM     27  C   UNL     1      -1.529  10.644  18.202  0.00  0.00    +0.000 C 
ATOM     28  C   UNL     1      -2.665   9.627  18.046  0.00  0.00    +0.000 C 
ATOM     29  C   UNL     1      -3.056   9.746  16.581  0.00  0.00    +0.000 C 
ATOM     30  C   UNL     1      -2.738  11.196  16.206  0.00  0.00    +0.000 C 
ATOM     31  C   UNL     1      -2.115  11.835  17.450  0.00  0.00    +0.000 C 
BRANCH  30  32
ATOM     32  O   UNL     1      -3.906  11.891  15.806  0.00  0.00    +0.000 OA
ATOM     33  H   UNL     1      -3.975  11.841  14.837  0.00  0.00    +0.000 HD
ENDBRANCH  30  32
ENDBRANCH  26  27
ENDBRANCH  22  26
ENDBRANCH   2  20
TORSDOF 8
ENDMDL
MODEL 5
REMARK VINA RESULT:      -8.2      0.926      1.026
REMARK  Name = 
REMARK  10 active torsions:
REMARK  status: ('A' for Active; 'I' for Inactive)
REMARK    1  A    between atoms: C_1  and  C_2
REMARK    2  A    between atoms: C_2  and  C_3
REMARK    3  A    between atoms: C_2  and  C_10
REMARK    4  A    between atoms: C_3  and  C_4
REMARK    5  A    between atoms: N_8  and  C_9
REMARK    6  A    between atoms: C_14  and  N_15
REMARK    7  A    between atoms: C_16  and  C_18
REMARK    8  A    between atoms: C_20  and  O_21
REMARK    9  A    between atoms: O_21  and  C_22
REMARK   10  A    between atoms: C_25  and  O_26
REMARK                            x       y       z     vdW  Elec       q    Type
REMARK                         _______ _______ _______ _____ _____    ______ ____
ROOT
ATOM      1  N   UNL     1       1.781   7.367  20.663  0.00  0.00    +0.000 N 
ATOM      2  C   UNL     1       2.372   7.069  19.447  0.00  0.00    +0.000 C 
ATOM      3  O   UNL     1       2.403   7.795  18.454  0.00  0.00    +0.000 OA
ATOM      4  H   UNL     1       1.949   6.694  21.404  0.00  0.00    +0.000 HD
ENDROOT
BRANCH   1   9
ATOM      5  C   UNL     1      -0.423  10.339  20.161  0.00  0.00    +0.000 A 
ATOM      6  C   UNL     1      -0.451  10.858  21.463  0.00  0.00    +0.000 A 
ATOM      7  C   UNL     1       0.260  10.247  22.490  0.00  0.00    +0.000 A 
ATOM      8  C   UNL     1       1.003   9.095  22.236  0.00  0.00    +0.000 A 
ATOM      9  C   UNL     1       1.044   8.532  20.958  0.00  0.00    +0.000 A 
ATOM     10  C   UNL     1       0.338   9.170  19.925  0.00  0.00    +0.000 A 
BRANCH   5  12
ATOM     11  C   UNL     1      -1.533  12.484  19.274  0.00  0.00    +0.000 C 
ATOM     12  C   UNL     1      -1.164  11.012  19.001  0.00  0.00    +0.000 C 
BRANCH  12  13
ATOM     13  C   UNL     1      -2.414  10.190  18.612  0.00  0.00    +0.000 C 
BRANCH  13  14
ATOM     14  C   UNL     1      -2.778  10.340  17.173  0.00  0.00    +0.000 A 
ATOM     15  N   UNL     1      -2.132   9.828  16.145  0.00  0.00    +0.000 NA
ATOM     16  N   UNL     1      -2.767  10.233  14.994  0.00  0.00    +0.000 NA
ATOM     17  C   UNL     1      -3.790  10.975  15.344  0.00  0.00    +0.000 A 
ATOM     18  N   UNL     1      -3.839  11.067  16.700  0.00  0.00    +0.000 N 
ATOM     19  C   UNL     1      -4.811  11.796  17.469  0.00  0.00    +0.000 C 
ENDBRANCH  13  14
ENDBRANCH  12  13
ENDBRANCH   5  12
ENDBRANCH   1   9
BRANCH   2  20
ATOM     20  C   UNL     1       3.091   5.762  19.381  0.00  0.00    +0.000 A 
ATOM     21  C   UNL     1       4.134   5.651  18.470  0.00  0.00    +0.000 A 
ATOM     22  C   UNL     1       4.943   4.527  18.521  0.00  0.00    +0.000 A 
ATOM     23  C   UNL     1       4.599   3.493  19.382  0.00  0.00    +0.000 A 
ATOM     24  C   UNL     1       3.505   3.667  20.220  0.00  0.00    +0.000 A 
ATOM     25  N   UNL     1       2.751   4.793  20.269  0.00  0.00    +0.000 NA
BRANCH  22  26
ATOM     26  O   UNL     1       6.106   4.378  17.805  0.00  0.00    +0.000 OA
BRANCH  26  27
ATOM     27  C   UNL     1       6.040   4.808  16.444  0.00  0.00    +0.000 C 
ATOM     28  C   UNL     1       7.414   5.084  15.823  0.00  0.00    +0.000 C 
ATOM     29  C   UNL     1       7.136   5.102  14.328  0.00  0.00    +0.000 C 
ATOM     30  C   UNL     1       5.946   4.158  14.137  0.00  0.00    +0.000 C 
ATOM     31  C   UNL     1       5.543   3.686  15.537  0.00  0.00    +0.000 C 
BRANCH  30  32
ATOM     32  O   UNL     1       6.288   3.062  13.307  0.00  0.00    +0.000 OA
ATOM     33  H   UNL     1       7.050   2.605  13.702  0.00  0.00    +0.000 HD
ENDBRANCH  30  32
ENDBRANCH  26  27
ENDBRANCH  22  26
ENDBRANCH   2  20
TORSDOF 8
ENDMDL
MODEL 6
REMARK VINA RESULT:      -8.1      2.421      3.587
REMARK  Name = 
REMARK  10 active torsions:
REMARK  status: ('A' for Active; 'I' for Inactive)
REMARK    1  A    between atoms: C_1  and  C_2
REMARK    2  A    between atoms: C_2  and  C_3
REMARK    3  A    between atoms: C_2  and  C_10
REMARK    4  A    between atoms: C_3  and  C_4
REMARK    5  A    between atoms: N_8  and  C_9
REMARK    6  A    between atoms: C_14  and  N_15
REMARK    7  A    between atoms: C_16  and  C_18
REMARK    8  A    between atoms: C_20  and  O_21
REMARK    9  A    between atoms: O_21  and  C_22
REMARK   10  A    between atoms: C_25  and  O_26
REMARK                            x       y       z     vdW  Elec       q    Type
REMARK                         _______ _______ _______ _____ _____    ______ ____
ROOT
ATOM      1  N   UNL     1       1.320   8.962  19.386  0.00  0.00    +0.000 N 
ATOM      2  C   UNL     1       2.066   8.282  18.439  0.00  0.00    +0.000 C 
ATOM      3  O   UNL     1       2.394   8.702  17.330  0.00  0.00    +0.000 OA
ATOM      4  H   UNL     1       1.238   8.501  20.287  0.00  0.00    +0.000 HD
ENDROOT
BRANCH   1   9
ATOM      5  C   UNL     1      -1.273  11.647  19.283  0.00  0.00    +0.000 A 
ATOM      6  C   UNL     1      -0.487  12.747  18.912  0.00  0.00    +0.000 A 
ATOM      7  C   UNL     1       0.877  12.603  18.682  0.00  0.00    +0.000 A 
ATOM      8  C   UNL     1       1.483  11.357  18.832  0.00  0.00    +0.000 A 
ATOM      9  C   UNL     1       0.742  10.237  19.220  0.00  0.00    +0.000 A 
ATOM     10  C   UNL     1      -0.638  10.391  19.430  0.00  0.00    +0.000 A 
BRANCH   5  12
ATOM     11  C   UNL     1      -3.605  11.736  18.199  0.00  0.00    +0.000 C 
ATOM     12  C   UNL     1      -2.785  11.765  19.504  0.00  0.00    +0.000 C 
BRANCH  12  13
ATOM     13  C   UNL     1      -3.109  13.029  20.335  0.00  0.00    +0.000 C 
BRANCH  13  14
ATOM     14  C   UNL     1      -3.521  12.709  21.733  0.00  0.00    +0.000 A 
ATOM     15  N   UNL     1      -4.745  12.455  22.150  0.00  0.00    +0.000 NA
ATOM     16  N   UNL     1      -4.702  12.251  23.509  0.00  0.00    +0.000 NA
ATOM     17  C   UNL     1      -3.454  12.377  23.891  0.00  0.00    +0.000 A 
ATOM     18  N   UNL     1      -2.677  12.660  22.812  0.00  0.00    +0.000 N 
ATOM     19  C   UNL     1      -1.255  12.874  22.820  0.00  0.00    +0.000 C 
ENDBRANCH  13  14
ENDBRANCH  12  13
ENDBRANCH   5  12
ENDBRANCH   1   9
BRANCH   2  20
ATOM     20  C   UNL     1       2.561   6.935  18.852  0.00  0.00    +0.000 A 
ATOM     21  C   UNL     1       3.591   6.376  18.105  0.00  0.00    +0.000 A 
ATOM     22  C   UNL     1       4.202   5.224  18.576  0.00  0.00    +0.000 A 
ATOM     23  C   UNL     1       3.675   4.597  19.697  0.00  0.00    +0.000 A 
ATOM     24  C   UNL     1       2.607   5.199  20.351  0.00  0.00    +0.000 A 
ATOM     25  N   UNL     1       2.047   6.375  19.977  0.00  0.00    +0.000 NA
BRANCH  22  26
ATOM     26  O   UNL     1       5.340   4.677  18.035  0.00  0.00    +0.000 OA
BRANCH  26  27
ATOM     27  C   UNL     1       5.612   5.056  16.684  0.00  0.00    +0.000 C 
ATOM     28  C   UNL     1       7.108   5.119  16.356  0.00  0.00    +0.000 C 
ATOM     29  C   UNL     1       7.144   5.113  14.836  0.00  0.00    +0.000 C 
ATOM     30  C   UNL     1       5.897   4.330  14.415  0.00  0.00    +0.000 C 
ATOM     31  C   UNL     1       5.158   3.974  15.708  0.00  0.00    +0.000 C 
BRANCH  30  32
ATOM     32  O   UNL     1       6.244   3.165  13.687  0.00  0.00    +0.000 OA
ATOM     33  H   UNL     1       7.115   2.861  13.994  0.00  0.00    +0.000 HD
ENDBRANCH  30  32
ENDBRANCH  26  27
ENDBRANCH  22  26
ENDBRANCH   2  20
TORSDOF 8
ENDMDL
MODEL 7
REMARK VINA RESULT:      -8.0      3.635     10.314
REMARK  Name = 
REMARK  10 active torsions:
REMARK  status: ('A' for Active; 'I' for Inactive)
REMARK    1  A    between atoms: C_1  and  C_2
REMARK    2  A    between atoms: C_2  and  C_3
REMARK    3  A    between atoms: C_2  and  C_10
REMARK    4  A    between atoms: C_3  and  C_4
REMARK    5  A    between atoms: N_8  and  C_9
REMARK    6  A    between atoms: C_14  and  N_15
REMARK    7  A    between atoms: C_16  and  C_18
REMARK    8  A    between atoms: C_20  and  O_21
REMARK    9  A    between atoms: O_21  and  C_22
REMARK   10  A    between atoms: C_25  and  O_26
REMARK                            x       y       z     vdW  Elec       q    Type
REMARK                         _______ _______ _______ _____ _____    ______ ____
ROOT
ATOM      1  N   UNL     1       2.039   7.691  18.693  0.00  0.00    +0.000 N 
ATOM      2  C   UNL     1       1.631   8.076  19.958  0.00  0.00    +0.000 C 
ATOM      3  O   UNL     1       1.741   7.418  20.992  0.00  0.00    +0.000 OA
ATOM      4  H   UNL     1       1.967   8.407  17.977  0.00  0.00    +0.000 HD
ENDROOT
BRANCH   1   9
ATOM      5  C   UNL     1       4.290   5.176  17.096  0.00  0.00    +0.000 A 
ATOM      6  C   UNL     1       3.760   3.989  17.620  0.00  0.00    +0.000 A 
ATOM      7  C   UNL     1       2.664   4.015  18.476  0.00  0.00    +0.000 A 
ATOM      8  C   UNL     1       2.086   5.232  18.834  0.00  0.00    +0.000 A 
ATOM      9  C   UNL     1       2.594   6.441  18.351  0.00  0.00    +0.000 A 
ATOM     10  C   UNL     1       3.688   6.400  17.472  0.00  0.00    +0.000 A 
BRANCH   5  12
ATOM     11  C   UNL     1       5.362   4.107  15.015  0.00  0.00    +0.000 C 
ATOM     12  C   UNL     1       5.472   5.178  16.119  0.00  0.00    +0.000 C 
BRANCH  12  13
ATOM     13  C   UNL     1       6.805   5.044  16.890  0.00  0.00    +0.000 C 
BRANCH  13  14
ATOM     14  C   UNL     1       7.320   6.356  17.383  0.00  0.00    +0.000 A 
ATOM     15  N   UNL     1       7.319   7.495  16.721  0.00  0.00    +0.000 NA
ATOM     16  N   UNL     1       7.916   8.450  17.509  0.00  0.00    +0.000 NA
ATOM     17  C   UNL     1       8.261   7.877  18.637  0.00  0.00    +0.000 A 
ATOM     18  N   UNL     1       7.903   6.565  18.605  0.00  0.00    +0.000 N 
ATOM     19  C   UNL     1       8.114   5.600  19.650  0.00  0.00    +0.000 C 
ENDBRANCH  13  14
ENDBRANCH  12  13
ENDBRANCH   5  12
ENDBRANCH   1   9
BRANCH   2  20
ATOM     20  C   UNL     1       1.062   9.453  20.062  0.00  0.00    +0.000 A 
ATOM     21  C   UNL     1       0.513   9.827  21.283  0.00  0.00    +0.000 A 
ATOM     22  C   UNL     1       0.158  11.153  21.472  0.00  0.00    +0.000 A 
ATOM     23  C   UNL     1       0.232  12.026  20.394  0.00  0.00    +0.000 A 
ATOM     24  C   UNL     1       0.742  11.551  19.193  0.00  0.00    +0.000 A 
ATOM     25  N   UNL     1       1.192  10.287  19.000  0.00  0.00    +0.000 NA
BRANCH  22  26
ATOM     26  O   UNL     1      -0.222  11.687  22.679  0.00  0.00    +0.000 OA
BRANCH  26  27
ATOM     27  C   UNL     1      -1.421  12.465  22.649  0.00  0.00    +0.000 C 
ATOM     28  C   UNL     1      -2.596  11.805  23.379  0.00  0.00    +0.000 C 
ATOM     29  C   UNL     1      -3.581  12.946  23.581  0.00  0.00    +0.000 C 
ATOM     30  C   UNL     1      -2.712  14.203  23.680  0.00  0.00    +0.000 C 
ATOM     31  C   UNL     1      -1.267  13.744  23.465  0.00  0.00    +0.000 C 
BRANCH  30  32
ATOM     32  O   UNL     1      -2.866  14.834  24.940  0.00  0.00    +0.000 OA
ATOM     33  H   UNL     1      -2.368  14.323  25.601  0.00  0.00    +0.000 HD
ENDBRANCH  30  32
ENDBRANCH  26  27
ENDBRANCH  22  26
ENDBRANCH   2  20
TORSDOF 8
ENDMDL
MODEL 8
REMARK VINA RESULT:      -8.0      2.807      4.091
REMARK  Name = 
REMARK  10 active torsions:
REMARK  status: ('A' for Active; 'I' for Inactive)
REMARK    1  A    between atoms: C_1  and  C_2
REMARK    2  A    between atoms: C_2  and  C_3
REMARK    3  A    between atoms: C_2  and  C_10
REMARK    4  A    between atoms: C_3  and  C_4
REMARK    5  A    between atoms: N_8  and  C_9
REMARK    6  A    between atoms: C_14  and  N_15
REMARK    7  A    between atoms: C_16  and  C_18
REMARK    8  A    between atoms: C_20  and  O_21
REMARK    9  A    between atoms: O_21  and  C_22
REMARK   10  A    between atoms: C_25  and  O_26
REMARK                            x       y       z     vdW  Elec       q    Type
REMARK                         _______ _______ _______ _____ _____    ______ ____
ROOT
ATOM      1  N   UNL     1       2.217   7.316  19.402  0.00  0.00    +0.000 N 
ATOM      2  C   UNL     1       2.170   5.947  19.598  0.00  0.00    +0.000 C 
ATOM      3  O   UNL     1       1.528   5.356  20.466  0.00  0.00    +0.000 OA
ATOM      4  H   UNL     1       2.712   7.618  18.569  0.00  0.00    +0.000 HD
ENDROOT
BRANCH   1   9
ATOM      5  C   UNL     1       0.349  10.406  20.352  0.00  0.00    +0.000 A 
ATOM      6  C   UNL     1       0.315  10.266  21.746  0.00  0.00    +0.000 A 
ATOM      7  C   UNL     1       0.915   9.175  22.368  0.00  0.00    +0.000 A 
ATOM      8  C   UNL     1       1.549   8.197  21.603  0.00  0.00    +0.000 A 
ATOM      9  C   UNL     1       1.589   8.286  20.209  0.00  0.00    +0.000 A 
ATOM     10  C   UNL     1       0.998   9.402  19.595  0.00  0.00    +0.000 A 
BRANCH   5  12
ATOM     11  C   UNL     1      -1.153  11.240  18.436  0.00  0.00    +0.000 C 
ATOM     12  C   UNL     1      -0.268  11.616  19.641  0.00  0.00    +0.000 C 
BRANCH  12  13
ATOM     13  C   UNL     1       0.837  12.616  19.227  0.00  0.00    +0.000 C 
BRANCH  13  14
ATOM     14  C   UNL     1       1.170  13.587  20.310  0.00  0.00    +0.000 A 
ATOM     15  N   UNL     1       2.066  13.420  21.262  0.00  0.00    +0.000 NA
ATOM     16  N   UNL     1       2.036  14.527  22.078  0.00  0.00    +0.000 NA
ATOM     17  C   UNL     1       1.130  15.347  21.603  0.00  0.00    +0.000 A 
ATOM     18  N   UNL     1       0.564  14.802  20.494  0.00  0.00    +0.000 N 
ATOM     19  C   UNL     1      -0.472  15.392  19.690  0.00  0.00    +0.000 C 
ENDBRANCH  13  14
ENDBRANCH  12  13
ENDBRANCH   5  12
ENDBRANCH   1   9
BRANCH   2  20
ATOM     20  C   UNL     1       2.931   5.125  18.609  0.00  0.00    +0.000 A 
ATOM     21  C   UNL     1       3.789   5.797  17.747  0.00  0.00    +0.000 A 
ATOM     22  C   UNL     1       4.651   5.052  16.956  0.00  0.00    +0.000 A 
ATOM     23  C   UNL     1       4.528   3.669  16.952  0.00  0.00    +0.000 A 
ATOM     24  C   UNL     1       3.603   3.084  17.807  0.00  0.00    +0.000 A 
ATOM     25  N   UNL     1       2.814   3.774  18.667  0.00  0.00    +0.000 NA
BRANCH  22  26
ATOM     26  O   UNL     1       5.665   5.589  16.202  0.00  0.00    +0.000 OA
BRANCH  26  27
ATOM     27  C   UNL     1       6.887   5.822  16.906  0.00  0.00    +0.000 C 
ATOM     28  C   UNL     1       6.995   7.234  17.492  0.00  0.00    +0.000 C 
ATOM     29  C   UNL     1       8.118   7.116  18.510  0.00  0.00    +0.000 C 
ATOM     30  C   UNL     1       8.065   5.663  18.989  0.00  0.00    +0.000 C 
ATOM     31  C   UNL     1       6.956   4.985  18.180  0.00  0.00    +0.000 C 
BRANCH  30  32
ATOM     32  O   UNL     1       7.799   5.590  20.380  0.00  0.00    +0.000 OA
ATOM     33  H   UNL     1       6.841   5.691  20.513  0.00  0.00    +0.000 HD
ENDBRANCH  30  32
ENDBRANCH  26  27
ENDBRANCH  22  26
ENDBRANCH   2  20
TORSDOF 8
ENDMDL
MODEL 9
REMARK VINA RESULT:      -7.9      3.741      9.842
REMARK  Name = 
REMARK  10 active torsions:
REMARK  status: ('A' for Active; 'I' for Inactive)
REMARK    1  A    between atoms: C_1  and  C_2
REMARK    2  A    between atoms: C_2  and  C_3
REMARK    3  A    between atoms: C_2  and  C_10
REMARK    4  A    between atoms: C_3  and  C_4
REMARK    5  A    between atoms: N_8  and  C_9
REMARK    6  A    between atoms: C_14  and  N_15
REMARK    7  A    between atoms: C_16  and  C_18
REMARK    8  A    between atoms: C_20  and  O_21
REMARK    9  A    between atoms: O_21  and  C_22
REMARK   10  A    between atoms: C_25  and  O_26
REMARK                            x       y       z     vdW  Elec       q    Type
REMARK                         _______ _______ _______ _____ _____    ______ ____
ROOT
ATOM      1  N   UNL     1       2.050   6.614  19.787  0.00  0.00    +0.000 N 
ATOM      2  C   UNL     1       1.894   7.939  19.418  0.00  0.00    +0.000 C 
ATOM      3  O   UNL     1       2.183   8.431  18.328  0.00  0.00    +0.000 OA
ATOM      4  H   UNL     1       1.656   6.366  20.689  0.00  0.00    +0.000 HD
ENDROOT
BRANCH   1   9
ATOM      5  C   UNL     1       4.287   4.974  17.288  0.00  0.00    +0.000 A 
ATOM      6  C   UNL     1       3.856   3.644  17.394  0.00  0.00    +0.000 A 
ATOM      7  C   UNL     1       2.830   3.294  18.265  0.00  0.00    +0.000 A 
ATOM      8  C   UNL     1       2.225   4.268  19.057  0.00  0.00    +0.000 A 
ATOM      9  C   UNL     1       2.635   5.603  18.999  0.00  0.00    +0.000 A 
ATOM     10  C   UNL     1       3.658   5.946  18.101  0.00  0.00    +0.000 A 
BRANCH   5  12
ATOM     11  C   UNL     1       5.072   6.701  15.550  0.00  0.00    +0.000 C 
ATOM     12  C   UNL     1       5.388   5.397  16.309  0.00  0.00    +0.000 C 
BRANCH  12  13
ATOM     13  C   UNL     1       5.703   4.246  15.326  0.00  0.00    +0.000 C 
BRANCH  13  14
ATOM     14  C   UNL     1       6.688   4.639  14.275  0.00  0.00    +0.000 A 
ATOM     15  N   UNL     1       7.709   5.458  14.427  0.00  0.00    +0.000 NA
ATOM     16  N   UNL     1       8.341   5.585  13.212  0.00  0.00    +0.000 NA
ATOM     17  C   UNL     1       7.699   4.835  12.349  0.00  0.00    +0.000 A 
ATOM     18  N   UNL     1       6.658   4.220  12.971  0.00  0.00    +0.000 N 
ATOM     19  C   UNL     1       5.715   3.320  12.363  0.00  0.00    +0.000 C 
ENDBRANCH  13  14
ENDBRANCH  12  13
ENDBRANCH   5  12
ENDBRANCH   1   9
BRANCH   2  20
ATOM     20  C   UNL     1       1.252   8.822  20.438  0.00  0.00    +0.000 A 
ATOM     21  C   UNL     1       0.501   9.894  19.971  0.00  0.00    +0.000 A 
ATOM     22  C   UNL     1      -0.264  10.612  20.878  0.00  0.00    +0.000 A 
ATOM     23  C   UNL     1      -0.144  10.324  22.231  0.00  0.00    +0.000 A 
ATOM     24  C   UNL     1       0.675   9.268  22.612  0.00  0.00    +0.000 A 
ATOM     25  N   UNL     1       1.360   8.482  21.747  0.00  0.00    +0.000 NA
BRANCH  22  26
ATOM     26  O   UNL     1      -1.183  11.569  20.526  0.00  0.00    +0.000 OA
BRANCH  26  27
ATOM     27  C   UNL     1      -0.667  12.898  20.421  0.00  0.00    +0.000 C 
ATOM     28  C   UNL     1      -0.308  13.303  18.988  0.00  0.00    +0.000 C 
ATOM     29  C   UNL     1      -0.199  14.818  19.058  0.00  0.00    +0.000 C 
ATOM     30  C   UNL     1      -1.165  15.231  20.172  0.00  0.00    +0.000 C 
ATOM     31  C   UNL     1      -1.741  13.932  20.744  0.00  0.00    +0.000 C 
BRANCH  30  32
ATOM     32  O   UNL     1      -2.193  16.071  19.676  0.00  0.00    +0.000 OA
ATOM     33  H   UNL     1      -2.024  16.234  18.732  0.00  0.00    +0.000 HD
ENDBRANCH  30  32
ENDBRANCH  26  27
ENDBRANCH  22  26
ENDBRANCH   2  20
TORSDOF 8
ENDMDL
