MODEL 1
REMARK VINA RESULT:      -9.6      0.000      0.000
REMARK  Name = 
REMARK  9 active torsions:
REMARK  status: ('A' for Active; 'I' for Inactive)
REMARK    1  A    between atoms: C_1  and  C_2
REMARK    2  A    between atoms: C_2  and  C_3
REMARK    3  A    between atoms: C_2  and  N_34
REMARK    4  A    between atoms: C_7  and  C_8
REMARK    5  A    between atoms: N_14  and  C_15
REMARK    6  A    between atoms: C_19  and  C_20
REMARK    7  A    between atoms: C_20  and  C_21
REMARK    8  A    between atoms: C_21  and  C_22
REMARK    9  A    between atoms: N_26  and  C_27
REMARK                            x       y       z     vdW  Elec       q    Type
REMARK                         _______ _______ _______ _____ _____    ______ ____
ROOT
ATOM      1  C   UNL     1      -0.674  10.749  19.072  0.00  0.00    +0.000 A 
ATOM      2  C   UNL     1       0.186   9.927  18.339  0.00  0.00    +0.000 A 
ATOM      3  C   UNL     1       0.907   8.977  19.027  0.00  0.00    +0.000 A 
ATOM      4  C   UNL     1       0.829   8.803  20.406  0.00  0.00    +0.000 A 
ATOM      5  C   UNL     1       0.015   9.631  21.171  0.00  0.00    +0.000 A 
ATOM      6  C   UNL     1      -0.746  10.601  20.481  0.00  0.00    +0.000 A 
ATOM      7  C   UNL     1       1.689   7.643  20.802  0.00  0.00    +0.000 C 
ATOM      8  N   UNL     1       2.274   7.221  19.535  0.00  0.00    +0.000 N 
ATOM      9  C   UNL     1       1.823   7.989  18.467  0.00  0.00    +0.000 C 
ATOM     10  O   UNL     1       2.056   7.915  17.275  0.00  0.00    +0.000 OA
ENDROOT
BRANCH   8  11
ATOM     11  C   UNL     1       3.203   6.171  19.433  0.00  0.00    +0.000 A 
ATOM     12  C   UNL     1       2.905   4.904  19.938  0.00  0.00    +0.000 A 
ATOM     13  C   UNL     1       3.820   3.866  19.828  0.00  0.00    +0.000 A 
ATOM     14  C   UNL     1       5.070   4.106  19.268  0.00  0.00    +0.000 A 
ATOM     15  C   UNL     1       5.442   5.382  18.795  0.00  0.00    +0.000 A 
ATOM     16  C   UNL     1       4.455   6.386  18.843  0.00  0.00    +0.000 A 
BRANCH  15  17
ATOM     17  C   UNL     1       6.932   5.689  18.303  0.00  0.00    +0.000 C 
ATOM     18  C   UNL     1       7.267   7.104  17.743  0.00  0.00    +0.000 C 
ATOM     19  O   UNL     1       8.470   7.166  18.562  0.00  0.00    +0.000 OA
ATOM     20  C   UNL     1       7.917   6.142  19.424  0.00  0.00    +0.000 C 
BRANCH  17  21
ATOM     21  C   UNL     1       7.490   4.541  17.446  0.00  0.00    +0.000 C 
BRANCH  21  22
ATOM     22  C   UNL     1       7.081   4.634  16.010  0.00  0.00    +0.000 A 
ATOM     23  N   UNL     1       7.702   5.322  15.073  0.00  0.00    +0.000 NA
ATOM     24  N   UNL     1       7.035   5.134  13.885  0.00  0.00    +0.000 NA
ATOM     25  C   UNL     1       6.019   4.341  14.123  0.00  0.00    +0.000 A 
ATOM     26  N   UNL     1       5.995   4.018  15.445  0.00  0.00    +0.000 N 
ATOM     27  C   UNL     1       5.009   3.188  16.084  0.00  0.00    +0.000 C 
ENDBRANCH  21  22
ENDBRANCH  17  21
ENDBRANCH  15  17
ENDBRANCH   8  11
BRANCH   5  28
ATOM     28  C   UNL     1      -0.079   9.522  22.671  0.00  0.00    +0.000 C 
ATOM     29  F   UNL     1      -0.841   8.475  23.092  0.00  0.00    +0.000 F 
ATOM     30  F   UNL     1       1.140   9.347  23.252  0.00  0.00    +0.000 F 
ATOM     31  F   UNL     1      -0.617  10.631  23.246  0.00  0.00    +0.000 F 
ENDBRANCH   5  28
BRANCH   1  33
ATOM     32  C   UNL     1      -1.528  13.087  19.001  0.00  0.00    +0.000 C 
ATOM     33  C   UNL     1      -1.574  11.718  18.305  0.00  0.00    +0.000 C 
BRANCH  33  34
ATOM     34  N   UNL     1      -2.945  11.156  18.124  0.00  0.00    +0.000 NA
ATOM     35  C   UNL     1      -3.670  11.818  17.006  0.00  0.00    +0.000 C 
ATOM     36  C   UNL     1      -3.107  11.164  15.776  0.00  0.00    +0.000 C 
ATOM     37  C   UNL     1      -3.652   9.899  15.166  0.00  0.00    +0.000 C 
ATOM     38  C   UNL     1      -2.582   9.836  16.217  0.00  0.00    +0.000 C 
ATOM     39  C   UNL     1      -2.890   9.731  17.681  0.00  0.00    +0.000 C 
ENDBRANCH  33  34
ENDBRANCH   1  33
TORSDOF 7
ENDMDL
MODEL 2
REMARK VINA RESULT:      -9.2      2.455      9.012
REMARK  Name = 
REMARK  9 active torsions:
REMARK  status: ('A' for Active; 'I' for Inactive)
REMARK    1  A    between atoms: C_1  and  C_2
REMARK    2  A    between atoms: C_2  and  C_3
REMARK    3  A    between atoms: C_2  and  N_34
REMARK    4  A    between atoms: C_7  and  C_8
REMARK    5  A    between atoms: N_14  and  C_15
REMARK    6  A    between atoms: C_19  and  C_20
REMARK    7  A    between atoms: C_20  and  C_21
REMARK    8  A    between atoms: C_21  and  C_22
REMARK    9  A    between atoms: N_26  and  C_27
REMARK                            x       y       z     vdW  Elec       q    Type
REMARK                         _______ _______ _______ _____ _____    ______ ____
ROOT
ATOM      1  C   UNL     1       4.105   5.017  18.176  0.00  0.00    +0.000 A 
ATOM      2  C   UNL     1       3.652   6.339  18.164  0.00  0.00    +0.000 A 
ATOM      3  C   UNL     1       2.735   6.712  19.120  0.00  0.00    +0.000 A 
ATOM      4  C   UNL     1       2.234   5.842  20.085  0.00  0.00    +0.000 A 
ATOM      5  C   UNL     1       2.630   4.510  20.099  0.00  0.00    +0.000 A 
ATOM      6  C   UNL     1       3.585   4.111  19.137  0.00  0.00    +0.000 A 
ATOM      7  C   UNL     1       1.318   6.598  20.996  0.00  0.00    +0.000 C 
ATOM      8  N   UNL     1       1.328   7.942  20.430  0.00  0.00    +0.000 N 
ATOM      9  C   UNL     1       2.164   8.039  19.323  0.00  0.00    +0.000 C 
ATOM     10  O   UNL     1       2.453   8.990  18.622  0.00  0.00    +0.000 OA
ENDROOT
BRANCH   8  11
ATOM     11  C   UNL     1       0.554   8.996  20.947  0.00  0.00    +0.000 A 
ATOM     12  C   UNL     1       0.135   8.985  22.278  0.00  0.00    +0.000 A 
ATOM     13  C   UNL     1      -0.622  10.031  22.791  0.00  0.00    +0.000 A 
ATOM     14  C   UNL     1      -1.019  11.067  21.953  0.00  0.00    +0.000 A 
ATOM     15  C   UNL     1      -0.670  11.096  20.585  0.00  0.00    +0.000 A 
ATOM     16  C   UNL     1       0.171  10.064  20.127  0.00  0.00    +0.000 A 
BRANCH  15  17
ATOM     17  C   UNL     1      -1.263  12.202  19.595  0.00  0.00    +0.000 C 
ATOM     18  C   UNL     1      -1.048  13.709  19.928  0.00  0.00    +0.000 C 
ATOM     19  O   UNL     1      -0.636  13.975  18.557  0.00  0.00    +0.000 OA
ATOM     20  C   UNL     1      -0.346  12.565  18.387  0.00  0.00    +0.000 C 
BRANCH  17  21
ATOM     21  C   UNL     1      -2.703  11.866  19.171  0.00  0.00    +0.000 C 
BRANCH  21  22
ATOM     22  C   UNL     1      -2.773  11.158  17.856  0.00  0.00    +0.000 A 
ATOM     23  N   UNL     1      -1.847  10.363  17.356  0.00  0.00    +0.000 NA
ATOM     24  N   UNL     1      -2.293   9.889  16.144  0.00  0.00    +0.000 NA
ATOM     25  C   UNL     1      -3.477  10.408  15.928  0.00  0.00    +0.000 A 
ATOM     26  N   UNL     1      -3.810  11.227  16.963  0.00  0.00    +0.000 N 
ATOM     27  C   UNL     1      -5.023  11.993  17.064  0.00  0.00    +0.000 C 
ENDBRANCH  21  22
ENDBRANCH  17  21
ENDBRANCH  15  17
ENDBRANCH   8  11
BRANCH   5  28
ATOM     28  C   UNL     1       2.091   3.509  21.089  0.00  0.00    +0.000 C 
ATOM     29  F   UNL     1       2.358   3.830  22.384  0.00  0.00    +0.000 F 
ATOM     30  F   UNL     1       0.737   3.386  21.011  0.00  0.00    +0.000 F 
ATOM     31  F   UNL     1       2.596   2.260  20.902  0.00  0.00    +0.000 F 
ENDBRANCH   5  28
BRANCH   1  33
ATOM     32  C   UNL     1       6.559   4.654  17.955  0.00  0.00    +0.000 C 
ATOM     33  C   UNL     1       5.218   4.626  17.203  0.00  0.00    +0.000 C 
BRANCH  33  34
ATOM     34  N   UNL     1       5.178   5.464  15.968  0.00  0.00    +0.000 NA
ATOM     35  C   UNL     1       6.529   5.956  15.591  0.00  0.00    +0.000 C 
ATOM     36  C   UNL     1       7.167   4.774  14.916  0.00  0.00    +0.000 C 
ATOM     37  C   UNL     1       7.043   4.472  13.445  0.00  0.00    +0.000 C 
ATOM     38  C   UNL     1       6.042   3.926  14.420  0.00  0.00    +0.000 C 
ATOM     39  C   UNL     1       4.780   4.653  14.779  0.00  0.00    +0.000 C 
ENDBRANCH  33  34
ENDBRANCH   1  33
TORSDOF 7
ENDMDL
MODEL 3
REMARK VINA RESULT:      -9.0      2.887      9.362
REMARK  Name = 
REMARK  9 active torsions:
REMARK  status: ('A' for Active; 'I' for Inactive)
REMARK    1  A    between atoms: C_1  and  C_2
REMARK    2  A    between atoms: C_2  and  C_3
REMARK    3  A    between atoms: C_2  and  N_34
REMARK    4  A    between atoms: C_7  and  C_8
REMARK    5  A    between atoms: N_14  and  C_15
REMARK    6  A    between atoms: C_19  and  C_20
REMARK    7  A    between atoms: C_20  and  C_21
REMARK    8  A    between atoms: C_21  and  C_22
REMARK    9  A    between atoms: N_26  and  C_27
REMARK                            x       y       z     vdW  Elec       q    Type
REMARK                         _______ _______ _______ _____ _____    ______ ____
ROOT
ATOM      1  C   UNL     1       4.211   4.975  18.088  0.00  0.00    +0.000 A 
ATOM      2  C   UNL     1       3.756   6.296  18.029  0.00  0.00    +0.000 A 
ATOM      3  C   UNL     1       2.832   6.697  18.967  0.00  0.00    +0.000 A 
ATOM      4  C   UNL     1       2.327   5.858  19.957  0.00  0.00    +0.000 A 
ATOM      5  C   UNL     1       2.726   4.528  20.018  0.00  0.00    +0.000 A 
ATOM      6  C   UNL     1       3.687   4.101  19.074  0.00  0.00    +0.000 A 
ATOM      7  C   UNL     1       1.404   6.642  20.838  0.00  0.00    +0.000 C 
ATOM      8  N   UNL     1       1.415   7.967  20.228  0.00  0.00    +0.000 N 
ATOM      9  C   UNL     1       2.257   8.029  19.124  0.00  0.00    +0.000 C 
ATOM     10  O   UNL     1       2.549   8.957  18.393  0.00  0.00    +0.000 OA
ENDROOT
BRANCH   8  11
ATOM     11  C   UNL     1       0.636   9.035  20.705  0.00  0.00    +0.000 A 
ATOM     12  C   UNL     1       0.457   9.230  22.076  0.00  0.00    +0.000 A 
ATOM     13  C   UNL     1      -0.304  10.291  22.547  0.00  0.00    +0.000 A 
ATOM     14  C   UNL     1      -0.948  11.130  21.644  0.00  0.00    +0.000 A 
ATOM     15  C   UNL     1      -0.847  10.942  20.249  0.00  0.00    +0.000 A 
ATOM     16  C   UNL     1       0.006   9.910  19.812  0.00  0.00    +0.000 A 
BRANCH  15  17
ATOM     17  C   UNL     1      -1.716  11.807  19.224  0.00  0.00    +0.000 C 
ATOM     18  C   UNL     1      -2.722  11.080  18.282  0.00  0.00    +0.000 C 
ATOM     19  O   UNL     1      -3.760  12.048  18.607  0.00  0.00    +0.000 OA
ATOM     20  C   UNL     1      -3.034  12.397  19.812  0.00  0.00    +0.000 C 
BRANCH  17  21
ATOM     21  C   UNL     1      -0.857  12.863  18.508  0.00  0.00    +0.000 C 
BRANCH  21  22
ATOM     22  C   UNL     1      -0.304  13.893  19.440  0.00  0.00    +0.000 A 
ATOM     23  N   UNL     1      -0.963  14.925  19.931  0.00  0.00    +0.000 NA
ATOM     24  N   UNL     1      -0.117  15.620  20.764  0.00  0.00    +0.000 NA
ATOM     25  C   UNL     1       1.039  15.004  20.759  0.00  0.00    +0.000 A 
ATOM     26  N   UNL     1       0.976  13.928  19.927  0.00  0.00    +0.000 N 
ATOM     27  C   UNL     1       2.062  13.027  19.644  0.00  0.00    +0.000 C 
ENDBRANCH  21  22
ENDBRANCH  17  21
ENDBRANCH  15  17
ENDBRANCH   8  11
BRANCH   5  28
ATOM     28  C   UNL     1       2.182   3.559  21.037  0.00  0.00    +0.000 C 
ATOM     29  F   UNL     1       2.421   3.935  22.323  0.00  0.00    +0.000 F 
ATOM     30  F   UNL     1       0.833   3.413  20.939  0.00  0.00    +0.000 F 
ATOM     31  F   UNL     1       2.709   2.312  20.908  0.00  0.00    +0.000 F 
ENDBRANCH   5  28
BRANCH   1  33
ATOM     32  C   UNL     1       6.650   4.500  17.922  0.00  0.00    +0.000 C 
ATOM     33  C   UNL     1       5.330   4.556  17.135  0.00  0.00    +0.000 C 
BRANCH  33  34
ATOM     34  N   UNL     1       5.364   5.425  15.922  0.00  0.00    +0.000 NA
ATOM     35  C   UNL     1       6.757   5.724  15.496  0.00  0.00    +0.000 C 
ATOM     36  C   UNL     1       7.187   4.482  14.768  0.00  0.00    +0.000 C 
ATOM     37  C   UNL     1       6.961   4.242  13.298  0.00  0.00    +0.000 C 
ATOM     38  C   UNL     1       5.930   3.820  14.304  0.00  0.00    +0.000 C 
ATOM     39  C   UNL     1       4.804   4.714  14.733  0.00  0.00    +0.000 C 
ENDBRANCH  33  34
ENDBRANCH   1  33
TORSDOF 7
ENDMDL
MODEL 4
REMARK VINA RESULT:      -9.0      3.194      9.439
REMARK  Name = 
REMARK  9 active torsions:
REMARK  status: ('A' for Active; 'I' for Inactive)
REMARK    1  A    between atoms: C_1  and  C_2
REMARK    2  A    between atoms: C_2  and  C_3
REMARK    3  A    between atoms: C_2  and  N_34
REMARK    4  A    between atoms: C_7  and  C_8
REMARK    5  A    between atoms: N_14  and  C_15
REMARK    6  A    between atoms: C_19  and  C_20
REMARK    7  A    between atoms: C_20  and  C_21
REMARK    8  A    between atoms: C_21  and  C_22
REMARK    9  A    between atoms: N_26  and  C_27
REMARK                            x       y       z     vdW  Elec       q    Type
REMARK                         _______ _______ _______ _____ _____    ______ ____
ROOT
ATOM      1  C   UNL     1       4.990   4.602  17.222  0.00  0.00    +0.000 A 
ATOM      2  C   UNL     1       4.472   5.897  17.307  0.00  0.00    +0.000 A 
ATOM      3  C   UNL     1       3.571   6.163  18.314  0.00  0.00    +0.000 A 
ATOM      4  C   UNL     1       3.149   5.211  19.238  0.00  0.00    +0.000 A 
ATOM      5  C   UNL     1       3.612   3.903  19.157  0.00  0.00    +0.000 A 
ATOM      6  C   UNL     1       4.550   3.614  18.141  0.00  0.00    +0.000 A 
ATOM      7  C   UNL     1       2.230   5.862  20.224  0.00  0.00    +0.000 C 
ATOM      8  N   UNL     1       2.152   7.236  19.743  0.00  0.00    +0.000 N 
ATOM      9  C   UNL     1       2.942   7.443  18.618  0.00  0.00    +0.000 C 
ATOM     10  O   UNL     1       3.158   8.449  17.968  0.00  0.00    +0.000 OA
ENDROOT
BRANCH   8  11
ATOM     11  C   UNL     1       1.345   8.215  20.349  0.00  0.00    +0.000 A 
ATOM     12  C   UNL     1       0.890   8.052  21.659  0.00  0.00    +0.000 A 
ATOM     13  C   UNL     1       0.102   9.024  22.260  0.00  0.00    +0.000 A 
ATOM     14  C   UNL     1      -0.292  10.140  21.529  0.00  0.00    +0.000 A 
ATOM     15  C   UNL     1       0.093  10.324  20.184  0.00  0.00    +0.000 A 
ATOM     16  C   UNL     1       0.965   9.361  19.640  0.00  0.00    +0.000 A 
BRANCH  15  17
ATOM     17  C   UNL     1      -0.494  11.522  19.303  0.00  0.00    +0.000 C 
ATOM     18  C   UNL     1      -1.423  11.191  18.097  0.00  0.00    +0.000 C 
ATOM     19  O   UNL     1      -2.372  12.212  18.520  0.00  0.00    +0.000 OA
ATOM     20  C   UNL     1      -1.805  12.164  19.853  0.00  0.00    +0.000 C 
BRANCH  17  21
ATOM     21  C   UNL     1       0.589  12.564  18.977  0.00  0.00    +0.000 C 
BRANCH  21  22
ATOM     22  C   UNL     1       0.839  13.517  20.101  0.00  0.00    +0.000 A 
ATOM     23  N   UNL     1       1.486  13.243  21.217  0.00  0.00    +0.000 NA
ATOM     24  N   UNL     1       1.526  14.383  21.985  0.00  0.00    +0.000 NA
ATOM     25  C   UNL     1       0.899  15.326  21.326  0.00  0.00    +0.000 A 
ATOM     26  N   UNL     1       0.433  14.825  20.149  0.00  0.00    +0.000 N 
ATOM     27  C   UNL     1      -0.330  15.557  19.174  0.00  0.00    +0.000 C 
ENDBRANCH  21  22
ENDBRANCH  17  21
ENDBRANCH  15  17
ENDBRANCH   8  11
BRANCH   5  28
ATOM     28  C   UNL     1       3.159   2.818  20.100  0.00  0.00    +0.000 C 
ATOM     29  F   UNL     1       2.337   3.266  21.087  0.00  0.00    +0.000 F 
ATOM     30  F   UNL     1       2.466   1.836  19.460  0.00  0.00    +0.000 F 
ATOM     31  F   UNL     1       4.197   2.201  20.728  0.00  0.00    +0.000 F 
ENDBRANCH   5  28
BRANCH   1  33
ATOM     32  C   UNL     1       7.453   4.505  16.871  0.00  0.00    +0.000 C 
ATOM     33  C   UNL     1       6.086   4.330  16.191  0.00  0.00    +0.000 C 
BRANCH  33  34
ATOM     34  N   UNL     1       5.891   5.154  14.962  0.00  0.00    +0.000 NA
ATOM     35  C   UNL     1       7.151   5.294  14.185  0.00  0.00    +0.000 C 
ATOM     36  C   UNL     1       7.263   3.992  13.443  0.00  0.00    +0.000 C 
ATOM     37  C   UNL     1       6.649   3.733  12.092  0.00  0.00    +0.000 C 
ATOM     38  C   UNL     1       5.873   3.451  13.345  0.00  0.00    +0.000 C 
ATOM     39  C   UNL     1       4.983   4.470  13.993  0.00  0.00    +0.000 C 
ENDBRANCH  33  34
ENDBRANCH   1  33
TORSDOF 7
ENDMDL
MODEL 5
REMARK VINA RESULT:      -9.0      2.587      4.043
REMARK  Name = 
REMARK  9 active torsions:
REMARK  status: ('A' for Active; 'I' for Inactive)
REMARK    1  A    between atoms: C_1  and  C_2
REMARK    2  A    between atoms: C_2  and  C_3
REMARK    3  A    between atoms: C_2  and  N_34
REMARK    4  A    between atoms: C_7  and  C_8
REMARK    5  A    between atoms: N_14  and  C_15
REMARK    6  A    between atoms: C_19  and  C_20
REMARK    7  A    between atoms: C_20  and  C_21
REMARK    8  A    between atoms: C_21  and  C_22
REMARK    9  A    between atoms: N_26  and  C_27
REMARK                            x       y       z     vdW  Elec       q    Type
REMARK                         _______ _______ _______ _____ _____    ______ ____
ROOT
ATOM      1  C   UNL     1       0.843  12.010  19.806  0.00  0.00    +0.000 A 
ATOM      2  C   UNL     1       1.457  11.157  18.884  0.00  0.00    +0.000 A 
ATOM      3  C   UNL     1       1.566   9.825  19.216  0.00  0.00    +0.000 A 
ATOM      4  C   UNL     1       1.106   9.293  20.418  0.00  0.00    +0.000 A 
ATOM      5  C   UNL     1       0.530  10.120  21.375  0.00  0.00    +0.000 A 
ATOM      6  C   UNL     1       0.393  11.488  21.046  0.00  0.00    +0.000 A 
ATOM      7  C   UNL     1       1.324   7.812  20.411  0.00  0.00    +0.000 C 
ATOM      8  N   UNL     1       1.974   7.582  19.127  0.00  0.00    +0.000 N 
ATOM      9  C   UNL     1       2.123   8.755  18.396  0.00  0.00    +0.000 C 
ATOM     10  O   UNL     1       2.578   8.952  17.285  0.00  0.00    +0.000 OA
ENDROOT
BRANCH   8  11
ATOM     11  C   UNL     1       2.413   6.314  18.707  0.00  0.00    +0.000 A 
ATOM     12  C   UNL     1       1.851   5.153  19.241  0.00  0.00    +0.000 A 
ATOM     13  C   UNL     1       2.278   3.901  18.820  0.00  0.00    +0.000 A 
ATOM     14  C   UNL     1       3.320   3.802  17.904  0.00  0.00    +0.000 A 
ATOM     15  C   UNL     1       3.962   4.943  17.378  0.00  0.00    +0.000 A 
ATOM     16  C   UNL     1       3.440   6.194  17.763  0.00  0.00    +0.000 A 
BRANCH  15  17
ATOM     17  C   UNL     1       5.261   4.821  16.454  0.00  0.00    +0.000 C 
ATOM     18  C   UNL     1       5.235   3.848  15.238  0.00  0.00    +0.000 C 
ATOM     19  O   UNL     1       5.803   4.877  14.377  0.00  0.00    +0.000 OA
ATOM     20  C   UNL     1       5.366   5.886  15.320  0.00  0.00    +0.000 C 
BRANCH  17  21
ATOM     21  C   UNL     1       6.544   4.718  17.297  0.00  0.00    +0.000 C 
BRANCH  21  22
ATOM     22  C   UNL     1       7.208   6.040  17.512  0.00  0.00    +0.000 A 
ATOM     23  N   UNL     1       7.328   7.000  16.615  0.00  0.00    +0.000 NA
ATOM     24  N   UNL     1       7.975   8.062  17.203  0.00  0.00    +0.000 NA
ATOM     25  C   UNL     1       8.241   7.726  18.441  0.00  0.00    +0.000 A 
ATOM     26  N   UNL     1       7.799   6.461  18.675  0.00  0.00    +0.000 N 
ATOM     27  C   UNL     1       7.940   5.742  19.913  0.00  0.00    +0.000 C 
ENDBRANCH  21  22
ENDBRANCH  17  21
ENDBRANCH  15  17
ENDBRANCH   8  11
BRANCH   5  28
ATOM     28  C   UNL     1       0.054   9.613  22.712  0.00  0.00    +0.000 C 
ATOM     29  F   UNL     1      -0.751   8.519  22.621  0.00  0.00    +0.000 F 
ATOM     30  F   UNL     1       1.086   9.245  23.520  0.00  0.00    +0.000 F 
ATOM     31  F   UNL     1      -0.657  10.543  23.404  0.00  0.00    +0.000 F 
ENDBRANCH   5  28
BRANCH   1  33
ATOM     32  C   UNL     1      -0.497  13.490  18.319  0.00  0.00    +0.000 C 
ATOM     33  C   UNL     1       0.601  13.462  19.394  0.00  0.00    +0.000 C 
BRANCH  33  34
ATOM     34  N   UNL     1       1.875  14.135  19.002  0.00  0.00    +0.000 NA
ATOM     35  C   UNL     1       1.651  15.547  18.595  0.00  0.00    +0.000 C 
ATOM     36  C   UNL     1       1.522  16.281  19.900  0.00  0.00    +0.000 C 
ATOM     37  C   UNL     1       2.686  16.856  20.666  0.00  0.00    +0.000 C 
ATOM     38  C   UNL     1       2.233  15.447  20.915  0.00  0.00    +0.000 C 
ATOM     39  C   UNL     1       2.794  14.272  20.171  0.00  0.00    +0.000 C 
ENDBRANCH  33  34
ENDBRANCH   1  33
TORSDOF 7
ENDMDL
MODEL 6
REMARK VINA RESULT:      -9.0      2.974      9.219
REMARK  Name = 
REMARK  9 active torsions:
REMARK  status: ('A' for Active; 'I' for Inactive)
REMARK    1  A    between atoms: C_1  and  C_2
REMARK    2  A    between atoms: C_2  and  C_3
REMARK    3  A    between atoms: C_2  and  N_34
REMARK    4  A    between atoms: C_7  and  C_8
REMARK    5  A    between atoms: N_14  and  C_15
REMARK    6  A    between atoms: C_19  and  C_20
REMARK    7  A    between atoms: C_20  and  C_21
REMARK    8  A    between atoms: C_21  and  C_22
REMARK    9  A    between atoms: N_26  and  C_27
REMARK                            x       y       z     vdW  Elec       q    Type
REMARK                         _______ _______ _______ _____ _____    ______ ____
ROOT
ATOM      1  C   UNL     1       3.866   5.072  17.981  0.00  0.00    +0.000 A 
ATOM      2  C   UNL     1       3.410   6.394  17.975  0.00  0.00    +0.000 A 
ATOM      3  C   UNL     1       2.563   6.784  18.987  0.00  0.00    +0.000 A 
ATOM      4  C   UNL     1       2.133   5.933  20.002  0.00  0.00    +0.000 A 
ATOM      5  C   UNL     1       2.533   4.602  20.014  0.00  0.00    +0.000 A 
ATOM      6  C   UNL     1       3.418   4.186  18.994  0.00  0.00    +0.000 A 
ATOM      7  C   UNL     1       1.283   6.706  20.961  0.00  0.00    +0.000 C 
ATOM      8  N   UNL     1       1.249   8.039  20.370  0.00  0.00    +0.000 N 
ATOM      9  C   UNL     1       2.004   8.114  19.205  0.00  0.00    +0.000 C 
ATOM     10  O   UNL     1       2.241   9.052  18.466  0.00  0.00    +0.000 OA
ENDROOT
BRANCH   8  11
ATOM     11  C   UNL     1       0.512   9.101  20.920  0.00  0.00    +0.000 A 
ATOM     12  C   UNL     1       0.353   9.219  22.302  0.00  0.00    +0.000 A 
ATOM     13  C   UNL     1      -0.367  10.274  22.845  0.00  0.00    +0.000 A 
ATOM     14  C   UNL     1      -0.991  11.187  22.001  0.00  0.00    +0.000 A 
ATOM     15  C   UNL     1      -0.910  11.080  20.596  0.00  0.00    +0.000 A 
ATOM     16  C   UNL     1      -0.097  10.049  20.088  0.00  0.00    +0.000 A 
BRANCH  15  17
ATOM     17  C   UNL     1      -1.760  12.035  19.635  0.00  0.00    +0.000 C 
ATOM     18  C   UNL     1      -2.987  11.446  18.877  0.00  0.00    +0.000 C 
ATOM     19  O   UNL     1      -3.803  12.588  19.267  0.00  0.00    +0.000 OA
ATOM     20  C   UNL     1      -2.874  12.862  20.345  0.00  0.00    +0.000 C 
BRANCH  17  21
ATOM     21  C   UNL     1      -0.847  12.899  18.750  0.00  0.00    +0.000 C 
BRANCH  21  22
ATOM     22  C   UNL     1       0.207  13.620  19.528  0.00  0.00    +0.000 A 
ATOM     23  N   UNL     1      -0.005  14.536  20.453  0.00  0.00    +0.000 NA
ATOM     24  N   UNL     1       1.212  14.939  20.950  0.00  0.00    +0.000 NA
ATOM     25  C   UNL     1       2.140  14.266  20.315  0.00  0.00    +0.000 A 
ATOM     26  N   UNL     1       1.560  13.442  19.400  0.00  0.00    +0.000 N 
ATOM     27  C   UNL     1       2.262  12.571  18.497  0.00  0.00    +0.000 C 
ENDBRANCH  21  22
ENDBRANCH  17  21
ENDBRANCH  15  17
ENDBRANCH   8  11
BRANCH   5  28
ATOM     28  C   UNL     1       2.068   3.620  21.059  0.00  0.00    +0.000 C 
ATOM     29  F   UNL     1       0.718   3.450  21.080  0.00  0.00    +0.000 F 
ATOM     30  F   UNL     1       2.593   2.379  20.870  0.00  0.00    +0.000 F 
ATOM     31  F   UNL     1       2.417   3.992  22.321  0.00  0.00    +0.000 F 
ENDBRANCH   5  28
BRANCH   1  33
ATOM     32  C   UNL     1       4.391   3.427  16.187  0.00  0.00    +0.000 C 
ATOM     33  C   UNL     1       4.908   4.664  16.940  0.00  0.00    +0.000 C 
BRANCH  33  34
ATOM     34  N   UNL     1       6.257   4.499  17.557  0.00  0.00    +0.000 NA
ATOM     35  C   UNL     1       7.334   5.029  16.680  0.00  0.00    +0.000 C 
ATOM     36  C   UNL     1       7.280   6.515  16.899  0.00  0.00    +0.000 C 
ATOM     37  C   UNL     1       8.033   7.236  17.986  0.00  0.00    +0.000 C 
ATOM     38  C   UNL     1       6.650   6.711  18.240  0.00  0.00    +0.000 C 
ATOM     39  C   UNL     1       6.393   5.338  18.786  0.00  0.00    +0.000 C 
ENDBRANCH  33  34
ENDBRANCH   1  33
TORSDOF 7
ENDMDL
MODEL 7
REMARK VINA RESULT:      -8.9      2.586      9.333
REMARK  Name = 
REMARK  9 active torsions:
REMARK  status: ('A' for Active; 'I' for Inactive)
REMARK    1  A    between atoms: C_1  and  C_2
REMARK    2  A    between atoms: C_2  and  C_3
REMARK    3  A    between atoms: C_2  and  N_34
REMARK    4  A    between atoms: C_7  and  C_8
REMARK    5  A    between atoms: N_14  and  C_15
REMARK    6  A    between atoms: C_19  and  C_20
REMARK    7  A    between atoms: C_20  and  C_21
REMARK    8  A    between atoms: C_21  and  C_22
REMARK    9  A    between atoms: N_26  and  C_27
REMARK                            x       y       z     vdW  Elec       q    Type
REMARK                         _______ _______ _______ _____ _____    ______ ____
ROOT
ATOM      1  C   UNL     1       3.795   5.190  17.983  0.00  0.00    +0.000 A 
ATOM      2  C   UNL     1       3.351   6.515  18.033  0.00  0.00    +0.000 A 
ATOM      3  C   UNL     1       2.510   6.871  19.063  0.00  0.00    +0.000 A 
ATOM      4  C   UNL     1       2.076   5.983  20.044  0.00  0.00    +0.000 A 
ATOM      5  C   UNL     1       2.465   4.649  20.000  0.00  0.00    +0.000 A 
ATOM      6  C   UNL     1       3.342   4.267  18.961  0.00  0.00    +0.000 A 
ATOM      7  C   UNL     1       1.236   6.724  21.037  0.00  0.00    +0.000 C 
ATOM      8  N   UNL     1       1.212   8.079  20.500  0.00  0.00    +0.000 N 
ATOM      9  C   UNL     1       1.964   8.196  19.337  0.00  0.00    +0.000 C 
ATOM     10  O   UNL     1       2.206   9.161  18.636  0.00  0.00    +0.000 OA
ENDROOT
BRANCH   8  11
ATOM     11  C   UNL     1       0.486   9.125  21.096  0.00  0.00    +0.000 A 
ATOM     12  C   UNL     1       0.083   9.043  22.430  0.00  0.00    +0.000 A 
ATOM     13  C   UNL     1      -0.626  10.081  23.020  0.00  0.00    +0.000 A 
ATOM     14  C   UNL     1      -0.994  11.184  22.257  0.00  0.00    +0.000 A 
ATOM     15  C   UNL     1      -0.662  11.289  20.889  0.00  0.00    +0.000 A 
ATOM     16  C   UNL     1       0.134  10.258  20.352  0.00  0.00    +0.000 A 
BRANCH  15  17
ATOM     17  C   UNL     1      -1.225  12.479  19.981  0.00  0.00    +0.000 C 
ATOM     18  C   UNL     1      -0.561  13.884  20.080  0.00  0.00    +0.000 C 
ATOM     19  O   UNL     1      -0.508  13.985  18.628  0.00  0.00    +0.000 OA
ATOM     20  C   UNL     1      -0.634  12.544  18.540  0.00  0.00    +0.000 C 
BRANCH  17  21
ATOM     21  C   UNL     1      -2.762  12.522  19.999  0.00  0.00    +0.000 C 
BRANCH  21  22
ATOM     22  C   UNL     1      -3.379  11.769  18.864  0.00  0.00    +0.000 A 
ATOM     23  N   UNL     1      -2.789  10.835  18.144  0.00  0.00    +0.000 NA
ATOM     24  N   UNL     1      -3.692  10.369  17.217  0.00  0.00    +0.000 NA
ATOM     25  C   UNL     1      -4.810  11.030  17.386  0.00  0.00    +0.000 A 
ATOM     26  N   UNL     1      -4.656  11.933  18.393  0.00  0.00    +0.000 N 
ATOM     27  C   UNL     1      -5.660  12.858  18.846  0.00  0.00    +0.000 C 
ENDBRANCH  21  22
ENDBRANCH  17  21
ENDBRANCH  15  17
ENDBRANCH   8  11
BRANCH   5  28
ATOM     28  C   UNL     1       1.994   3.629  21.006  0.00  0.00    +0.000 C 
ATOM     29  F   UNL     1       2.502   2.385  20.794  0.00  0.00    +0.000 F 
ATOM     30  F   UNL     1       2.347   3.961  22.278  0.00  0.00    +0.000 F 
ATOM     31  F   UNL     1       0.641   3.484  21.013  0.00  0.00    +0.000 F 
ENDBRANCH   5  28
BRANCH   1  33
ATOM     32  C   UNL     1       4.267   3.666  16.072  0.00  0.00    +0.000 C 
ATOM     33  C   UNL     1       4.830   4.816  16.923  0.00  0.00    +0.000 C 
BRANCH  33  34
ATOM     34  N   UNL     1       6.162   4.541  17.537  0.00  0.00    +0.000 NA
ATOM     35  C   UNL     1       7.275   5.060  16.698  0.00  0.00    +0.000 C 
ATOM     36  C   UNL     1       7.301   6.531  17.002  0.00  0.00    +0.000 C 
ATOM     37  C   UNL     1       8.083   7.147  18.133  0.00  0.00    +0.000 C 
ATOM     38  C   UNL     1       6.671   6.685  18.348  0.00  0.00    +0.000 C 
ATOM     39  C   UNL     1       6.334   5.299  18.813  0.00  0.00    +0.000 C 
ENDBRANCH  33  34
ENDBRANCH   1  33
TORSDOF 7
ENDMDL
MODEL 8
REMARK VINA RESULT:      -8.9      2.583      9.085
REMARK  Name = 
REMARK  9 active torsions:
REMARK  status: ('A' for Active; 'I' for Inactive)
REMARK    1  A    between atoms: C_1  and  C_2
REMARK    2  A    between atoms: C_2  and  C_3
REMARK    3  A    between atoms: C_2  and  N_34
REMARK    4  A    between atoms: C_7  and  C_8
REMARK    5  A    between atoms: N_14  and  C_15
REMARK    6  A    between atoms: C_19  and  C_20
REMARK    7  A    between atoms: C_20  and  C_21
REMARK    8  A    between atoms: C_21  and  C_22
REMARK    9  A    between atoms: N_26  and  C_27
REMARK                            x       y       z     vdW  Elec       q    Type
REMARK                         _______ _______ _______ _____ _____    ______ ____
ROOT
ATOM      1  C   UNL     1       4.662   4.729  17.340  0.00  0.00    +0.000 A 
ATOM      2  C   UNL     1       4.226   6.054  17.431  0.00  0.00    +0.000 A 
ATOM      3  C   UNL     1       3.318   6.365  18.418  0.00  0.00    +0.000 A 
ATOM      4  C   UNL     1       2.811   5.430  19.317  0.00  0.00    +0.000 A 
ATOM      5  C   UNL     1       3.192   4.096  19.229  0.00  0.00    +0.000 A 
ATOM      6  C   UNL     1       4.136   3.760  18.233  0.00  0.00    +0.000 A 
ATOM      7  C   UNL     1       1.910   6.126  20.289  0.00  0.00    +0.000 C 
ATOM      8  N   UNL     1       1.933   7.509  19.826  0.00  0.00    +0.000 N 
ATOM      9  C   UNL     1       2.764   7.679  18.724  0.00  0.00    +0.000 C 
ATOM     10  O   UNL     1       3.062   8.677  18.095  0.00  0.00    +0.000 OA
ENDROOT
BRANCH   8  11
ATOM     11  C   UNL     1       1.175   8.530  20.426  0.00  0.00    +0.000 A 
ATOM     12  C   UNL     1       1.042   8.596  21.814  0.00  0.00    +0.000 A 
ATOM     13  C   UNL     1       0.301   9.610  22.406  0.00  0.00    +0.000 A 
ATOM     14  C   UNL     1      -0.367  10.531  21.606  0.00  0.00    +0.000 A 
ATOM     15  C   UNL     1      -0.312  10.473  20.197  0.00  0.00    +0.000 A 
ATOM     16  C   UNL     1       0.521   9.485  19.638  0.00  0.00    +0.000 A 
BRANCH  15  17
ATOM     17  C   UNL     1      -1.210  11.432  19.285  0.00  0.00    +0.000 C 
ATOM     18  C   UNL     1      -1.322  12.941  19.656  0.00  0.00    +0.000 C 
ATOM     19  O   UNL     1      -1.078  13.322  18.272  0.00  0.00    +0.000 OA
ATOM     20  C   UNL     1      -0.487  12.020  18.036  0.00  0.00    +0.000 C 
BRANCH  17  21
ATOM     21  C   UNL     1      -2.560  10.781  18.942  0.00  0.00    +0.000 C 
BRANCH  21  22
ATOM     22  C   UNL     1      -2.731  10.531  17.478  0.00  0.00    +0.000 A 
ATOM     23  N   UNL     1      -1.944   9.790  16.723  0.00  0.00    +0.000 NA
ATOM     24  N   UNL     1      -2.448   9.788  15.443  0.00  0.00    +0.000 NA
ATOM     25  C   UNL     1      -3.528  10.531  15.443  0.00  0.00    +0.000 A 
ATOM     26  N   UNL     1      -3.734  11.035  16.690  0.00  0.00    +0.000 N 
ATOM     27  C   UNL     1      -4.806  11.917  17.068  0.00  0.00    +0.000 C 
ENDBRANCH  21  22
ENDBRANCH  17  21
ENDBRANCH  15  17
ENDBRANCH   8  11
BRANCH   5  28
ATOM     28  C   UNL     1       2.645   3.030  20.144  0.00  0.00    +0.000 C 
ATOM     29  F   UNL     1       3.202   1.805  19.941  0.00  0.00    +0.000 F 
ATOM     30  F   UNL     1       2.858   3.320  21.457  0.00  0.00    +0.000 F 
ATOM     31  F   UNL     1       1.303   2.858  20.006  0.00  0.00    +0.000 F 
ENDBRANCH   5  28
BRANCH   1  33
ATOM     32  C   UNL     1       7.124   4.507  17.043  0.00  0.00    +0.000 C 
ATOM     33  C   UNL     1       5.765   4.401  16.334  0.00  0.00    +0.000 C 
BRANCH  33  34
ATOM     34  N   UNL     1       5.639   5.231  15.100  0.00  0.00    +0.000 NA
ATOM     35  C   UNL     1       6.951   5.427  14.429  0.00  0.00    +0.000 C 
ATOM     36  C   UNL     1       7.172   4.139  13.687  0.00  0.00    +0.000 C 
ATOM     37  C   UNL     1       6.679   3.874  12.289  0.00  0.00    +0.000 C 
ATOM     38  C   UNL     1       5.816   3.549  13.472  0.00  0.00    +0.000 C 
ATOM     39  C   UNL     1       4.838   4.526  14.054  0.00  0.00    +0.000 C 
ENDBRANCH  33  34
ENDBRANCH   1  33
TORSDOF 7
ENDMDL
MODEL 9
REMARK VINA RESULT:      -8.9      3.173      9.578
REMARK  Name = 
REMARK  9 active torsions:
REMARK  status: ('A' for Active; 'I' for Inactive)
REMARK    1  A    between atoms: C_1  and  C_2
REMARK    2  A    between atoms: C_2  and  C_3
REMARK    3  A    between atoms: C_2  and  N_34
REMARK    4  A    between atoms: C_7  and  C_8
REMARK    5  A    between atoms: N_14  and  C_15
REMARK    6  A    between atoms: C_19  and  C_20
REMARK    7  A    between atoms: C_20  and  C_21
REMARK    8  A    between atoms: C_21  and  C_22
REMARK    9  A    between atoms: N_26  and  C_27
REMARK                            x       y       z     vdW  Elec       q    Type
REMARK                         _______ _______ _______ _____ _____    ______ ____
ROOT
ATOM      1  C   UNL     1       3.769   5.180  17.974  0.00  0.00    +0.000 A 
ATOM      2  C   UNL     1       3.328   6.503  18.073  0.00  0.00    +0.000 A 
ATOM      3  C   UNL     1       2.497   6.825  19.122  0.00  0.00    +0.000 A 
ATOM      4  C   UNL     1       2.071   5.905  20.076  0.00  0.00    +0.000 A 
ATOM      5  C   UNL     1       2.456   4.572  19.983  0.00  0.00    +0.000 A 
ATOM      6  C   UNL     1       3.323   4.225  18.923  0.00  0.00    +0.000 A 
ATOM      7  C   UNL     1       1.241   6.613  21.102  0.00  0.00    +0.000 C 
ATOM      8  N   UNL     1       1.215   7.986  20.612  0.00  0.00    +0.000 N 
ATOM      9  C   UNL     1       1.956   8.141  19.446  0.00  0.00    +0.000 C 
ATOM     10  O   UNL     1       2.194   9.129  18.776  0.00  0.00    +0.000 OA
ENDROOT
BRANCH   8  11
ATOM     11  C   UNL     1       0.496   9.012  21.249  0.00  0.00    +0.000 A 
ATOM     12  C   UNL     1       0.219   8.944  22.616  0.00  0.00    +0.000 A 
ATOM     13  C   UNL     1      -0.483   9.963  23.247  0.00  0.00    +0.000 A 
ATOM     14  C   UNL     1      -0.970  11.029  22.498  0.00  0.00    +0.000 A 
ATOM     15  C   UNL     1      -0.767  11.115  21.104  0.00  0.00    +0.000 A 
ATOM     16  C   UNL     1       0.025  10.109  20.518  0.00  0.00    +0.000 A 
BRANCH  15  17
ATOM     17  C   UNL     1      -1.465  12.256  20.227  0.00  0.00    +0.000 C 
ATOM     18  C   UNL     1      -2.607  11.861  19.244  0.00  0.00    +0.000 C 
ATOM     19  O   UNL     1      -3.430  12.962  19.725  0.00  0.00    +0.000 OA
ATOM     20  C   UNL     1      -2.633  13.008  20.934  0.00  0.00    +0.000 C 
BRANCH  17  21
ATOM     21  C   UNL     1      -0.426  13.209  19.612  0.00  0.00    +0.000 C 
BRANCH  21  22
ATOM     22  C   UNL     1       0.274  14.046  20.635  0.00  0.00    +0.000 A 
ATOM     23  N   UNL     1       1.244  13.642  21.432  0.00  0.00    +0.000 NA
ATOM     24  N   UNL     1       1.638  14.708  22.206  0.00  0.00    +0.000 NA
ATOM     25  C   UNL     1       0.899  15.736  21.871  0.00  0.00    +0.000 A 
ATOM     26  N   UNL     1       0.015  15.364  20.905  0.00  0.00    +0.000 N 
ATOM     27  C   UNL     1      -0.978  16.217  20.308  0.00  0.00    +0.000 C 
ENDBRANCH  21  22
ENDBRANCH  17  21
ENDBRANCH  15  17
ENDBRANCH   8  11
BRANCH   5  28
ATOM     28  C   UNL     1       1.993   3.520  20.958  0.00  0.00    +0.000 C 
ATOM     29  F   UNL     1       2.322   3.796  22.250  0.00  0.00    +0.000 F 
ATOM     30  F   UNL     1       0.641   3.367  20.947  0.00  0.00    +0.000 F 
ATOM     31  F   UNL     1       2.517   2.292  20.694  0.00  0.00    +0.000 F 
ENDBRANCH   5  28
BRANCH   1  33
ATOM     32  C   UNL     1       4.198   3.759  15.975  0.00  0.00    +0.000 C 
ATOM     33  C   UNL     1       4.793   4.841  16.891  0.00  0.00    +0.000 C 
BRANCH  33  34
ATOM     34  N   UNL     1       6.117   4.495  17.486  0.00  0.00    +0.000 NA
ATOM     35  C   UNL     1       7.243   5.047  16.687  0.00  0.00    +0.000 C 
ATOM     36  C   UNL     1       7.300   6.492  17.094  0.00  0.00    +0.000 C 
ATOM     37  C   UNL     1       8.092   7.009  18.267  0.00  0.00    +0.000 C 
ATOM     38  C   UNL     1       6.670   6.564  18.448  0.00  0.00    +0.000 C 
ATOM     39  C   UNL     1       6.302   5.157  18.813  0.00  0.00    +0.000 C 
ENDBRANCH  33  34
ENDBRANCH   1  33
TORSDOF 7
ENDMDL
