MODEL 1
REMARK VINA RESULT:      -9.3      0.000      0.000
REMARK  Name = 
REMARK  11 active torsions:
REMARK  status: ('A' for Active; 'I' for Inactive)
REMARK    1  A    between atoms: C_1  and  C_2
REMARK    2  A    between atoms: C_2  and  O_3
REMARK    3  A    between atoms: C_2  and  C_4
REMARK    4  A    between atoms: C_4  and  N_5
REMARK    5  A    between atoms: C_8  and  C_9
REMARK    6  A    between atoms: C_9  and  C_10
REMARK    7  A    between atoms: C_9  and  C_11
REMARK    8  A    between atoms: C_11  and  C_12
REMARK    9  A    between atoms: N_16  and  C_17
REMARK   10  A    between atoms: C_19  and  N_20
REMARK   11  A    between atoms: C_27  and  C_28
REMARK                            x       y       z     vdW  Elec       q    Type
REMARK                         _______ _______ _______ _____ _____    ______ ____
ROOT
ATOM      1  N   UNL     1       3.435   3.713  20.025  0.00  0.00    +0.000 N 
ATOM      2  C   UNL     1       3.550   4.938  19.337  0.00  0.00    +0.000 A 
ATOM      3  C   UNL     1       4.601   5.102  18.440  0.00  0.00    +0.000 A 
ATOM      4  C   UNL     1       4.625   6.225  17.610  0.00  0.00    +0.000 A 
ATOM      5  C   UNL     1       3.716   7.253  17.885  0.00  0.00    +0.000 A 
ATOM      6  C   UNL     1       2.776   7.073  18.896  0.00  0.00    +0.000 A 
ATOM      7  N   UNL     1       2.644   5.909  19.554  0.00  0.00    +0.000 NA
ATOM      8  H   UNL     1       3.723   2.968  19.390  0.00  0.00    +0.000 HD
ENDROOT
BRANCH   6   9
ATOM      9  N   UNL     1       1.868   8.089  19.219  0.00  0.00    +0.000 N 
ATOM     10  C   UNL     1       1.354   8.235  20.566  0.00  0.00    +0.000 C 
ATOM     11  C   UNL     1       0.593   9.526  20.488  0.00  0.00    +0.000 A 
ATOM     12  C   UNL     1       0.768  10.088  19.224  0.00  0.00    +0.000 A 
ATOM     13  C   UNL     1       0.211  11.298  18.858  0.00  0.00    +0.000 A 
ATOM     14  C   UNL     1      -0.587  11.948  19.798  0.00  0.00    +0.000 A 
ATOM     15  C   UNL     1      -0.793  11.387  21.072  0.00  0.00    +0.000 A 
ATOM     16  C   UNL     1      -0.192  10.168  21.449  0.00  0.00    +0.000 A 
ATOM     17  C   UNL     1       1.606   9.186  18.418  0.00  0.00    +0.000 C 
ATOM     18  O   UNL     1       1.986   9.444  17.291  0.00  0.00    +0.000 OA
BRANCH  16  19
ATOM     19  C   UNL     1      -0.413   9.621  22.835  0.00  0.00    +0.000 C 
ATOM     20  F   UNL     1      -0.992   8.389  22.850  0.00  0.00    +0.000 F 
ATOM     21  F   UNL     1       0.748   9.495  23.533  0.00  0.00    +0.000 F 
ATOM     22  F   UNL     1      -1.218  10.420  23.585  0.00  0.00    +0.000 F 
ENDBRANCH  16  19
ENDBRANCH   6   9
BRANCH   4  23
ATOM     23  C   UNL     1       5.514   6.270  16.371  0.00  0.00    +0.000 C 
ATOM     24  C   UNL     1       4.832   7.100  15.263  0.00  0.00    +0.000 C 
BRANCH  23  25
ATOM     25  C   UNL     1       5.895   4.864  15.866  0.00  0.00    +0.000 C 
BRANCH  25  26
ATOM     26  C   UNL     1       6.715   4.916  14.618  0.00  0.00    +0.000 A 
ATOM     27  N   UNL     1       7.865   5.544  14.475  0.00  0.00    +0.000 NA
ATOM     28  N   UNL     1       8.344   5.291  13.214  0.00  0.00    +0.000 NA
ATOM     29  C   UNL     1       7.476   4.524  12.599  0.00  0.00    +0.000 A 
ATOM     30  N   UNL     1       6.433   4.276  13.442  0.00  0.00    +0.000 N 
ATOM     31  C   UNL     1       5.267   3.472  13.129  0.00  0.00    +0.000 C 
ENDBRANCH  25  26
ENDBRANCH  23  25
ENDBRANCH   4  23
BRANCH   1  32
ATOM     32  C   UNL     1       2.057   3.437  20.465  0.00  0.00    +0.000 C 
BRANCH  32  34
ATOM     33  C   UNL     1       2.252   2.020  18.367  0.00  0.00    +0.000 C 
ATOM     34  C   UNL     1       1.456   2.277  19.638  0.00  0.00    +0.000 C 
BRANCH  34  35
ATOM     35  O   UNL     1       0.101   2.596  19.288  0.00  0.00    +0.000 OA
ATOM     36  H   UNL     1      -0.046   3.534  19.500  0.00  0.00    +0.000 HD
ENDBRANCH  34  35
ENDBRANCH  32  34
ENDBRANCH   1  32
TORSDOF 8
ENDMDL
MODEL 2
REMARK VINA RESULT:      -9.3      1.696      2.584
REMARK  Name = 
REMARK  11 active torsions:
REMARK  status: ('A' for Active; 'I' for Inactive)
REMARK    1  A    between atoms: C_1  and  C_2
REMARK    2  A    between atoms: C_2  and  O_3
REMARK    3  A    between atoms: C_2  and  C_4
REMARK    4  A    between atoms: C_4  and  N_5
REMARK    5  A    between atoms: C_8  and  C_9
REMARK    6  A    between atoms: C_9  and  C_10
REMARK    7  A    between atoms: C_9  and  C_11
REMARK    8  A    between atoms: C_11  and  C_12
REMARK    9  A    between atoms: N_16  and  C_17
REMARK   10  A    between atoms: C_19  and  N_20
REMARK   11  A    between atoms: C_27  and  C_28
REMARK                            x       y       z     vdW  Elec       q    Type
REMARK                         _______ _______ _______ _____ _____    ______ ____
ROOT
ATOM      1  N   UNL     1       3.610   3.575  20.259  0.00  0.00    +0.000 N 
ATOM      2  C   UNL     1       3.694   4.741  19.472  0.00  0.00    +0.000 A 
ATOM      3  C   UNL     1       4.700   4.827  18.515  0.00  0.00    +0.000 A 
ATOM      4  C   UNL     1       4.685   5.881  17.598  0.00  0.00    +0.000 A 
ATOM      5  C   UNL     1       3.793   6.934  17.836  0.00  0.00    +0.000 A 
ATOM      6  C   UNL     1       2.904   6.839  18.902  0.00  0.00    +0.000 A 
ATOM      7  N   UNL     1       2.802   5.731  19.656  0.00  0.00    +0.000 NA
ATOM      8  H   UNL     1       3.865   2.780  19.672  0.00  0.00    +0.000 HD
ENDROOT
BRANCH   6   9
ATOM      9  N   UNL     1       2.015   7.883  19.188  0.00  0.00    +0.000 N 
ATOM     10  C   UNL     1       1.493   8.079  20.526  0.00  0.00    +0.000 C 
ATOM     11  C   UNL     1       0.760   9.382  20.405  0.00  0.00    +0.000 A 
ATOM     12  C   UNL     1       0.958   9.904  19.127  0.00  0.00    +0.000 A 
ATOM     13  C   UNL     1       0.430  11.114  18.721  0.00  0.00    +0.000 A 
ATOM     14  C   UNL     1      -0.361  11.808  19.635  0.00  0.00    +0.000 A 
ATOM     15  C   UNL     1      -0.590  11.289  20.923  0.00  0.00    +0.000 A 
ATOM     16  C   UNL     1      -0.018  10.068  21.339  0.00  0.00    +0.000 A 
ATOM     17  C   UNL     1       1.783   8.962  18.354  0.00  0.00    +0.000 C 
ATOM     18  O   UNL     1       2.178   9.179  17.224  0.00  0.00    +0.000 OA
BRANCH  16  19
ATOM     19  C   UNL     1      -0.263   9.566  22.738  0.00  0.00    +0.000 C 
ATOM     20  F   UNL     1       0.879   9.352  23.450  0.00  0.00    +0.000 F 
ATOM     21  F   UNL     1      -1.005  10.434  23.478  0.00  0.00    +0.000 F 
ATOM     22  F   UNL     1      -0.938   8.385  22.756  0.00  0.00    +0.000 F 
ENDBRANCH  16  19
ENDBRANCH   6   9
BRANCH   4  23
ATOM     23  C   UNL     1       5.512   5.824  16.318  0.00  0.00    +0.000 C 
ATOM     24  C   UNL     1       4.978   4.710  15.394  0.00  0.00    +0.000 C 
BRANCH  23  25
ATOM     25  C   UNL     1       7.019   5.649  16.596  0.00  0.00    +0.000 C 
BRANCH  25  26
ATOM     26  C   UNL     1       7.593   6.808  17.345  0.00  0.00    +0.000 A 
ATOM     27  N   UNL     1       7.727   8.036  16.884  0.00  0.00    +0.000 NA
ATOM     28  N   UNL     1       8.215   8.827  17.894  0.00  0.00    +0.000 NA
ATOM     29  C   UNL     1       8.386   8.072  18.951  0.00  0.00    +0.000 A 
ATOM     30  N   UNL     1       8.018   6.795  18.645  0.00  0.00    +0.000 N 
ATOM     31  C   UNL     1       8.066   5.662  19.550  0.00  0.00    +0.000 C 
ENDBRANCH  25  26
ENDBRANCH  23  25
ENDBRANCH   4  23
BRANCH   1  32
ATOM     32  C   UNL     1       2.254   3.343  20.787  0.00  0.00    +0.000 C 
BRANCH  32  34
ATOM     33  C   UNL     1       2.318   1.658  18.887  0.00  0.00    +0.000 C 
ATOM     34  C   UNL     1       1.428   2.509  19.781  0.00  0.00    +0.000 C 
BRANCH  34  35
ATOM     35  O   UNL     1       0.646   3.391  18.963  0.00  0.00    +0.000 OA
ATOM     36  H   UNL     1       1.036   4.280  19.030  0.00  0.00    +0.000 HD
ENDBRANCH  34  35
ENDBRANCH  32  34
ENDBRANCH   1  32
TORSDOF 8
ENDMDL
MODEL 3
REMARK VINA RESULT:      -9.2      1.159      1.523
REMARK  Name = 
REMARK  11 active torsions:
REMARK  status: ('A' for Active; 'I' for Inactive)
REMARK    1  A    between atoms: C_1  and  C_2
REMARK    2  A    between atoms: C_2  and  O_3
REMARK    3  A    between atoms: C_2  and  C_4
REMARK    4  A    between atoms: C_4  and  N_5
REMARK    5  A    between atoms: C_8  and  C_9
REMARK    6  A    between atoms: C_9  and  C_10
REMARK    7  A    between atoms: C_9  and  C_11
REMARK    8  A    between atoms: C_11  and  C_12
REMARK    9  A    between atoms: N_16  and  C_17
REMARK   10  A    between atoms: C_19  and  N_20
REMARK   11  A    between atoms: C_27  and  C_28
REMARK                            x       y       z     vdW  Elec       q    Type
REMARK                         _______ _______ _______ _____ _____    ______ ____
ROOT
ATOM      1  N   UNL     1       3.184   2.945  20.181  0.00  0.00    +0.000 N 
ATOM      2  C   UNL     1       3.618   4.237  19.823  0.00  0.00    +0.000 A 
ATOM      3  C   UNL     1       4.963   4.429  19.526  0.00  0.00    +0.000 A 
ATOM      4  C   UNL     1       5.379   5.648  18.985  0.00  0.00    +0.000 A 
ATOM      5  C   UNL     1       4.461   6.705  18.990  0.00  0.00    +0.000 A 
ATOM      6  C   UNL     1       3.163   6.472  19.435  0.00  0.00    +0.000 A 
ATOM      7  N   UNL     1       2.728   5.245  19.769  0.00  0.00    +0.000 NA
ATOM      8  H   UNL     1       3.716   2.271  19.630  0.00  0.00    +0.000 HD
ENDROOT
BRANCH   6   9
ATOM      9  N   UNL     1       2.224   7.509  19.481  0.00  0.00    +0.000 N 
ATOM     10  C   UNL     1       1.586   7.890  20.725  0.00  0.00    +0.000 C 
ATOM     11  C   UNL     1       0.829   9.127  20.341  0.00  0.00    +0.000 A 
ATOM     12  C   UNL     1       1.119   9.451  19.016  0.00  0.00    +0.000 A 
ATOM     13  C   UNL     1       0.593  10.561  18.384  0.00  0.00    +0.000 A 
ATOM     14  C   UNL     1      -0.292  11.355  19.111  0.00  0.00    +0.000 A 
ATOM     15  C   UNL     1      -0.614  11.033  20.442  0.00  0.00    +0.000 A 
ATOM     16  C   UNL     1      -0.045   9.917  21.091  0.00  0.00    +0.000 A 
ATOM     17  C   UNL     1       2.033   8.436  18.470  0.00  0.00    +0.000 C 
ATOM     18  O   UNL     1       2.516   8.490  17.354  0.00  0.00    +0.000 OA
BRANCH  16  19
ATOM     19  C   UNL     1      -0.393   9.629  22.528  0.00  0.00    +0.000 C 
ATOM     20  F   UNL     1      -1.240  10.542  23.079  0.00  0.00    +0.000 F 
ATOM     21  F   UNL     1      -0.996   8.419  22.683  0.00  0.00    +0.000 F 
ATOM     22  F   UNL     1       0.704   9.608  23.333  0.00  0.00    +0.000 F 
ENDBRANCH  16  19
ENDBRANCH   6   9
BRANCH   4  23
ATOM     23  C   UNL     1       6.732   5.784  18.294  0.00  0.00    +0.000 C 
ATOM     24  C   UNL     1       6.754   7.056  17.422  0.00  0.00    +0.000 C 
BRANCH  23  25
ATOM     25  C   UNL     1       7.104   4.532  17.473  0.00  0.00    +0.000 C 
BRANCH  25  26
ATOM     26  C   UNL     1       6.813   4.706  16.018  0.00  0.00    +0.000 A 
ATOM     27  N   UNL     1       7.677   5.083  15.097  0.00  0.00    +0.000 NA
ATOM     28  N   UNL     1       7.053   5.045  13.874  0.00  0.00    +0.000 NA
ATOM     29  C   UNL     1       5.815   4.660  14.066  0.00  0.00    +0.000 A 
ATOM     30  N   UNL     1       5.620   4.448  15.399  0.00  0.00    +0.000 N 
ATOM     31  C   UNL     1       4.378   4.019  16.014  0.00  0.00    +0.000 C 
ENDBRANCH  25  26
ENDBRANCH  23  25
ENDBRANCH   4  23
BRANCH   1  32
ATOM     32  C   UNL     1       1.751   2.733  19.914  0.00  0.00    +0.000 C 
BRANCH  32  34
ATOM     33  C   UNL     1       2.786   1.695  17.840  0.00  0.00    +0.000 C 
ATOM     34  C   UNL     1       1.539   2.332  18.436  0.00  0.00    +0.000 C 
BRANCH  34  35
ATOM     35  O   UNL     1       1.197   3.498  17.672  0.00  0.00    +0.000 OA
ATOM     36  H   UNL     1       0.412   3.282  17.139  0.00  0.00    +0.000 HD
ENDBRANCH  34  35
ENDBRANCH  32  34
ENDBRANCH   1  32
TORSDOF 8
ENDMDL
MODEL 4
REMARK VINA RESULT:      -8.9      1.309      1.809
REMARK  Name = 
REMARK  11 active torsions:
REMARK  status: ('A' for Active; 'I' for Inactive)
REMARK    1  A    between atoms: C_1  and  C_2
REMARK    2  A    between atoms: C_2  and  O_3
REMARK    3  A    between atoms: C_2  and  C_4
REMARK    4  A    between atoms: C_4  and  N_5
REMARK    5  A    between atoms: C_8  and  C_9
REMARK    6  A    between atoms: C_9  and  C_10
REMARK    7  A    between atoms: C_9  and  C_11
REMARK    8  A    between atoms: C_11  and  C_12
REMARK    9  A    between atoms: N_16  and  C_17
REMARK   10  A    between atoms: C_19  and  N_20
REMARK   11  A    between atoms: C_27  and  C_28
REMARK                            x       y       z     vdW  Elec       q    Type
REMARK                         _______ _______ _______ _____ _____    ______ ____
ROOT
ATOM      1  N   UNL     1       3.791   2.752  20.070  0.00  0.00    +0.000 N 
ATOM      2  C   UNL     1       4.157   4.057  19.684  0.00  0.00    +0.000 A 
ATOM      3  C   UNL     1       5.495   4.320  19.410  0.00  0.00    +0.000 A 
ATOM      4  C   UNL     1       5.850   5.547  18.842  0.00  0.00    +0.000 A 
ATOM      5  C   UNL     1       4.872   6.547  18.797  0.00  0.00    +0.000 A 
ATOM      6  C   UNL     1       3.580   6.249  19.221  0.00  0.00    +0.000 A 
ATOM      7  N   UNL     1       3.210   5.008  19.582  0.00  0.00    +0.000 NA
ATOM      8  H   UNL     1       4.374   2.096  19.550  0.00  0.00    +0.000 HD
ENDROOT
BRANCH   6   9
ATOM      9  N   UNL     1       2.581   7.230  19.217  0.00  0.00    +0.000 N 
ATOM     10  C   UNL     1       1.894   7.607  20.436  0.00  0.00    +0.000 C 
ATOM     11  C   UNL     1       1.074   8.786  20.001  0.00  0.00    +0.000 A 
ATOM     12  C   UNL     1       1.374   9.089  18.673  0.00  0.00    +0.000 A 
ATOM     13  C   UNL     1       0.798  10.147  17.997  0.00  0.00    +0.000 A 
ATOM     14  C   UNL     1      -0.149  10.907  18.682  0.00  0.00    +0.000 A 
ATOM     15  C   UNL     1      -0.480  10.605  20.015  0.00  0.00    +0.000 A 
ATOM     16  C   UNL     1       0.139   9.543  20.708  0.00  0.00    +0.000 A 
ATOM     17  C   UNL     1       2.358   8.114  18.176  0.00  0.00    +0.000 C 
ATOM     18  O   UNL     1       2.861   8.166  17.069  0.00  0.00    +0.000 OA
BRANCH  16  19
ATOM     19  C   UNL     1      -0.223   9.276  22.146  0.00  0.00    +0.000 C 
ATOM     20  F   UNL     1      -1.003  10.244  22.702  0.00  0.00    +0.000 F 
ATOM     21  F   UNL     1      -0.909   8.111  22.300  0.00  0.00    +0.000 F 
ATOM     22  F   UNL     1       0.872   9.176  22.947  0.00  0.00    +0.000 F 
ENDBRANCH  16  19
ENDBRANCH   6   9
BRANCH   4  23
ATOM     23  C   UNL     1       7.208   5.744  18.177  0.00  0.00    +0.000 C 
ATOM     24  C   UNL     1       7.222   7.069  17.387  0.00  0.00    +0.000 C 
BRANCH  23  25
ATOM     25  C   UNL     1       7.606   4.552  17.282  0.00  0.00    +0.000 C 
BRANCH  25  26
ATOM     26  C   UNL     1       7.080   4.692  15.891  0.00  0.00    +0.000 A 
ATOM     27  N   UNL     1       7.716   5.244  14.877  0.00  0.00    +0.000 NA
ATOM     28  N   UNL     1       6.941   5.109  13.752  0.00  0.00    +0.000 NA
ATOM     29  C   UNL     1       5.838   4.490  14.095  0.00  0.00    +0.000 A 
ATOM     30  N   UNL     1       5.880   4.221  15.432  0.00  0.00    +0.000 N 
ATOM     31  C   UNL     1       4.843   3.550  16.192  0.00  0.00    +0.000 C 
ENDBRANCH  25  26
ENDBRANCH  23  25
ENDBRANCH   4  23
BRANCH   1  32
ATOM     32  C   UNL     1       2.380   2.448  19.779  0.00  0.00    +0.000 C 
BRANCH  32  34
ATOM     33  C   UNL     1       1.249   2.423  22.053  0.00  0.00    +0.000 C 
ATOM     34  C   UNL     1       1.459   3.204  20.764  0.00  0.00    +0.000 C 
BRANCH  34  35
ATOM     35  O   UNL     1       0.186   3.434  20.142  0.00  0.00    +0.000 OA
ATOM     36  H   UNL     1       0.293   3.287  19.186  0.00  0.00    +0.000 HD
ENDBRANCH  34  35
ENDBRANCH  32  34
ENDBRANCH   1  32
TORSDOF 8
ENDMDL
MODEL 5
REMARK VINA RESULT:      -8.8      4.126      9.867
REMARK  Name = 
REMARK  11 active torsions:
REMARK  status: ('A' for Active; 'I' for Inactive)
REMARK    1  A    between atoms: C_1  and  C_2
REMARK    2  A    between atoms: C_2  and  O_3
REMARK    3  A    between atoms: C_2  and  C_4
REMARK    4  A    between atoms: C_4  and  N_5
REMARK    5  A    between atoms: C_8  and  C_9
REMARK    6  A    between atoms: C_9  and  C_10
REMARK    7  A    between atoms: C_9  and  C_11
REMARK    8  A    between atoms: C_11  and  C_12
REMARK    9  A    between atoms: N_16  and  C_17
REMARK   10  A    between atoms: C_19  and  N_20
REMARK   11  A    between atoms: C_27  and  C_28
REMARK                            x       y       z     vdW  Elec       q    Type
REMARK                         _______ _______ _______ _____ _____    ______ ____
ROOT
ATOM      1  N   UNL     1      -1.978  11.238  17.449  0.00  0.00    +0.000 N 
ATOM      2  C   UNL     1      -1.071  10.946  18.488  0.00  0.00    +0.000 A 
ATOM      3  C   UNL     1      -1.098  11.731  19.636  0.00  0.00    +0.000 A 
ATOM      4  C   UNL     1      -0.347  11.344  20.749  0.00  0.00    +0.000 A 
ATOM      5  C   UNL     1       0.584  10.313  20.575  0.00  0.00    +0.000 A 
ATOM      6  C   UNL     1       0.650   9.661  19.347  0.00  0.00    +0.000 A 
ATOM      7  N   UNL     1      -0.214   9.918  18.349  0.00  0.00    +0.000 NA
ATOM      8  H   UNL     1      -2.855  11.543  17.874  0.00  0.00    +0.000 HD
ENDROOT
BRANCH   6   9
ATOM      9  N   UNL     1       1.586   8.644  19.126  0.00  0.00    +0.000 N 
ATOM     10  C   UNL     1       1.495   7.376  19.820  0.00  0.00    +0.000 C 
ATOM     11  C   UNL     1       2.557   6.556  19.149  0.00  0.00    +0.000 A 
ATOM     12  C   UNL     1       3.112   7.291  18.101  0.00  0.00    +0.000 A 
ATOM     13  C   UNL     1       4.099   6.791  17.275  0.00  0.00    +0.000 A 
ATOM     14  C   UNL     1       4.571   5.507  17.543  0.00  0.00    +0.000 A 
ATOM     15  C   UNL     1       4.040   4.757  18.608  0.00  0.00    +0.000 A 
ATOM     16  C   UNL     1       3.007   5.264  19.426  0.00  0.00    +0.000 A 
ATOM     17  C   UNL     1       2.474   8.617  18.064  0.00  0.00    +0.000 C 
ATOM     18  O   UNL     1       2.705   9.455  17.213  0.00  0.00    +0.000 OA
BRANCH  16  19
ATOM     19  C   UNL     1       2.445   4.413  20.534  0.00  0.00    +0.000 C 
ATOM     20  F   UNL     1       3.103   3.233  20.706  0.00  0.00    +0.000 F 
ATOM     21  F   UNL     1       2.486   5.041  21.741  0.00  0.00    +0.000 F 
ATOM     22  F   UNL     1       1.142   4.084  20.326  0.00  0.00    +0.000 F 
ENDBRANCH  16  19
ENDBRANCH   6   9
BRANCH   4  23
ATOM     23  C   UNL     1      -0.625  11.929  22.129  0.00  0.00    +0.000 C 
ATOM     24  C   UNL     1      -1.103  10.818  23.087  0.00  0.00    +0.000 C 
BRANCH  23  25
ATOM     25  C   UNL     1      -1.628  13.100  22.083  0.00  0.00    +0.000 C 
BRANCH  25  26
ATOM     26  C   UNL     1      -1.572  13.940  23.318  0.00  0.00    +0.000 A 
ATOM     27  N   UNL     1      -0.536  14.644  23.727  0.00  0.00    +0.000 NA
ATOM     28  N   UNL     1      -0.900  15.340  24.852  0.00  0.00    +0.000 NA
ATOM     29  C   UNL     1      -2.147  15.041  25.124  0.00  0.00    +0.000 A 
ATOM     30  N   UNL     1      -2.602  14.156  24.192  0.00  0.00    +0.000 N 
ATOM     31  C   UNL     1      -3.933  13.580  24.152  0.00  0.00    +0.000 C 
ENDBRANCH  25  26
ENDBRANCH  23  25
ENDBRANCH   4  23
BRANCH   1  32
ATOM     32  C   UNL     1      -2.259  10.071  16.596  0.00  0.00    +0.000 C 
BRANCH  32  34
ATOM     33  C   UNL     1      -3.013   9.964  14.173  0.00  0.00    +0.000 C 
ATOM     34  C   UNL     1      -3.376  10.410  15.582  0.00  0.00    +0.000 C 
BRANCH  34  35
ATOM     35  O   UNL     1      -3.603  11.827  15.582  0.00  0.00    +0.000 OA
ATOM     36  H   UNL     1      -2.857  12.246  16.045  0.00  0.00    +0.000 HD
ENDBRANCH  34  35
ENDBRANCH  32  34
ENDBRANCH   1  32
TORSDOF 8
ENDMDL
MODEL 6
REMARK VINA RESULT:      -8.8      1.314      1.876
REMARK  Name = 
REMARK  11 active torsions:
REMARK  status: ('A' for Active; 'I' for Inactive)
REMARK    1  A    between atoms: C_1  and  C_2
REMARK    2  A    between atoms: C_2  and  O_3
REMARK    3  A    between atoms: C_2  and  C_4
REMARK    4  A    between atoms: C_4  and  N_5
REMARK    5  A    between atoms: C_8  and  C_9
REMARK    6  A    between atoms: C_9  and  C_10
REMARK    7  A    between atoms: C_9  and  C_11
REMARK    8  A    between atoms: C_11  and  C_12
REMARK    9  A    between atoms: N_16  and  C_17
REMARK   10  A    between atoms: C_19  and  N_20
REMARK   11  A    between atoms: C_27  and  C_28
REMARK                            x       y       z     vdW  Elec       q    Type
REMARK                         _______ _______ _______ _____ _____    ______ ____
ROOT
ATOM      1  N   UNL     1       2.981   2.633  20.290  0.00  0.00    +0.000 N 
ATOM      2  C   UNL     1       3.514   3.898  19.968  0.00  0.00    +0.000 A 
ATOM      3  C   UNL     1       4.885   4.009  19.757  0.00  0.00    +0.000 A 
ATOM      4  C   UNL     1       5.406   5.202  19.250  0.00  0.00    +0.000 A 
ATOM      5  C   UNL     1       4.554   6.313  19.204  0.00  0.00    +0.000 A 
ATOM      6  C   UNL     1       3.219   6.157  19.565  0.00  0.00    +0.000 A 
ATOM      7  N   UNL     1       2.691   4.957  19.864  0.00  0.00    +0.000 NA
ATOM      8  H   UNL     1       3.505   1.930  19.769  0.00  0.00    +0.000 HD
ENDROOT
BRANCH   6   9
ATOM      9  N   UNL     1       2.343   7.249  19.559  0.00  0.00    +0.000 N 
ATOM     10  C   UNL     1       1.672   7.681  20.768  0.00  0.00    +0.000 C 
ATOM     11  C   UNL     1       1.010   8.957  20.340  0.00  0.00    +0.000 A 
ATOM     12  C   UNL     1       1.379   9.248  19.026  0.00  0.00    +0.000 A 
ATOM     13  C   UNL     1       0.950  10.380  18.361  0.00  0.00    +0.000 A 
ATOM     14  C   UNL     1       0.082  11.233  19.039  0.00  0.00    +0.000 A 
ATOM     15  C   UNL     1      -0.319  10.947  20.357  0.00  0.00    +0.000 A 
ATOM     16  C   UNL     1       0.151   9.806  21.041  0.00  0.00    +0.000 A 
ATOM     17  C   UNL     1       2.255   8.173  18.533  0.00  0.00    +0.000 C 
ATOM     18  O   UNL     1       2.790   8.186  17.440  0.00  0.00    +0.000 OA
BRANCH  16  19
ATOM     19  C   UNL     1      -0.278   9.556  22.463  0.00  0.00    +0.000 C 
ATOM     20  F   UNL     1      -0.988   8.405  22.625  0.00  0.00    +0.000 F 
ATOM     21  F   UNL     1       0.779   9.464  23.315  0.00  0.00    +0.000 F 
ATOM     22  F   UNL     1      -1.067  10.551  22.949  0.00  0.00    +0.000 F 
ENDBRANCH  16  19
ENDBRANCH   6   9
BRANCH   4  23
ATOM     23  C   UNL     1       6.805   5.258  18.647  0.00  0.00    +0.000 C 
ATOM     24  C   UNL     1       7.829   5.670  19.726  0.00  0.00    +0.000 C 
BRANCH  23  25
ATOM     25  C   UNL     1       6.882   6.185  17.417  0.00  0.00    +0.000 C 
BRANCH  25  26
ATOM     26  C   UNL     1       6.629   5.450  16.141  0.00  0.00    +0.000 A 
ATOM     27  N   UNL     1       7.266   4.371  15.732  0.00  0.00    +0.000 NA
ATOM     28  N   UNL     1       6.695   3.948  14.557  0.00  0.00    +0.000 NA
ATOM     29  C   UNL     1       5.728   4.781  14.257  0.00  0.00    +0.000 A 
ATOM     30  N   UNL     1       5.662   5.745  15.219  0.00  0.00    +0.000 N 
ATOM     31  C   UNL     1       4.725   6.852  15.243  0.00  0.00    +0.000 C 
ENDBRANCH  25  26
ENDBRANCH  23  25
ENDBRANCH   4  23
BRANCH   1  32
ATOM     32  C   UNL     1       1.558   2.509  19.932  0.00  0.00    +0.000 C 
BRANCH  32  34
ATOM     33  C   UNL     1       2.718   1.823  17.779  0.00  0.00    +0.000 C 
ATOM     34  C   UNL     1       1.411   2.280  18.410  0.00  0.00    +0.000 C 
BRANCH  34  35
ATOM     35  O   UNL     1       0.991   3.503  17.785  0.00  0.00    +0.000 OA
ATOM     36  H   UNL     1       0.021   3.479  17.710  0.00  0.00    +0.000 HD
ENDBRANCH  34  35
ENDBRANCH  32  34
ENDBRANCH   1  32
TORSDOF 8
ENDMDL
MODEL 7
REMARK VINA RESULT:      -8.6      1.909      2.778
REMARK  Name = 
REMARK  11 active torsions:
REMARK  status: ('A' for Active; 'I' for Inactive)
REMARK    1  A    between atoms: C_1  and  C_2
REMARK    2  A    between atoms: C_2  and  O_3
REMARK    3  A    between atoms: C_2  and  C_4
REMARK    4  A    between atoms: C_4  and  N_5
REMARK    5  A    between atoms: C_8  and  C_9
REMARK    6  A    between atoms: C_9  and  C_10
REMARK    7  A    between atoms: C_9  and  C_11
REMARK    8  A    between atoms: C_11  and  C_12
REMARK    9  A    between atoms: N_16  and  C_17
REMARK   10  A    between atoms: C_19  and  N_20
REMARK   11  A    between atoms: C_27  and  C_28
REMARK                            x       y       z     vdW  Elec       q    Type
REMARK                         _______ _______ _______ _____ _____    ______ ____
ROOT
ATOM      1  N   UNL     1       3.422   3.453  19.658  0.00  0.00    +0.000 N 
ATOM      2  C   UNL     1       3.585   4.692  19.006  0.00  0.00    +0.000 A 
ATOM      3  C   UNL     1       4.637   4.839  18.108  0.00  0.00    +0.000 A 
ATOM      4  C   UNL     1       4.704   5.985  17.311  0.00  0.00    +0.000 A 
ATOM      5  C   UNL     1       3.839   7.041  17.623  0.00  0.00    +0.000 A 
ATOM      6  C   UNL     1       2.897   6.869  18.633  0.00  0.00    +0.000 A 
ATOM      7  N   UNL     1       2.721   5.692  19.258  0.00  0.00    +0.000 NA
ATOM      8  H   UNL     1       3.677   2.715  18.999  0.00  0.00    +0.000 HD
ENDROOT
BRANCH   6   9
ATOM      9  N   UNL     1       2.034   7.911  18.992  0.00  0.00    +0.000 N 
ATOM     10  C   UNL     1       1.553   8.053  20.352  0.00  0.00    +0.000 C 
ATOM     11  C   UNL     1       0.838   9.371  20.312  0.00  0.00    +0.000 A 
ATOM     12  C   UNL     1       1.008   9.949  19.054  0.00  0.00    +0.000 A 
ATOM     13  C   UNL     1       0.488  11.184  18.719  0.00  0.00    +0.000 A 
ATOM     14  C   UNL     1      -0.266  11.846  19.686  0.00  0.00    +0.000 A 
ATOM     15  C   UNL     1      -0.467  11.271  20.955  0.00  0.00    +0.000 A 
ATOM     16  C   UNL     1       0.097  10.024  21.299  0.00  0.00    +0.000 A 
ATOM     17  C   UNL     1       1.796   9.031  18.215  0.00  0.00    +0.000 C 
ATOM     18  O   UNL     1       2.162   9.294  17.085  0.00  0.00    +0.000 OA
BRANCH  16  19
ATOM     19  C   UNL     1      -0.116   9.462  22.680  0.00  0.00    +0.000 C 
ATOM     20  F   UNL     1       1.040   9.237  23.363  0.00  0.00    +0.000 F 
ATOM     21  F   UNL     1      -0.859  10.287  23.467  0.00  0.00    +0.000 F 
ATOM     22  F   UNL     1      -0.773   8.271  22.659  0.00  0.00    +0.000 F 
ENDBRANCH  16  19
ENDBRANCH   6   9
BRANCH   4  23
ATOM     23  C   UNL     1       5.587   6.031  16.069  0.00  0.00    +0.000 C 
ATOM     24  C   UNL     1       5.089   5.006  15.029  0.00  0.00    +0.000 C 
BRANCH  23  25
ATOM     25  C   UNL     1       7.079   5.818  16.398  0.00  0.00    +0.000 C 
BRANCH  25  26
ATOM     26  C   UNL     1       7.627   6.906  17.264  0.00  0.00    +0.000 A 
ATOM     27  N   UNL     1       7.741   8.176  16.930  0.00  0.00    +0.000 NA
ATOM     28  N   UNL     1       8.208   8.871  18.017  0.00  0.00    +0.000 NA
ATOM     29  C   UNL     1       8.387   8.016  18.995  0.00  0.00    +0.000 A 
ATOM     30  N   UNL     1       8.045   6.770  18.560  0.00  0.00    +0.000 N 
ATOM     31  C   UNL     1       8.109   5.553  19.347  0.00  0.00    +0.000 C 
ENDBRANCH  25  26
ENDBRANCH  23  25
ENDBRANCH   4  23
BRANCH   1  32
ATOM     32  C   UNL     1       2.036   3.221  20.098  0.00  0.00    +0.000 C 
BRANCH  32  34
ATOM     33  C   UNL     1       0.975   2.610  22.324  0.00  0.00    +0.000 C 
ATOM     34  C   UNL     1       2.013   2.224  21.280  0.00  0.00    +0.000 C 
BRANCH  34  35
ATOM     35  O   UNL     1       3.309   2.190  21.897  0.00  0.00    +0.000 OA
ATOM     36  H   UNL     1       3.772   3.012  21.658  0.00  0.00    +0.000 HD
ENDBRANCH  34  35
ENDBRANCH  32  34
ENDBRANCH   1  32
TORSDOF 8
ENDMDL
MODEL 8
REMARK VINA RESULT:      -8.5      4.048      9.882
REMARK  Name = 
REMARK  11 active torsions:
REMARK  status: ('A' for Active; 'I' for Inactive)
REMARK    1  A    between atoms: C_1  and  C_2
REMARK    2  A    between atoms: C_2  and  O_3
REMARK    3  A    between atoms: C_2  and  C_4
REMARK    4  A    between atoms: C_4  and  N_5
REMARK    5  A    between atoms: C_8  and  C_9
REMARK    6  A    between atoms: C_9  and  C_10
REMARK    7  A    between atoms: C_9  and  C_11
REMARK    8  A    between atoms: C_11  and  C_12
REMARK    9  A    between atoms: N_16  and  C_17
REMARK   10  A    between atoms: C_19  and  N_20
REMARK   11  A    between atoms: C_27  and  C_28
REMARK                            x       y       z     vdW  Elec       q    Type
REMARK                         _______ _______ _______ _____ _____    ______ ____
ROOT
ATOM      1  N   UNL     1      -1.852  11.479  17.553  0.00  0.00    +0.000 N 
ATOM      2  C   UNL     1      -0.987  11.121  18.607  0.00  0.00    +0.000 A 
ATOM      3  C   UNL     1      -1.006  11.881  19.772  0.00  0.00    +0.000 A 
ATOM      4  C   UNL     1      -0.304  11.434  20.894  0.00  0.00    +0.000 A 
ATOM      5  C   UNL     1       0.580  10.363  20.720  0.00  0.00    +0.000 A 
ATOM      6  C   UNL     1       0.646   9.734  19.479  0.00  0.00    +0.000 A 
ATOM      7  N   UNL     1      -0.178  10.055  18.467  0.00  0.00    +0.000 NA
ATOM      8  H   UNL     1      -2.724  11.817  17.964  0.00  0.00    +0.000 HD
ENDROOT
BRANCH   6   9
ATOM      9  N   UNL     1       1.537   8.678  19.258  0.00  0.00    +0.000 N 
ATOM     10  C   UNL     1       1.403   7.421  19.968  0.00  0.00    +0.000 C 
ATOM     11  C   UNL     1       2.422   6.552  19.293  0.00  0.00    +0.000 A 
ATOM     12  C   UNL     1       2.994   7.252  18.231  0.00  0.00    +0.000 A 
ATOM     13  C   UNL     1       3.949   6.703  17.399  0.00  0.00    +0.000 A 
ATOM     14  C   UNL     1       4.372   5.404  17.675  0.00  0.00    +0.000 A 
ATOM     15  C   UNL     1       3.823   4.688  18.755  0.00  0.00    +0.000 A 
ATOM     16  C   UNL     1       2.823   5.245  19.579  0.00  0.00    +0.000 A 
ATOM     17  C   UNL     1       2.410   8.602  18.187  0.00  0.00    +0.000 C 
ATOM     18  O   UNL     1       2.665   9.421  17.324  0.00  0.00    +0.000 OA
BRANCH  16  19
ATOM     19  C   UNL     1       2.240   4.430  20.704  0.00  0.00    +0.000 C 
ATOM     20  F   UNL     1       2.721   3.157  20.763  0.00  0.00    +0.000 F 
ATOM     21  F   UNL     1       2.488   4.979  21.924  0.00  0.00    +0.000 F 
ATOM     22  F   UNL     1       0.888   4.312  20.613  0.00  0.00    +0.000 F 
ENDBRANCH  16  19
ENDBRANCH   6   9
BRANCH   4  23
ATOM     23  C   UNL     1      -0.589  12.002  22.280  0.00  0.00    +0.000 C 
ATOM     24  C   UNL     1      -1.279  10.936  23.156  0.00  0.00    +0.000 C 
BRANCH  23  25
ATOM     25  C   UNL     1      -1.413  13.305  22.226  0.00  0.00    +0.000 C 
BRANCH  25  26
ATOM     26  C   UNL     1      -2.799  13.117  22.752  0.00  0.00    +0.000 A 
ATOM     27  N   UNL     1      -3.732  12.354  22.217  0.00  0.00    +0.000 NA
ATOM     28  N   UNL     1      -4.835  12.381  23.033  0.00  0.00    +0.000 NA
ATOM     29  C   UNL     1      -4.569  13.170  24.046  0.00  0.00    +0.000 A 
ATOM     30  N   UNL     1      -3.305  13.662  23.901  0.00  0.00    +0.000 N 
ATOM     31  C   UNL     1      -2.644  14.575  24.814  0.00  0.00    +0.000 C 
ENDBRANCH  25  26
ENDBRANCH  23  25
ENDBRANCH   4  23
BRANCH   1  32
ATOM     32  C   UNL     1      -2.167  10.346  16.667  0.00  0.00    +0.000 C 
BRANCH  32  34
ATOM     33  C   UNL     1      -3.524  10.264  14.522  0.00  0.00    +0.000 C 
ATOM     34  C   UNL     1      -3.555  10.550  16.016  0.00  0.00    +0.000 C 
BRANCH  34  35
ATOM     35  O   UNL     1      -3.983  11.904  16.226  0.00  0.00    +0.000 OA
ATOM     36  H   UNL     1      -4.954  11.902  16.275  0.00  0.00    +0.000 HD
ENDBRANCH  34  35
ENDBRANCH  32  34
ENDBRANCH   1  32
TORSDOF 8
ENDMDL
MODEL 9
REMARK VINA RESULT:      -8.5      1.752      2.548
REMARK  Name = 
REMARK  11 active torsions:
REMARK  status: ('A' for Active; 'I' for Inactive)
REMARK    1  A    between atoms: C_1  and  C_2
REMARK    2  A    between atoms: C_2  and  O_3
REMARK    3  A    between atoms: C_2  and  C_4
REMARK    4  A    between atoms: C_4  and  N_5
REMARK    5  A    between atoms: C_8  and  C_9
REMARK    6  A    between atoms: C_9  and  C_10
REMARK    7  A    between atoms: C_9  and  C_11
REMARK    8  A    between atoms: C_11  and  C_12
REMARK    9  A    between atoms: N_16  and  C_17
REMARK   10  A    between atoms: C_19  and  N_20
REMARK   11  A    between atoms: C_27  and  C_28
REMARK                            x       y       z     vdW  Elec       q    Type
REMARK                         _______ _______ _______ _____ _____    ______ ____
ROOT
ATOM      1  N   UNL     1       3.553   3.447  20.191  0.00  0.00    +0.000 N 
ATOM      2  C   UNL     1       3.666   4.588  19.371  0.00  0.00    +0.000 A 
ATOM      3  C   UNL     1       4.642   4.601  18.379  0.00  0.00    +0.000 A 
ATOM      4  C   UNL     1       4.646   5.632  17.436  0.00  0.00    +0.000 A 
ATOM      5  C   UNL     1       3.814   6.732  17.674  0.00  0.00    +0.000 A 
ATOM      6  C   UNL     1       2.957   6.707  18.771  0.00  0.00    +0.000 A 
ATOM      7  N   UNL     1       2.828   5.624  19.558  0.00  0.00    +0.000 NA
ATOM      8  H   UNL     1       3.750   2.627  19.617  0.00  0.00    +0.000 HD
ENDROOT
BRANCH   6   9
ATOM      9  N   UNL     1       2.130   7.799  19.059  0.00  0.00    +0.000 N 
ATOM     10  C   UNL     1       1.579   7.996  20.384  0.00  0.00    +0.000 C 
ATOM     11  C   UNL     1       0.937   9.347  20.277  0.00  0.00    +0.000 A 
ATOM     12  C   UNL     1       1.208   9.887  19.020  0.00  0.00    +0.000 A 
ATOM     13  C   UNL     1       0.773  11.139  18.631  0.00  0.00    +0.000 A 
ATOM     14  C   UNL     1      -0.000  11.860  19.539  0.00  0.00    +0.000 A 
ATOM     15  C   UNL     1      -0.303  11.324  20.805  0.00  0.00    +0.000 A 
ATOM     16  C   UNL     1       0.174  10.059  21.205  0.00  0.00    +0.000 A 
ATOM     17  C   UNL     1       1.995   8.912  18.247  0.00  0.00    +0.000 C 
ATOM     18  O   UNL     1       2.439   9.131  17.136  0.00  0.00    +0.000 OA
BRANCH  16  19
ATOM     19  C   UNL     1      -0.147   9.539  22.582  0.00  0.00    +0.000 C 
ATOM     20  F   UNL     1       0.955   9.292  23.344  0.00  0.00    +0.000 F 
ATOM     21  F   UNL     1      -0.909  10.409  23.300  0.00  0.00    +0.000 F 
ATOM     22  F   UNL     1      -0.843   8.371  22.547  0.00  0.00    +0.000 F 
ENDBRANCH  16  19
ENDBRANCH   6   9
BRANCH   4  23
ATOM     23  C   UNL     1       5.425   5.502  16.131  0.00  0.00    +0.000 C 
ATOM     24  C   UNL     1       4.666   4.583  15.152  0.00  0.00    +0.000 C 
BRANCH  23  25
ATOM     25  C   UNL     1       6.871   5.014  16.353  0.00  0.00    +0.000 C 
BRANCH  25  26
ATOM     26  C   UNL     1       7.409   5.430  17.684  0.00  0.00    +0.000 A 
ATOM     27  N   UNL     1       7.742   4.620  18.669  0.00  0.00    +0.000 NA
ATOM     28  N   UNL     1       8.268   5.373  19.690  0.00  0.00    +0.000 NA
ATOM     29  C   UNL     1       8.237   6.630  19.321  0.00  0.00    +0.000 A 
ATOM     30  N   UNL     1       7.694   6.710  18.073  0.00  0.00    +0.000 N 
ATOM     31  C   UNL     1       7.483   7.932  17.320  0.00  0.00    +0.000 C 
ENDBRANCH  25  26
ENDBRANCH  23  25
ENDBRANCH   4  23
BRANCH   1  32
ATOM     32  C   UNL     1       2.207   3.295  20.769  0.00  0.00    +0.000 C 
BRANCH  32  34
ATOM     33  C   UNL     1       2.041   1.588  18.895  0.00  0.00    +0.000 C 
ATOM     34  C   UNL     1       1.276   2.574  19.767  0.00  0.00    +0.000 C 
BRANCH  34  35
ATOM     35  O   UNL     1       0.640   3.548  18.926  0.00  0.00    +0.000 OA
ATOM     36  H   UNL     1       0.153   3.069  18.234  0.00  0.00    +0.000 HD
ENDBRANCH  34  35
ENDBRANCH  32  34
ENDBRANCH   1  32
TORSDOF 8
ENDMDL
