MODEL 1
REMARK VINA RESULT:      -8.2      0.000      0.000
REMARK  Name = 
REMARK  9 active torsions:
REMARK  status: ('A' for Active; 'I' for Inactive)
REMARK    1  A    between atoms: C_1  and  C_2
REMARK    2  A    between atoms: C_2  and  S_3
REMARK    3  A    between atoms: C_2  and  C_10
REMARK    4  A    between atoms: S_3  and  C_4
REMARK    5  A    between atoms: N_8  and  C_9
REMARK    6  A    between atoms: C_14  and  N_15
REMARK    7  A    between atoms: C_17  and  C_18
REMARK    8  A    between atoms: C_21  and  C_22
REMARK    9  A    between atoms: C_22  and  O_24
REMARK                            x       y       z     vdW  Elec       q    Type
REMARK                         _______ _______ _______ _____ _____    ______ ____
ROOT
ATOM      1  C   UNL     1       2.502   7.279  18.996  0.00  0.00    +0.000 A 
ATOM      2  C   UNL     1       2.384   7.894  17.736  0.00  0.00    +0.000 A 
ATOM      3  C   UNL     1       1.710   9.104  17.579  0.00  0.00    +0.000 A 
ATOM      4  C   UNL     1       1.126   9.726  18.677  0.00  0.00    +0.000 A 
ATOM      5  C   UNL     1       1.220   9.143  19.947  0.00  0.00    +0.000 A 
ATOM      6  C   UNL     1       1.911   7.928  20.103  0.00  0.00    +0.000 A 
ENDROOT
BRANCH   5   7
ATOM      7  N   UNL     1       0.614   9.771  21.066  0.00  0.00    +0.000 N 
ATOM      8  C   UNL     1      -0.219  10.867  21.071  0.00  0.00    +0.000 A 
ATOM      9  C   UNL     1      -0.548  11.066  22.390  0.00  0.00    +0.000 A 
ATOM     10  N   UNL     1       0.086  10.122  23.149  0.00  0.00    +0.000 NA
ATOM     11  N   UNL     1       0.791   9.340  22.338  0.00  0.00    +0.000 NA
BRANCH   9  12
ATOM     12  C   UNL     1      -1.420  12.105  22.910  0.00  0.00    +0.000 A 
ATOM     13  C   UNL     1      -2.710  11.811  23.378  0.00  0.00    +0.000 A 
ATOM     14  C   UNL     1      -3.540  12.819  23.879  0.00  0.00    +0.000 A 
ATOM     15  C   UNL     1      -3.096  14.143  23.918  0.00  0.00    +0.000 A 
ATOM     16  C   UNL     1      -1.803  14.448  23.475  0.00  0.00    +0.000 A 
ATOM     17  C   UNL     1      -0.977  13.435  22.967  0.00  0.00    +0.000 A 
BRANCH  15  18
ATOM     18  C   UNL     1      -4.018  15.163  24.483  0.00  0.00    +0.000 C 
ATOM     19  O   UNL     1      -5.071  15.466  23.950  0.00  0.00    +0.000 OA
BRANCH  18  20
ATOM     20  O   UNL     1      -3.559  15.757  25.604  0.00  0.00    +0.000 OA
ATOM     21  H   UNL     1      -3.912  15.403  26.438  0.00  0.00    +0.000 HD
ENDBRANCH  18  20
ENDBRANCH  15  18
ENDBRANCH   9  12
ENDBRANCH   5   7
BRANCH   1  23
ATOM     22  C   UNL     1       4.590   5.881  18.466  0.00  0.00    +0.000 C 
ATOM     23  C   UNL     1       3.238   5.948  19.194  0.00  0.00    +0.000 C 
BRANCH  23  24
ATOM     24  S   UNL     1       2.155   4.570  18.626  0.00  0.00    +0.000 S 
BRANCH  24  25
ATOM     25  C   UNL     1       2.039   3.587  20.041  0.00  0.00    +0.000 A 
ATOM     26  N   UNL     1       1.062   3.555  20.917  0.00  0.00    +0.000 NA
ATOM     27  N   UNL     1       1.435   2.691  21.925  0.00  0.00    +0.000 NA
ATOM     28  C   UNL     1       2.620   2.211  21.618  0.00  0.00    +0.000 A 
ATOM     29  N   UNL     1       3.028   2.731  20.427  0.00  0.00    +0.000 N 
ATOM     30  C   UNL     1       4.265   2.445  19.754  0.00  0.00    +0.000 C 
ENDBRANCH  24  25
ENDBRANCH  23  24
ENDBRANCH   1  23
TORSDOF 7
ENDMDL
MODEL 2
REMARK VINA RESULT:      -8.1      0.991      1.540
REMARK  Name = 
REMARK  9 active torsions:
REMARK  status: ('A' for Active; 'I' for Inactive)
REMARK    1  A    between atoms: C_1  and  C_2
REMARK    2  A    between atoms: C_2  and  S_3
REMARK    3  A    between atoms: C_2  and  C_10
REMARK    4  A    between atoms: S_3  and  C_4
REMARK    5  A    between atoms: N_8  and  C_9
REMARK    6  A    between atoms: C_14  and  N_15
REMARK    7  A    between atoms: C_17  and  C_18
REMARK    8  A    between atoms: C_21  and  C_22
REMARK    9  A    between atoms: C_22  and  O_24
REMARK                            x       y       z     vdW  Elec       q    Type
REMARK                         _______ _______ _______ _____ _____    ______ ____
ROOT
ATOM      1  C   UNL     1       2.318   7.560  19.198  0.00  0.00    +0.000 A 
ATOM      2  C   UNL     1       2.262   8.208  17.952  0.00  0.00    +0.000 A 
ATOM      3  C   UNL     1       1.624   9.438  17.802  0.00  0.00    +0.000 A 
ATOM      4  C   UNL     1       1.015  10.047  18.893  0.00  0.00    +0.000 A 
ATOM      5  C   UNL     1       1.046   9.430  20.150  0.00  0.00    +0.000 A 
ATOM      6  C   UNL     1       1.702   8.195  20.300  0.00  0.00    +0.000 A 
ENDROOT
BRANCH   5   7
ATOM      7  N   UNL     1       0.415  10.045  21.261  0.00  0.00    +0.000 N 
ATOM      8  C   UNL     1      -0.366  11.178  21.268  0.00  0.00    +0.000 A 
ATOM      9  C   UNL     1      -0.752  11.345  22.577  0.00  0.00    +0.000 A 
ATOM     10  N   UNL     1      -0.202  10.344  23.329  0.00  0.00    +0.000 NA
ATOM     11  N   UNL     1       0.507   9.560  22.524  0.00  0.00    +0.000 NA
BRANCH   9  12
ATOM     12  C   UNL     1      -1.601  12.404  23.094  0.00  0.00    +0.000 A 
ATOM     13  C   UNL     1      -1.133  13.720  23.224  0.00  0.00    +0.000 A 
ATOM     14  C   UNL     1      -1.960  14.732  23.722  0.00  0.00    +0.000 A 
ATOM     15  C   UNL     1      -3.273  14.445  24.103  0.00  0.00    +0.000 A 
ATOM     16  C   UNL     1      -3.762  13.141  23.959  0.00  0.00    +0.000 A 
ATOM     17  C   UNL     1      -2.926  12.128  23.466  0.00  0.00    +0.000 A 
BRANCH  15  18
ATOM     18  C   UNL     1      -4.107  15.569  24.603  0.00  0.00    +0.000 C 
ATOM     19  O   UNL     1      -3.632  16.554  25.141  0.00  0.00    +0.000 OA
BRANCH  18  20
ATOM     20  O   UNL     1      -5.434  15.376  24.454  0.00  0.00    +0.000 OA
ATOM     21  H   UNL     1      -5.985  16.173  24.549  0.00  0.00    +0.000 HD
ENDBRANCH  18  20
ENDBRANCH  15  18
ENDBRANCH   9  12
ENDBRANCH   5   7
BRANCH   1  23
ATOM     22  C   UNL     1       3.209   5.426  18.079  0.00  0.00    +0.000 C 
ATOM     23  C   UNL     1       3.014   6.206  19.389  0.00  0.00    +0.000 C 
BRANCH  23  24
ATOM     24  S   UNL     1       2.042   5.190  20.580  0.00  0.00    +0.000 S 
BRANCH  24  25
ATOM     25  C   UNL     1       1.727   3.757  19.669  0.00  0.00    +0.000 A 
ATOM     26  N   UNL     1       0.686   3.500  18.913  0.00  0.00    +0.000 NA
ATOM     27  N   UNL     1       0.814   2.206  18.454  0.00  0.00    +0.000 NA
ATOM     28  C   UNL     1       1.940   1.725  18.932  0.00  0.00    +0.000 A 
ATOM     29  N   UNL     1       2.559   2.677  19.685  0.00  0.00    +0.000 N 
ATOM     30  C   UNL     1       3.815   2.536  20.370  0.00  0.00    +0.000 C 
ENDBRANCH  24  25
ENDBRANCH  23  24
ENDBRANCH   1  23
TORSDOF 7
ENDMDL
MODEL 3
REMARK VINA RESULT:      -8.1      7.472      9.142
REMARK  Name = 
REMARK  9 active torsions:
REMARK  status: ('A' for Active; 'I' for Inactive)
REMARK    1  A    between atoms: C_1  and  C_2
REMARK    2  A    between atoms: C_2  and  S_3
REMARK    3  A    between atoms: C_2  and  C_10
REMARK    4  A    between atoms: S_3  and  C_4
REMARK    5  A    between atoms: N_8  and  C_9
REMARK    6  A    between atoms: C_14  and  N_15
REMARK    7  A    between atoms: C_17  and  C_18
REMARK    8  A    between atoms: C_21  and  C_22
REMARK    9  A    between atoms: C_22  and  O_24
REMARK                            x       y       z     vdW  Elec       q    Type
REMARK                         _______ _______ _______ _____ _____    ______ ____
ROOT
ATOM      1  C   UNL     1       4.202   5.063  17.106  0.00  0.00    +0.000 A 
ATOM      2  C   UNL     1       4.698   4.212  16.104  0.00  0.00    +0.000 A 
ATOM      3  C   UNL     1       6.017   4.303  15.661  0.00  0.00    +0.000 A 
ATOM      4  C   UNL     1       6.871   5.255  16.204  0.00  0.00    +0.000 A 
ATOM      5  C   UNL     1       6.413   6.123  17.202  0.00  0.00    +0.000 A 
ATOM      6  C   UNL     1       5.085   6.021  17.654  0.00  0.00    +0.000 A 
ENDROOT
BRANCH   5   7
ATOM      7  N   UNL     1       7.281   7.104  17.748  0.00  0.00    +0.000 N 
ATOM      8  C   UNL     1       7.386   8.429  17.394  0.00  0.00    +0.000 A 
ATOM      9  C   UNL     1       8.348   8.952  18.226  0.00  0.00    +0.000 A 
ATOM     10  N   UNL     1       8.811   7.958  19.042  0.00  0.00    +0.000 NA
ATOM     11  N   UNL     1       8.160   6.837  18.745  0.00  0.00    +0.000 NA
BRANCH   9  12
ATOM     12  C   UNL     1       8.810  10.329  18.247  0.00  0.00    +0.000 A 
ATOM     13  C   UNL     1       9.954  10.706  18.966  0.00  0.00    +0.000 A 
ATOM     14  C   UNL     1      10.391  12.034  18.977  0.00  0.00    +0.000 A 
ATOM     15  C   UNL     1       9.688  13.013  18.270  0.00  0.00    +0.000 A 
ATOM     16  C   UNL     1       8.557  12.648  17.530  0.00  0.00    +0.000 A 
ATOM     17  C   UNL     1       8.119  11.316  17.527  0.00  0.00    +0.000 A 
BRANCH  15  18
ATOM     18  C   UNL     1      10.217  14.402  18.304  0.00  0.00    +0.000 C 
ATOM     19  O   UNL     1      10.735  14.886  19.296  0.00  0.00    +0.000 OA
BRANCH  18  20
ATOM     20  O   UNL     1      10.025  15.091  17.160  0.00  0.00    +0.000 OA
ATOM     21  H   UNL     1       9.818  14.551  16.377  0.00  0.00    +0.000 HD
ENDBRANCH  18  20
ENDBRANCH  15  18
ENDBRANCH   9  12
ENDBRANCH   5   7
BRANCH   1  23
ATOM     22  C   UNL     1       2.523   5.732  18.932  0.00  0.00    +0.000 C 
ATOM     23  C   UNL     1       2.755   4.983  17.610  0.00  0.00    +0.000 C 
BRANCH  23  24
ATOM     24  S   UNL     1       2.281   3.214  17.804  0.00  0.00    +0.000 S 
BRANCH  24  25
ATOM     25  C   UNL     1       3.158   2.752  19.218  0.00  0.00    +0.000 A 
ATOM     26  N   UNL     1       4.428   2.431  19.304  0.00  0.00    +0.000 NA
ATOM     27  N   UNL     1       4.673   2.046  20.605  0.00  0.00    +0.000 NA
ATOM     28  C   UNL     1       3.546   2.164  21.273  0.00  0.00    +0.000 A 
ATOM     29  N   UNL     1       2.571   2.627  20.442  0.00  0.00    +0.000 N 
ATOM     30  C   UNL     1       1.204   2.892  20.799  0.00  0.00    +0.000 C 
ENDBRANCH  24  25
ENDBRANCH  23  24
ENDBRANCH   1  23
TORSDOF 7
ENDMDL
MODEL 4
REMARK VINA RESULT:      -8.0      7.674      9.069
REMARK  Name = 
REMARK  9 active torsions:
REMARK  status: ('A' for Active; 'I' for Inactive)
REMARK    1  A    between atoms: C_1  and  C_2
REMARK    2  A    between atoms: C_2  and  S_3
REMARK    3  A    between atoms: C_2  and  C_10
REMARK    4  A    between atoms: S_3  and  C_4
REMARK    5  A    between atoms: N_8  and  C_9
REMARK    6  A    between atoms: C_14  and  N_15
REMARK    7  A    between atoms: C_17  and  C_18
REMARK    8  A    between atoms: C_21  and  C_22
REMARK    9  A    between atoms: C_22  and  O_24
REMARK                            x       y       z     vdW  Elec       q    Type
REMARK                         _______ _______ _______ _____ _____    ______ ____
ROOT
ATOM      1  C   UNL     1       4.466   4.465  16.688  0.00  0.00    +0.000 A 
ATOM      2  C   UNL     1       5.027   3.850  15.555  0.00  0.00    +0.000 A 
ATOM      3  C   UNL     1       6.314   4.164  15.121  0.00  0.00    +0.000 A 
ATOM      4  C   UNL     1       7.070   5.109  15.803  0.00  0.00    +0.000 A 
ATOM      5  C   UNL     1       6.544   5.746  16.934  0.00  0.00    +0.000 A 
ATOM      6  C   UNL     1       5.251   5.418  17.376  0.00  0.00    +0.000 A 
ENDROOT
BRANCH   5   7
ATOM      7  N   UNL     1       7.311   6.720  17.625  0.00  0.00    +0.000 N 
ATOM      8  C   UNL     1       7.484   8.046  17.298  0.00  0.00    +0.000 A 
ATOM      9  C   UNL     1       8.290   8.561  18.285  0.00  0.00    +0.000 A 
ATOM     10  N   UNL     1       8.599   7.562  19.166  0.00  0.00    +0.000 NA
ATOM     11  N   UNL     1       8.003   6.447  18.758  0.00  0.00    +0.000 NA
BRANCH   9  12
ATOM     12  C   UNL     1       8.750   9.935  18.389  0.00  0.00    +0.000 A 
ATOM     13  C   UNL     1       8.211  10.950  17.584  0.00  0.00    +0.000 A 
ATOM     14  C   UNL     1       8.660  12.269  17.695  0.00  0.00    +0.000 A 
ATOM     15  C   UNL     1       9.662  12.599  18.612  0.00  0.00    +0.000 A 
ATOM     16  C   UNL     1      10.194  11.600  19.437  0.00  0.00    +0.000 A 
ATOM     17  C   UNL     1       9.745  10.277  19.317  0.00  0.00    +0.000 A 
BRANCH  15  18
ATOM     18  C   UNL     1      10.079  14.023  18.696  0.00  0.00    +0.000 C 
ATOM     19  O   UNL     1       9.391  14.937  18.276  0.00  0.00    +0.000 OA
BRANCH  18  20
ATOM     20  O   UNL     1      11.305  14.205  19.228  0.00  0.00    +0.000 OA
ATOM     21  H   UNL     1      12.034  14.271  18.587  0.00  0.00    +0.000 HD
ENDBRANCH  18  20
ENDBRANCH  15  18
ENDBRANCH   9  12
ENDBRANCH   5   7
BRANCH   1  23
ATOM     22  C   UNL     1       2.571   5.060  18.316  0.00  0.00    +0.000 C 
ATOM     23  C   UNL     1       3.052   4.137  17.185  0.00  0.00    +0.000 C 
BRANCH  23  24
ATOM     24  S   UNL     1       3.003   2.384  17.748  0.00  0.00    +0.000 S 
BRANCH  24  25
ATOM     25  C   UNL     1       2.418   2.533  19.366  0.00  0.00    +0.000 A 
ATOM     26  N   UNL     1       1.188   2.776  19.754  0.00  0.00    +0.000 NA
ATOM     27  N   UNL     1       1.201   2.898  21.128  0.00  0.00    +0.000 NA
ATOM     28  C   UNL     1       2.438   2.707  21.531  0.00  0.00    +0.000 A 
ATOM     29  N   UNL     1       3.234   2.451  20.455  0.00  0.00    +0.000 N 
ATOM     30  C   UNL     1       4.646   2.184  20.486  0.00  0.00    +0.000 C 
ENDBRANCH  24  25
ENDBRANCH  23  24
ENDBRANCH   1  23
TORSDOF 7
ENDMDL
MODEL 5
REMARK VINA RESULT:      -8.0      5.942     10.546
REMARK  Name = 
REMARK  9 active torsions:
REMARK  status: ('A' for Active; 'I' for Inactive)
REMARK    1  A    between atoms: C_1  and  C_2
REMARK    2  A    between atoms: C_2  and  S_3
REMARK    3  A    between atoms: C_2  and  C_10
REMARK    4  A    between atoms: S_3  and  C_4
REMARK    5  A    between atoms: N_8  and  C_9
REMARK    6  A    between atoms: C_14  and  N_15
REMARK    7  A    between atoms: C_17  and  C_18
REMARK    8  A    between atoms: C_21  and  C_22
REMARK    9  A    between atoms: C_22  and  O_24
REMARK                            x       y       z     vdW  Elec       q    Type
REMARK                         _______ _______ _______ _____ _____    ______ ____
ROOT
ATOM      1  C   UNL     1      -0.398  10.591  20.854  0.00  0.00    +0.000 A 
ATOM      2  C   UNL     1      -0.443  10.574  22.259  0.00  0.00    +0.000 A 
ATOM      3  C   UNL     1       0.196   9.577  22.994  0.00  0.00    +0.000 A 
ATOM      4  C   UNL     1       0.889   8.565  22.341  0.00  0.00    +0.000 A 
ATOM      5  C   UNL     1       0.954   8.546  20.943  0.00  0.00    +0.000 A 
ATOM      6  C   UNL     1       0.318   9.560  20.206  0.00  0.00    +0.000 A 
ENDROOT
BRANCH   5   7
ATOM      7  N   UNL     1       1.651   7.506  20.275  0.00  0.00    +0.000 N 
ATOM      8  C   UNL     1       2.418   7.598  19.136  0.00  0.00    +0.000 A 
ATOM      9  C   UNL     1       2.888   6.327  18.911  0.00  0.00    +0.000 A 
ATOM     10  N   UNL     1       2.401   5.498  19.883  0.00  0.00    +0.000 NA
ATOM     11  N   UNL     1       1.649   6.221  20.708  0.00  0.00    +0.000 NA
BRANCH   9  12
ATOM     12  C   UNL     1       3.757   5.912  17.823  0.00  0.00    +0.000 A 
ATOM     13  C   UNL     1       4.434   6.850  17.029  0.00  0.00    +0.000 A 
ATOM     14  C   UNL     1       5.270   6.439  15.986  0.00  0.00    +0.000 A 
ATOM     15  C   UNL     1       5.442   5.079  15.715  0.00  0.00    +0.000 A 
ATOM     16  C   UNL     1       4.791   4.131  16.513  0.00  0.00    +0.000 A 
ATOM     17  C   UNL     1       3.948   4.549  17.554  0.00  0.00    +0.000 A 
BRANCH  15  18
ATOM     18  C   UNL     1       6.361   4.708  14.607  0.00  0.00    +0.000 C 
ATOM     19  O   UNL     1       6.061   3.902  13.744  0.00  0.00    +0.000 OA
BRANCH  18  20
ATOM     20  O   UNL     1       7.570   5.303  14.675  0.00  0.00    +0.000 OA
ATOM     21  H   UNL     1       7.894   5.490  15.573  0.00  0.00    +0.000 HD
ENDBRANCH  18  20
ENDBRANCH  15  18
ENDBRANCH   9  12
ENDBRANCH   5   7
BRANCH   1  23
ATOM     22  C   UNL     1      -0.587  11.760  18.574  0.00  0.00    +0.000 C 
ATOM     23  C   UNL     1      -1.094  11.678  20.023  0.00  0.00    +0.000 C 
BRANCH  23  24
ATOM     24  S   UNL     1      -0.874  13.306  20.854  0.00  0.00    +0.000 S 
BRANCH  24  25
ATOM     25  C   UNL     1       0.784  13.664  20.530  0.00  0.00    +0.000 A 
ATOM     26  N   UNL     1       1.844  13.086  21.045  0.00  0.00    +0.000 NA
ATOM     27  N   UNL     1       2.954  13.751  20.568  0.00  0.00    +0.000 NA
ATOM     28  C   UNL     1       2.532  14.700  19.762  0.00  0.00    +0.000 A 
ATOM     29  N   UNL     1       1.172  14.666  19.691  0.00  0.00    +0.000 N 
ATOM     30  C   UNL     1       0.339  15.539  18.909  0.00  0.00    +0.000 C 
ENDBRANCH  24  25
ENDBRANCH  23  24
ENDBRANCH   1  23
TORSDOF 7
ENDMDL
MODEL 6
REMARK VINA RESULT:      -8.0      5.944     10.480
REMARK  Name = 
REMARK  9 active torsions:
REMARK  status: ('A' for Active; 'I' for Inactive)
REMARK    1  A    between atoms: C_1  and  C_2
REMARK    2  A    between atoms: C_2  and  S_3
REMARK    3  A    between atoms: C_2  and  C_10
REMARK    4  A    between atoms: S_3  and  C_4
REMARK    5  A    between atoms: N_8  and  C_9
REMARK    6  A    between atoms: C_14  and  N_15
REMARK    7  A    between atoms: C_17  and  C_18
REMARK    8  A    between atoms: C_21  and  C_22
REMARK    9  A    between atoms: C_22  and  O_24
REMARK                            x       y       z     vdW  Elec       q    Type
REMARK                         _______ _______ _______ _____ _____    ______ ____
ROOT
ATOM      1  C   UNL     1       0.124  11.109  20.961  0.00  0.00    +0.000 A 
ATOM      2  C   UNL     1      -0.489  10.853  22.200  0.00  0.00    +0.000 A 
ATOM      3  C   UNL     1      -0.408   9.601  22.805  0.00  0.00    +0.000 A 
ATOM      4  C   UNL     1       0.281   8.567  22.182  0.00  0.00    +0.000 A 
ATOM      5  C   UNL     1       0.902   8.782  20.945  0.00  0.00    +0.000 A 
ATOM      6  C   UNL     1       0.828  10.051  20.344  0.00  0.00    +0.000 A 
ENDROOT
BRANCH   5   7
ATOM      7  N   UNL     1       1.596   7.724  20.303  0.00  0.00    +0.000 N 
ATOM      8  C   UNL     1       2.357   7.786  19.158  0.00  0.00    +0.000 A 
ATOM      9  C   UNL     1       2.826   6.509  18.964  0.00  0.00    +0.000 A 
ATOM     10  N   UNL     1       2.343   5.707  19.961  0.00  0.00    +0.000 NA
ATOM     11  N   UNL     1       1.595   6.452  20.769  0.00  0.00    +0.000 NA
BRANCH   9  12
ATOM     12  C   UNL     1       3.689   6.065  17.884  0.00  0.00    +0.000 A 
ATOM     13  C   UNL     1       4.463   6.973  17.145  0.00  0.00    +0.000 A 
ATOM     14  C   UNL     1       5.292   6.534  16.108  0.00  0.00    +0.000 A 
ATOM     15  C   UNL     1       5.361   5.175  15.788  0.00  0.00    +0.000 A 
ATOM     16  C   UNL     1       4.611   4.255  16.530  0.00  0.00    +0.000 A 
ATOM     17  C   UNL     1       3.775   4.701  17.565  0.00  0.00    +0.000 A 
BRANCH  15  18
ATOM     18  C   UNL     1       6.278   4.771  14.690  0.00  0.00    +0.000 C 
ATOM     19  O   UNL     1       7.431   5.160  14.618  0.00  0.00    +0.000 OA
BRANCH  18  20
ATOM     20  O   UNL     1       5.706   3.981  13.759  0.00  0.00    +0.000 OA
ATOM     21  H   UNL     1       6.035   3.065  13.728  0.00  0.00    +0.000 HD
ENDBRANCH  18  20
ENDBRANCH  15  18
ENDBRANCH   9  12
ENDBRANCH   5   7
BRANCH   1  23
ATOM     22  C   UNL     1      -1.301  12.747  19.589  0.00  0.00    +0.000 C 
ATOM     23  C   UNL     1       0.048  12.479  20.274  0.00  0.00    +0.000 C 
BRANCH  23  24
ATOM     24  S   UNL     1       1.411  12.611  19.041  0.00  0.00    +0.000 S 
BRANCH  24  25
ATOM     25  C   UNL     1       2.604  13.510  19.906  0.00  0.00    +0.000 A 
ATOM     26  N   UNL     1       2.913  13.415  21.178  0.00  0.00    +0.000 NA
ATOM     27  N   UNL     1       3.856  14.384  21.451  0.00  0.00    +0.000 NA
ATOM     28  C   UNL     1       4.103  15.024  20.330  0.00  0.00    +0.000 A 
ATOM     29  N   UNL     1       3.352  14.491  19.326  0.00  0.00    +0.000 N 
ATOM     30  C   UNL     1       3.346  14.915  17.952  0.00  0.00    +0.000 C 
ENDBRANCH  24  25
ENDBRANCH  23  24
ENDBRANCH   1  23
TORSDOF 7
ENDMDL
MODEL 7
REMARK VINA RESULT:      -8.0      6.144     10.896
REMARK  Name = 
REMARK  9 active torsions:
REMARK  status: ('A' for Active; 'I' for Inactive)
REMARK    1  A    between atoms: C_1  and  C_2
REMARK    2  A    between atoms: C_2  and  S_3
REMARK    3  A    between atoms: C_2  and  C_10
REMARK    4  A    between atoms: S_3  and  C_4
REMARK    5  A    between atoms: N_8  and  C_9
REMARK    6  A    between atoms: C_14  and  N_15
REMARK    7  A    between atoms: C_17  and  C_18
REMARK    8  A    between atoms: C_21  and  C_22
REMARK    9  A    between atoms: C_22  and  O_24
REMARK                            x       y       z     vdW  Elec       q    Type
REMARK                         _______ _______ _______ _____ _____    ______ ____
ROOT
ATOM      1  C   UNL     1      -0.079  10.842  20.482  0.00  0.00    +0.000 A 
ATOM      2  C   UNL     1      -0.408  10.752  21.847  0.00  0.00    +0.000 A 
ATOM      3  C   UNL     1      -0.020   9.656  22.615  0.00  0.00    +0.000 A 
ATOM      4  C   UNL     1       0.698   8.616  22.037  0.00  0.00    +0.000 A 
ATOM      5  C   UNL     1       1.040   8.668  20.680  0.00  0.00    +0.000 A 
ATOM      6  C   UNL     1       0.658   9.781  19.911  0.00  0.00    +0.000 A 
ENDROOT
BRANCH   5   7
ATOM      7  N   UNL     1       1.763   7.601  20.086  0.00  0.00    +0.000 N 
ATOM      8  C   UNL     1       2.542   7.637  18.953  0.00  0.00    +0.000 A 
ATOM      9  C   UNL     1       3.036   6.362  18.811  0.00  0.00    +0.000 A 
ATOM     10  N   UNL     1       2.550   5.586  19.827  0.00  0.00    +0.000 NA
ATOM     11  N   UNL     1       1.776   6.345  20.597  0.00  0.00    +0.000 NA
BRANCH   9  12
ATOM     12  C   UNL     1       3.925   5.897  17.761  0.00  0.00    +0.000 A 
ATOM     13  C   UNL     1       4.477   6.782  16.823  0.00  0.00    +0.000 A 
ATOM     14  C   UNL     1       5.334   6.323  15.818  0.00  0.00    +0.000 A 
ATOM     15  C   UNL     1       5.653   4.965  15.730  0.00  0.00    +0.000 A 
ATOM     16  C   UNL     1       5.127   4.073  16.672  0.00  0.00    +0.000 A 
ATOM     17  C   UNL     1       4.263   4.537  17.674  0.00  0.00    +0.000 A 
BRANCH  15  18
ATOM     18  C   UNL     1       6.586   4.545  14.652  0.00  0.00    +0.000 C 
ATOM     19  O   UNL     1       7.594   5.171  14.372  0.00  0.00    +0.000 OA
BRANCH  18  20
ATOM     20  O   UNL     1       6.191   3.443  13.982  0.00  0.00    +0.000 OA
ATOM     21  H   UNL     1       6.750   2.656  14.104  0.00  0.00    +0.000 HD
ENDBRANCH  18  20
ENDBRANCH  15  18
ENDBRANCH   9  12
ENDBRANCH   5   7
BRANCH   1  23
ATOM     22  C   UNL     1      -1.586  11.699  18.586  0.00  0.00    +0.000 C 
ATOM     23  C   UNL     1      -0.495  12.038  19.615  0.00  0.00    +0.000 C 
BRANCH  23  24
ATOM     24  S   UNL     1       0.991  12.701  18.752  0.00  0.00    +0.000 S 
BRANCH  24  25
ATOM     25  C   UNL     1       0.752  14.408  18.869  0.00  0.00    +0.000 A 
ATOM     26  N   UNL     1      -0.358  15.044  19.159  0.00  0.00    +0.000 NA
ATOM     27  N   UNL     1      -0.104  16.395  19.051  0.00  0.00    +0.000 NA
ATOM     28  C   UNL     1       1.160  16.536  18.718  0.00  0.00    +0.000 A 
ATOM     29  N   UNL     1       1.743  15.309  18.614  0.00  0.00    +0.000 N 
ATOM     30  C   UNL     1       3.114  15.046  18.273  0.00  0.00    +0.000 C 
ENDBRANCH  24  25
ENDBRANCH  23  24
ENDBRANCH   1  23
TORSDOF 7
ENDMDL
MODEL 8
REMARK VINA RESULT:      -8.0      6.145     10.750
REMARK  Name = 
REMARK  9 active torsions:
REMARK  status: ('A' for Active; 'I' for Inactive)
REMARK    1  A    between atoms: C_1  and  C_2
REMARK    2  A    between atoms: C_2  and  S_3
REMARK    3  A    between atoms: C_2  and  C_10
REMARK    4  A    between atoms: S_3  and  C_4
REMARK    5  A    between atoms: N_8  and  C_9
REMARK    6  A    between atoms: C_14  and  N_15
REMARK    7  A    between atoms: C_17  and  C_18
REMARK    8  A    between atoms: C_21  and  C_22
REMARK    9  A    between atoms: C_22  and  O_24
REMARK                            x       y       z     vdW  Elec       q    Type
REMARK                         _______ _______ _______ _____ _____    ______ ____
ROOT
ATOM      1  C   UNL     1       0.010  10.654  20.261  0.00  0.00    +0.000 A 
ATOM      2  C   UNL     1      -0.360  10.517  21.610  0.00  0.00    +0.000 A 
ATOM      3  C   UNL     1       0.043   9.417  22.365  0.00  0.00    +0.000 A 
ATOM      4  C   UNL     1       0.820   8.420  21.787  0.00  0.00    +0.000 A 
ATOM      5  C   UNL     1       1.205   8.520  20.444  0.00  0.00    +0.000 A 
ATOM      6  C   UNL     1       0.806   9.637  19.689  0.00  0.00    +0.000 A 
ENDROOT
BRANCH   5   7
ATOM      7  N   UNL     1       1.988   7.496  19.850  0.00  0.00    +0.000 N 
ATOM      8  C   UNL     1       2.646   7.531  18.641  0.00  0.00    +0.000 A 
ATOM      9  C   UNL     1       3.270   6.311  18.533  0.00  0.00    +0.000 A 
ATOM     10  N   UNL     1       2.977   5.567  19.642  0.00  0.00    +0.000 NA
ATOM     11  N   UNL     1       2.197   6.293  20.437  0.00  0.00    +0.000 NA
BRANCH   9  12
ATOM     12  C   UNL     1       4.103   5.867  17.429  0.00  0.00    +0.000 A 
ATOM     13  C   UNL     1       4.373   4.506  17.217  0.00  0.00    +0.000 A 
ATOM     14  C   UNL     1       5.175   4.091  16.150  0.00  0.00    +0.000 A 
ATOM     15  C   UNL     1       5.727   5.030  15.275  0.00  0.00    +0.000 A 
ATOM     16  C   UNL     1       5.449   6.390  15.461  0.00  0.00    +0.000 A 
ATOM     17  C   UNL     1       4.649   6.803  16.537  0.00  0.00    +0.000 A 
BRANCH  15  18
ATOM     18  C   UNL     1       6.552   4.522  14.148  0.00  0.00    +0.000 C 
ATOM     19  O   UNL     1       7.358   5.218  13.555  0.00  0.00    +0.000 OA
BRANCH  18  20
ATOM     20  O   UNL     1       6.291   3.242  13.810  0.00  0.00    +0.000 OA
ATOM     21  H   UNL     1       7.045   2.743  13.451  0.00  0.00    +0.000 HD
ENDBRANCH  18  20
ENDBRANCH  15  18
ENDBRANCH   9  12
ENDBRANCH   5   7
BRANCH   1  23
ATOM     22  C   UNL     1       0.737  12.794  19.040  0.00  0.00    +0.000 C 
ATOM     23  C   UNL     1      -0.423  11.855  19.409  0.00  0.00    +0.000 C 
BRANCH  23  24
ATOM     24  S   UNL     1      -1.725  12.796  20.309  0.00  0.00    +0.000 S 
BRANCH  24  25
ATOM     25  C   UNL     1      -3.167  12.289  19.505  0.00  0.00    +0.000 A 
ATOM     26  N   UNL     1      -3.265  11.648  18.365  0.00  0.00    +0.000 NA
ATOM     27  N   UNL     1      -4.607  11.532  18.066  0.00  0.00    +0.000 NA
ATOM     28  C   UNL     1      -5.281  12.092  19.047  0.00  0.00    +0.000 A 
ATOM     29  N   UNL     1      -4.413  12.562  19.986  0.00  0.00    +0.000 N 
ATOM     30  C   UNL     1      -4.764  13.232  21.208  0.00  0.00    +0.000 C 
ENDBRANCH  24  25
ENDBRANCH  23  24
ENDBRANCH   1  23
TORSDOF 7
ENDMDL
MODEL 9
REMARK VINA RESULT:      -8.0      5.841     10.508
REMARK  Name = 
REMARK  9 active torsions:
REMARK  status: ('A' for Active; 'I' for Inactive)
REMARK    1  A    between atoms: C_1  and  C_2
REMARK    2  A    between atoms: C_2  and  S_3
REMARK    3  A    between atoms: C_2  and  C_10
REMARK    4  A    between atoms: S_3  and  C_4
REMARK    5  A    between atoms: N_8  and  C_9
REMARK    6  A    between atoms: C_14  and  N_15
REMARK    7  A    between atoms: C_17  and  C_18
REMARK    8  A    between atoms: C_21  and  C_22
REMARK    9  A    between atoms: C_22  and  O_24
REMARK                            x       y       z     vdW  Elec       q    Type
REMARK                         _______ _______ _______ _____ _____    ______ ____
ROOT
ATOM      1  C   UNL     1      -0.406  11.041  20.682  0.00  0.00    +0.000 A 
ATOM      2  C   UNL     1      -0.692  10.981  22.057  0.00  0.00    +0.000 A 
ATOM      3  C   UNL     1      -0.259   9.914  22.842  0.00  0.00    +0.000 A 
ATOM      4  C   UNL     1       0.463   8.873  22.269  0.00  0.00    +0.000 A 
ATOM      5  C   UNL     1       0.765   8.897  20.902  0.00  0.00    +0.000 A 
ATOM      6  C   UNL     1       0.336   9.981  20.116  0.00  0.00    +0.000 A 
ENDROOT
BRANCH   5   7
ATOM      7  N   UNL     1       1.492   7.829  20.314  0.00  0.00    +0.000 N 
ATOM      8  C   UNL     1       2.252   7.856  19.168  0.00  0.00    +0.000 A 
ATOM      9  C   UNL     1       2.760   6.586  19.040  0.00  0.00    +0.000 A 
ATOM     10  N   UNL     1       2.301   5.821  20.076  0.00  0.00    +0.000 NA
ATOM     11  N   UNL     1       1.529   6.582  20.845  0.00  0.00    +0.000 NA
BRANCH   9  12
ATOM     12  C   UNL     1       3.639   6.114  17.983  0.00  0.00    +0.000 A 
ATOM     13  C   UNL     1       3.748   4.749  17.676  0.00  0.00    +0.000 A 
ATOM     14  C   UNL     1       4.596   4.307  16.656  0.00  0.00    +0.000 A 
ATOM     15  C   UNL     1       5.355   5.224  15.924  0.00  0.00    +0.000 A 
ATOM     16  C   UNL     1       5.241   6.591  16.204  0.00  0.00    +0.000 A 
ATOM     17  C   UNL     1       4.394   7.029  17.233  0.00  0.00    +0.000 A 
BRANCH  15  18
ATOM     18  C   UNL     1       6.219   4.692  14.838  0.00  0.00    +0.000 C 
ATOM     19  O   UNL     1       7.426   4.861  14.813  0.00  0.00    +0.000 OA
BRANCH  18  20
ATOM     20  O   UNL     1       5.543   4.053  13.861  0.00  0.00    +0.000 OA
ATOM     21  H   UNL     1       4.947   3.344  14.160  0.00  0.00    +0.000 HD
ENDBRANCH  18  20
ENDBRANCH  15  18
ENDBRANCH   9  12
ENDBRANCH   5   7
BRANCH   1  23
ATOM     22  C   UNL     1      -1.891  11.788  18.724  0.00  0.00    +0.000 C 
ATOM     23  C   UNL     1      -0.873  12.205  19.796  0.00  0.00    +0.000 C 
BRANCH  23  24
ATOM     24  S   UNL     1       0.595  12.978  18.996  0.00  0.00    +0.000 S 
BRANCH  24  25
ATOM     25  C   UNL     1       1.336  13.812  20.314  0.00  0.00    +0.000 A 
ATOM     26  N   UNL     1       2.305  13.385  21.089  0.00  0.00    +0.000 NA
ATOM     27  N   UNL     1       2.515  14.343  22.059  0.00  0.00    +0.000 NA
ATOM     28  C   UNL     1       1.680  15.331  21.828  0.00  0.00    +0.000 A 
ATOM     29  N   UNL     1       0.933  15.048  20.724  0.00  0.00    +0.000 N 
ATOM     30  C   UNL     1      -0.085  15.884  20.149  0.00  0.00    +0.000 C 
ENDBRANCH  24  25
ENDBRANCH  23  24
ENDBRANCH   1  23
TORSDOF 7
ENDMDL
