MODEL 1
REMARK VINA RESULT:      -8.5      0.000      0.000
REMARK  Name = 
REMARK  11 active torsions:
REMARK  status: ('A' for Active; 'I' for Inactive)
REMARK    1  A    between atoms: C_1  and  C_2
REMARK    2  A    between atoms: C_2  and  O_3
REMARK    3  A    between atoms: C_2  and  C_4
REMARK    4  A    between atoms: C_7  and  C_9
REMARK    5  A    between atoms: C_13  and  C_14
REMARK    6  A    between atoms: N_16  and  C_17
REMARK    7  A    between atoms: C_21  and  C_22
REMARK    8  A    between atoms: C_22  and  C_23
REMARK    9  A    between atoms: C_22  and  C_24
REMARK   10  A    between atoms: C_24  and  C_25
REMARK   11  A    between atoms: N_29  and  C_30
REMARK                            x       y       z     vdW  Elec       q    Type
REMARK                         _______ _______ _______ _____ _____    ______ ____
ROOT
ATOM      1  C   UNL     1       1.522   6.020  20.553  0.00  0.00    +0.000 C 
ATOM      2  O   UNL     1       0.358   5.661  20.652  0.00  0.00    +0.000 OA
ATOM      3  N   UNL     1       2.009   7.318  20.648  0.00  0.00    +0.000 N 
ATOM      4  H   UNL     1       2.988   7.439  20.416  0.00  0.00    +0.000 HD
ENDROOT
BRANCH   1   9
ATOM      5  C   UNL     1       4.718   4.378  19.447  0.00  0.00    +0.000 A 
ATOM      6  C   UNL     1       4.423   3.059  19.786  0.00  0.00    +0.000 A 
ATOM      7  C   UNL     1       3.171   2.764  20.298  0.00  0.00    +0.000 A 
ATOM      8  N   UNL     1       2.222   3.691  20.537  0.00  0.00    +0.000 NA
ATOM      9  C   UNL     1       2.558   4.977  20.257  0.00  0.00    +0.000 A 
ATOM     10  C   UNL     1       3.778   5.369  19.718  0.00  0.00    +0.000 A 
BRANCH   5  14
ATOM     11  C   UNL     1       6.802   3.904  15.691  0.00  0.00    +0.000 C 
ATOM     12  C   UNL     1       7.460   4.812  16.755  0.00  0.00    +0.000 C 
ATOM     13  N   UNL     1       6.283   4.487  17.555  0.00  0.00    +0.000 N 
ATOM     14  C   UNL     1       6.034   4.768  18.874  0.00  0.00    +0.000 C 
ATOM     15  O   UNL     1       6.864   5.309  19.599  0.00  0.00    +0.000 OA
ATOM     16  C   UNL     1       5.463   4.273  16.373  0.00  0.00    +0.000 C 
BRANCH  11  18
ATOM     17  C   UNL     1       5.544   4.309  13.566  0.00  0.00    +0.000 C 
ATOM     18  C   UNL     1       6.917   4.242  14.218  0.00  0.00    +0.000 C 
BRANCH  18  19
ATOM     19  O   UNL     1       7.560   5.509  14.111  0.00  0.00    +0.000 OA
ATOM     20  H   UNL     1       7.075   6.045  13.458  0.00  0.00    +0.000 HD
ENDBRANCH  18  19
ENDBRANCH  11  18
ENDBRANCH   5  14
ENDBRANCH   1   9
BRANCH   3  21
ATOM     21  C   UNL     1       1.231   8.466  20.936  0.00  0.00    +0.000 A 
ATOM     22  C   UNL     1       0.888   8.811  22.246  0.00  0.00    +0.000 A 
ATOM     23  C   UNL     1       0.111   9.932  22.514  0.00  0.00    +0.000 A 
ATOM     24  C   UNL     1      -0.343  10.728  21.469  0.00  0.00    +0.000 A 
ATOM     25  C   UNL     1      -0.017  10.420  20.139  0.00  0.00    +0.000 A 
ATOM     26  C   UNL     1       0.793   9.291  19.885  0.00  0.00    +0.000 A 
BRANCH  25  27
ATOM     27  C   UNL     1      -0.528  11.302  19.000  0.00  0.00    +0.000 C 
ATOM     28  C   UNL     1       0.035  12.724  19.148  0.00  0.00    +0.000 C 
BRANCH  27  29
ATOM     29  C   UNL     1      -2.075  11.309  18.949  0.00  0.00    +0.000 C 
BRANCH  29  30
ATOM     30  C   UNL     1      -2.609  10.994  17.589  0.00  0.00    +0.000 A 
ATOM     31  N   UNL     1      -1.946  10.426  16.601  0.00  0.00    +0.000 NA
ATOM     32  N   UNL     1      -2.792  10.306  15.525  0.00  0.00    +0.000 NA
ATOM     33  C   UNL     1      -3.955  10.798  15.877  0.00  0.00    +0.000 A 
ATOM     34  N   UNL     1      -3.885  11.257  17.155  0.00  0.00    +0.000 N 
ATOM     35  C   UNL     1      -4.947  11.901  17.881  0.00  0.00    +0.000 C 
ENDBRANCH  29  30
ENDBRANCH  27  29
ENDBRANCH  25  27
ENDBRANCH   3  21
TORSDOF 8
ENDMDL
MODEL 2
REMARK VINA RESULT:      -8.4      1.639      2.098
REMARK  Name = 
REMARK  11 active torsions:
REMARK  status: ('A' for Active; 'I' for Inactive)
REMARK    1  A    between atoms: C_1  and  C_2
REMARK    2  A    between atoms: C_2  and  O_3
REMARK    3  A    between atoms: C_2  and  C_4
REMARK    4  A    between atoms: C_7  and  C_9
REMARK    5  A    between atoms: C_13  and  C_14
REMARK    6  A    between atoms: N_16  and  C_17
REMARK    7  A    between atoms: C_21  and  C_22
REMARK    8  A    between atoms: C_22  and  C_23
REMARK    9  A    between atoms: C_22  and  C_24
REMARK   10  A    between atoms: C_24  and  C_25
REMARK   11  A    between atoms: N_29  and  C_30
REMARK                            x       y       z     vdW  Elec       q    Type
REMARK                         _______ _______ _______ _____ _____    ______ ____
ROOT
ATOM      1  C   UNL     1       2.517   6.578  18.690  0.00  0.00    +0.000 C 
ATOM      2  O   UNL     1       1.603   6.440  17.891  0.00  0.00    +0.000 OA
ATOM      3  N   UNL     1       2.569   7.464  19.759  0.00  0.00    +0.000 N 
ATOM      4  H   UNL     1       3.460   7.525  20.238  0.00  0.00    +0.000 HD
ENDROOT
BRANCH   1   9
ATOM      5  C   UNL     1       5.722   5.218  17.272  0.00  0.00    +0.000 A 
ATOM      6  C   UNL     1       5.997   4.244  18.229  0.00  0.00    +0.000 A 
ATOM      7  C   UNL     1       5.087   4.037  19.253  0.00  0.00    +0.000 A 
ATOM      8  N   UNL     1       3.961   4.759  19.411  0.00  0.00    +0.000 NA
ATOM      9  C   UNL     1       3.749   5.745  18.501  0.00  0.00    +0.000 A 
ATOM     10  C   UNL     1       4.589   6.012  17.426  0.00  0.00    +0.000 A 
BRANCH   5  14
ATOM     11  C   UNL     1       6.436   3.594  13.332  0.00  0.00    +0.000 C 
ATOM     12  C   UNL     1       7.205   4.879  13.716  0.00  0.00    +0.000 C 
ATOM     13  N   UNL     1       6.476   4.767  14.977  0.00  0.00    +0.000 N 
ATOM     14  C   UNL     1       6.642   5.484  16.133  0.00  0.00    +0.000 C 
ATOM     15  O   UNL     1       7.532   6.320  16.268  0.00  0.00    +0.000 OA
ATOM     16  C   UNL     1       5.367   4.070  14.344  0.00  0.00    +0.000 C 
BRANCH  11  18
ATOM     17  C   UNL     1       6.448   2.051  11.361  0.00  0.00    +0.000 C 
ATOM     18  C   UNL     1       5.959   3.384  11.908  0.00  0.00    +0.000 C 
BRANCH  18  19
ATOM     19  O   UNL     1       4.534   3.403  11.919  0.00  0.00    +0.000 OA
ATOM     20  H   UNL     1       4.224   3.665  11.034  0.00  0.00    +0.000 HD
ENDBRANCH  18  19
ENDBRANCH  11  18
ENDBRANCH   5  14
ENDBRANCH   1   9
BRANCH   3  21
ATOM     21  C   UNL     1       1.528   8.342  20.148  0.00  0.00    +0.000 A 
ATOM     22  C   UNL     1       0.864   8.198  21.369  0.00  0.00    +0.000 A 
ATOM     23  C   UNL     1      -0.168   9.055  21.732  0.00  0.00    +0.000 A 
ATOM     24  C   UNL     1      -0.559  10.074  20.872  0.00  0.00    +0.000 A 
ATOM     25  C   UNL     1       0.085  10.258  19.639  0.00  0.00    +0.000 A 
ATOM     26  C   UNL     1       1.147   9.392  19.294  0.00  0.00    +0.000 A 
BRANCH  25  27
ATOM     27  C   UNL     1      -0.359  11.380  18.700  0.00  0.00    +0.000 C 
ATOM     28  C   UNL     1       0.585  12.584  18.843  0.00  0.00    +0.000 C 
BRANCH  27  29
ATOM     29  C   UNL     1      -1.831  11.781  18.965  0.00  0.00    +0.000 C 
BRANCH  29  30
ATOM     30  C   UNL     1      -2.721  11.517  17.793  0.00  0.00    +0.000 A 
ATOM     31  N   UNL     1      -2.335  11.170  16.581  0.00  0.00    +0.000 NA
ATOM     32  N   UNL     1      -3.453  11.017  15.798  0.00  0.00    +0.000 NA
ATOM     33  C   UNL     1      -4.500  11.267  16.547  0.00  0.00    +0.000 A 
ATOM     34  N   UNL     1      -4.091  11.602  17.800  0.00  0.00    +0.000 N 
ATOM     35  C   UNL     1      -4.944  11.981  18.894  0.00  0.00    +0.000 C 
ENDBRANCH  29  30
ENDBRANCH  27  29
ENDBRANCH  25  27
ENDBRANCH   3  21
TORSDOF 8
ENDMDL
MODEL 3
REMARK VINA RESULT:      -8.3      2.606      3.595
REMARK  Name = 
REMARK  11 active torsions:
REMARK  status: ('A' for Active; 'I' for Inactive)
REMARK    1  A    between atoms: C_1  and  C_2
REMARK    2  A    between atoms: C_2  and  O_3
REMARK    3  A    between atoms: C_2  and  C_4
REMARK    4  A    between atoms: C_7  and  C_9
REMARK    5  A    between atoms: C_13  and  C_14
REMARK    6  A    between atoms: N_16  and  C_17
REMARK    7  A    between atoms: C_21  and  C_22
REMARK    8  A    between atoms: C_22  and  C_23
REMARK    9  A    between atoms: C_22  and  C_24
REMARK   10  A    between atoms: C_24  and  C_25
REMARK   11  A    between atoms: N_29  and  C_30
REMARK                            x       y       z     vdW  Elec       q    Type
REMARK                         _______ _______ _______ _____ _____    ______ ____
ROOT
ATOM      1  C   UNL     1       1.969   7.464  19.959  0.00  0.00    +0.000 C 
ATOM      2  O   UNL     1       2.023   8.200  18.984  0.00  0.00    +0.000 OA
ATOM      3  N   UNL     1       1.377   7.740  21.185  0.00  0.00    +0.000 N 
ATOM      4  H   UNL     1       1.539   7.058  21.916  0.00  0.00    +0.000 HD
ENDROOT
BRANCH   1   9
ATOM      5  C   UNL     1       4.483   4.778  19.187  0.00  0.00    +0.000 A 
ATOM      6  C   UNL     1       3.842   3.692  19.778  0.00  0.00    +0.000 A 
ATOM      7  C   UNL     1       2.590   3.880  20.341  0.00  0.00    +0.000 A 
ATOM      8  N   UNL     1       1.965   5.072  20.396  0.00  0.00    +0.000 NA
ATOM      9  C   UNL     1       2.640   6.126  19.869  0.00  0.00    +0.000 A 
ATOM     10  C   UNL     1       3.887   6.034  19.261  0.00  0.00    +0.000 A 
BRANCH   5  14
ATOM     11  C   UNL     1       6.037   3.807  15.273  0.00  0.00    +0.000 C 
ATOM     12  C   UNL     1       7.051   4.286  16.337  0.00  0.00    +0.000 C 
ATOM     13  N   UNL     1       5.878   4.399  17.199  0.00  0.00    +0.000 N 
ATOM     14  C   UNL     1       5.820   4.649  18.545  0.00  0.00    +0.000 C 
ATOM     15  O   UNL     1       6.827   4.750  19.240  0.00  0.00    +0.000 OA
ATOM     16  C   UNL     1       4.993   4.629  16.067  0.00  0.00    +0.000 C 
BRANCH  11  18
ATOM     17  C   UNL     1       7.452   5.057  13.629  0.00  0.00    +0.000 C 
ATOM     18  C   UNL     1       6.218   4.188  13.817  0.00  0.00    +0.000 C 
BRANCH  18  19
ATOM     19  O   UNL     1       6.362   2.984  13.067  0.00  0.00    +0.000 OA
ATOM     20  H   UNL     1       5.959   2.257  13.574  0.00  0.00    +0.000 HD
ENDBRANCH  18  19
ENDBRANCH  11  18
ENDBRANCH   5  14
ENDBRANCH   1   9
BRANCH   3  21
ATOM     21  C   UNL     1       0.672   8.926  21.506  0.00  0.00    +0.000 A 
ATOM     22  C   UNL     1       0.090   9.117  22.762  0.00  0.00    +0.000 A 
ATOM     23  C   UNL     1      -0.613  10.278  23.059  0.00  0.00    +0.000 A 
ATOM     24  C   UNL     1      -0.752  11.272  22.098  0.00  0.00    +0.000 A 
ATOM     25  C   UNL     1      -0.178  11.123  20.826  0.00  0.00    +0.000 A 
ATOM     26  C   UNL     1       0.553   9.947  20.546  0.00  0.00    +0.000 A 
BRANCH  25  27
ATOM     27  C   UNL     1      -0.343  12.222  19.776  0.00  0.00    +0.000 C 
ATOM     28  C   UNL     1      -1.072  11.662  18.544  0.00  0.00    +0.000 C 
BRANCH  27  29
ATOM     29  C   UNL     1       1.023  12.841  19.393  0.00  0.00    +0.000 C 
BRANCH  29  30
ATOM     30  C   UNL     1       1.557  13.758  20.444  0.00  0.00    +0.000 A 
ATOM     31  N   UNL     1       2.418  13.445  21.392  0.00  0.00    +0.000 NA
ATOM     32  N   UNL     1       2.656  14.567  22.148  0.00  0.00    +0.000 NA
ATOM     33  C   UNL     1       1.941  15.544  21.646  0.00  0.00    +0.000 A 
ATOM     34  N   UNL     1       1.222  15.082  20.588  0.00  0.00    +0.000 N 
ATOM     35  C   UNL     1       0.292  15.846  19.802  0.00  0.00    +0.000 C 
ENDBRANCH  29  30
ENDBRANCH  27  29
ENDBRANCH  25  27
ENDBRANCH   3  21
TORSDOF 8
ENDMDL
MODEL 4
REMARK VINA RESULT:      -8.3      2.062      2.429
REMARK  Name = 
REMARK  11 active torsions:
REMARK  status: ('A' for Active; 'I' for Inactive)
REMARK    1  A    between atoms: C_1  and  C_2
REMARK    2  A    between atoms: C_2  and  O_3
REMARK    3  A    between atoms: C_2  and  C_4
REMARK    4  A    between atoms: C_7  and  C_9
REMARK    5  A    between atoms: C_13  and  C_14
REMARK    6  A    between atoms: N_16  and  C_17
REMARK    7  A    between atoms: C_21  and  C_22
REMARK    8  A    between atoms: C_22  and  C_23
REMARK    9  A    between atoms: C_22  and  C_24
REMARK   10  A    between atoms: C_24  and  C_25
REMARK   11  A    between atoms: N_29  and  C_30
REMARK                            x       y       z     vdW  Elec       q    Type
REMARK                         _______ _______ _______ _____ _____    ______ ____
ROOT
ATOM      1  C   UNL     1       2.147   8.595  18.294  0.00  0.00    +0.000 C 
ATOM      2  O   UNL     1       2.222   9.443  17.417  0.00  0.00    +0.000 OA
ATOM      3  N   UNL     1       1.495   8.710  19.516  0.00  0.00    +0.000 N 
ATOM      4  H   UNL     1       1.644   7.949  20.168  0.00  0.00    +0.000 HD
ENDROOT
BRANCH   1   9
ATOM      5  C   UNL     1       4.681   6.059  17.163  0.00  0.00    +0.000 A 
ATOM      6  C   UNL     1       4.143   4.921  17.760  0.00  0.00    +0.000 A 
ATOM      7  C   UNL     1       2.945   5.029  18.447  0.00  0.00    +0.000 A 
ATOM      8  N   UNL     1       2.281   6.189  18.617  0.00  0.00    +0.000 NA
ATOM      9  C   UNL     1       2.860   7.294  18.079  0.00  0.00    +0.000 A 
ATOM     10  C   UNL     1       4.045   7.283  17.352  0.00  0.00    +0.000 A 
BRANCH   5  14
ATOM     11  C   UNL     1       6.349   3.734  13.925  0.00  0.00    +0.000 C 
ATOM     12  C   UNL     1       7.160   4.958  14.407  0.00  0.00    +0.000 C 
ATOM     13  N   UNL     1       6.053   5.147  15.340  0.00  0.00    +0.000 N 
ATOM     14  C   UNL     1       5.954   6.017  16.394  0.00  0.00    +0.000 C 
ATOM     15  O   UNL     1       6.881   6.745  16.735  0.00  0.00    +0.000 OA
ATOM     16  C   UNL     1       5.108   4.500  14.442  0.00  0.00    +0.000 C 
BRANCH  11  18
ATOM     17  C   UNL     1       4.919   3.388  11.900  0.00  0.00    +0.000 C 
ATOM     18  C   UNL     1       6.334   3.354  12.458  0.00  0.00    +0.000 C 
BRANCH  18  19
ATOM     19  O   UNL     1       7.147   4.293  11.757  0.00  0.00    +0.000 OA
ATOM     20  H   UNL     1       6.891   5.190  12.038  0.00  0.00    +0.000 HD
ENDBRANCH  18  19
ENDBRANCH  11  18
ENDBRANCH   5  14
ENDBRANCH   1   9
BRANCH   3  21
ATOM     21  C   UNL     1       0.743   9.832  19.941  0.00  0.00    +0.000 A 
ATOM     22  C   UNL     1       1.126  10.596  21.047  0.00  0.00    +0.000 A 
ATOM     23  C   UNL     1       0.370  11.685  21.464  0.00  0.00    +0.000 A 
ATOM     24  C   UNL     1      -0.791  12.028  20.781  0.00  0.00    +0.000 A 
ATOM     25  C   UNL     1      -1.208  11.291  19.662  0.00  0.00    +0.000 A 
ATOM     26  C   UNL     1      -0.417  10.201  19.236  0.00  0.00    +0.000 A 
BRANCH  25  27
ATOM     27  C   UNL     1      -2.490  11.677  18.924  0.00  0.00    +0.000 C 
ATOM     28  C   UNL     1      -3.403  12.491  19.854  0.00  0.00    +0.000 C 
BRANCH  27  29
ATOM     29  C   UNL     1      -3.216  10.426  18.371  0.00  0.00    +0.000 C 
BRANCH  29  30
ATOM     30  C   UNL     1      -3.277  10.407  16.878  0.00  0.00    +0.000 A 
ATOM     31  N   UNL     1      -2.482   9.732  16.071  0.00  0.00    +0.000 NA
ATOM     32  N   UNL     1      -2.872   9.977  14.776  0.00  0.00    +0.000 NA
ATOM     33  C   UNL     1      -3.899  10.791  14.817  0.00  0.00    +0.000 A 
ATOM     34  N   UNL     1      -4.179  11.103  16.111  0.00  0.00    +0.000 N 
ATOM     35  C   UNL     1      -5.211  11.998  16.559  0.00  0.00    +0.000 C 
ENDBRANCH  29  30
ENDBRANCH  27  29
ENDBRANCH  25  27
ENDBRANCH   3  21
TORSDOF 8
ENDMDL
MODEL 5
REMARK VINA RESULT:      -8.2      2.057      3.019
REMARK  Name = 
REMARK  11 active torsions:
REMARK  status: ('A' for Active; 'I' for Inactive)
REMARK    1  A    between atoms: C_1  and  C_2
REMARK    2  A    between atoms: C_2  and  O_3
REMARK    3  A    between atoms: C_2  and  C_4
REMARK    4  A    between atoms: C_7  and  C_9
REMARK    5  A    between atoms: C_13  and  C_14
REMARK    6  A    between atoms: N_16  and  C_17
REMARK    7  A    between atoms: C_21  and  C_22
REMARK    8  A    between atoms: C_22  and  C_23
REMARK    9  A    between atoms: C_22  and  C_24
REMARK   10  A    between atoms: C_24  and  C_25
REMARK   11  A    between atoms: N_29  and  C_30
REMARK                            x       y       z     vdW  Elec       q    Type
REMARK                         _______ _______ _______ _____ _____    ______ ____
ROOT
ATOM      1  C   UNL     1       1.850   8.302  18.311  0.00  0.00    +0.000 C 
ATOM      2  O   UNL     1       2.353   8.765  17.298  0.00  0.00    +0.000 OA
ATOM      3  N   UNL     1       0.742   8.788  18.994  0.00  0.00    +0.000 N 
ATOM      4  H   UNL     1       0.544   8.346  19.884  0.00  0.00    +0.000 HD
ENDROOT
BRANCH   1   9
ATOM      5  C   UNL     1       4.369   5.639  19.148  0.00  0.00    +0.000 A 
ATOM      6  C   UNL     1       3.656   4.955  20.130  0.00  0.00    +0.000 A 
ATOM      7  C   UNL     1       2.363   5.359  20.422  0.00  0.00    +0.000 A 
ATOM      8  N   UNL     1       1.760   6.415  19.843  0.00  0.00    +0.000 NA
ATOM      9  C   UNL     1       2.500   7.103  18.934  0.00  0.00    +0.000 A 
ATOM     10  C   UNL     1       3.794   6.760  18.557  0.00  0.00    +0.000 A 
BRANCH   5  14
ATOM     11  C   UNL     1       6.357   4.004  15.677  0.00  0.00    +0.000 C 
ATOM     12  C   UNL     1       7.250   4.461  16.854  0.00  0.00    +0.000 C 
ATOM     13  N   UNL     1       5.986   4.837  17.481  0.00  0.00    +0.000 N 
ATOM     14  C   UNL     1       5.754   5.251  18.767  0.00  0.00    +0.000 C 
ATOM     15  O   UNL     1       6.640   5.293  19.616  0.00  0.00    +0.000 OA
ATOM     16  C   UNL     1       5.342   5.051  16.195  0.00  0.00    +0.000 C 
BRANCH  11  18
ATOM     17  C   UNL     1       5.720   3.831  13.263  0.00  0.00    +0.000 C 
ATOM     18  C   UNL     1       6.826   4.180  14.247  0.00  0.00    +0.000 C 
BRANCH  18  19
ATOM     19  O   UNL     1       7.203   5.544  14.077  0.00  0.00    +0.000 OA
ATOM     20  H   UNL     1       8.134   5.572  13.790  0.00  0.00    +0.000 HD
ENDBRANCH  18  19
ENDBRANCH  11  18
ENDBRANCH   5  14
ENDBRANCH   1   9
BRANCH   3  21
ATOM     21  C   UNL     1      -0.045   9.895  18.595  0.00  0.00    +0.000 A 
ATOM     22  C   UNL     1       0.280  11.202  18.971  0.00  0.00    +0.000 A 
ATOM     23  C   UNL     1      -0.511  12.278  18.587  0.00  0.00    +0.000 A 
ATOM     24  C   UNL     1      -1.649  12.065  17.819  0.00  0.00    +0.000 A 
ATOM     25  C   UNL     1      -2.008  10.770  17.414  0.00  0.00    +0.000 A 
ATOM     26  C   UNL     1      -1.183   9.688  17.794  0.00  0.00    +0.000 A 
BRANCH  25  27
ATOM     27  C   UNL     1      -3.267  10.550  16.574  0.00  0.00    +0.000 C 
ATOM     28  C   UNL     1      -2.876  10.231  15.122  0.00  0.00    +0.000 C 
BRANCH  27  29
ATOM     29  C   UNL     1      -4.212  11.774  16.650  0.00  0.00    +0.000 C 
BRANCH  29  30
ATOM     30  C   UNL     1      -5.381  11.545  17.551  0.00  0.00    +0.000 A 
ATOM     31  N   UNL     1      -5.549  10.527  18.372  0.00  0.00    +0.000 NA
ATOM     32  N   UNL     1      -6.747  10.690  19.025  0.00  0.00    +0.000 NA
ATOM     33  C   UNL     1      -7.285  11.806  18.595  0.00  0.00    +0.000 A 
ATOM     34  N   UNL     1      -6.475  12.369  17.659  0.00  0.00    +0.000 N 
ATOM     35  C   UNL     1      -6.742  13.578  16.929  0.00  0.00    +0.000 C 
ENDBRANCH  29  30
ENDBRANCH  27  29
ENDBRANCH  25  27
ENDBRANCH   3  21
TORSDOF 8
ENDMDL
MODEL 6
REMARK VINA RESULT:      -8.2      2.200      3.309
REMARK  Name = 
REMARK  11 active torsions:
REMARK  status: ('A' for Active; 'I' for Inactive)
REMARK    1  A    between atoms: C_1  and  C_2
REMARK    2  A    between atoms: C_2  and  O_3
REMARK    3  A    between atoms: C_2  and  C_4
REMARK    4  A    between atoms: C_7  and  C_9
REMARK    5  A    between atoms: C_13  and  C_14
REMARK    6  A    between atoms: N_16  and  C_17
REMARK    7  A    between atoms: C_21  and  C_22
REMARK    8  A    between atoms: C_22  and  C_23
REMARK    9  A    between atoms: C_22  and  C_24
REMARK   10  A    between atoms: C_24  and  C_25
REMARK   11  A    between atoms: N_29  and  C_30
REMARK                            x       y       z     vdW  Elec       q    Type
REMARK                         _______ _______ _______ _____ _____    ______ ____
ROOT
ATOM      1  C   UNL     1       1.746   7.720  20.119  0.00  0.00    +0.000 C 
ATOM      2  O   UNL     1       1.307   8.019  21.220  0.00  0.00    +0.000 OA
ATOM      3  N   UNL     1       1.704   8.492  18.964  0.00  0.00    +0.000 N 
ATOM      4  H   UNL     1       2.007   8.030  18.114  0.00  0.00    +0.000 HD
ENDROOT
BRANCH   1   9
ATOM      5  C   UNL     1       4.236   5.001  19.388  0.00  0.00    +0.000 A 
ATOM      6  C   UNL     1       3.460   3.891  19.714  0.00  0.00    +0.000 A 
ATOM      7  C   UNL     1       2.142   4.084  20.093  0.00  0.00    +0.000 A 
ATOM      8  N   UNL     1       1.568   5.297  20.214  0.00  0.00    +0.000 NA
ATOM      9  C   UNL     1       2.365   6.365  19.951  0.00  0.00    +0.000 A 
ATOM     10  C   UNL     1       3.690   6.272  19.541  0.00  0.00    +0.000 A 
BRANCH   5  14
ATOM     11  C   UNL     1       6.357   3.992  15.761  0.00  0.00    +0.000 C 
ATOM     12  C   UNL     1       7.200   4.487  16.958  0.00  0.00    +0.000 C 
ATOM     13  N   UNL     1       5.912   4.605  17.634  0.00  0.00    +0.000 N 
ATOM     14  C   UNL     1       5.654   4.871  18.954  0.00  0.00    +0.000 C 
ATOM     15  O   UNL     1       6.546   4.984  19.790  0.00  0.00    +0.000 OA
ATOM     16  C   UNL     1       5.205   4.819  16.381  0.00  0.00    +0.000 C 
BRANCH  11  18
ATOM     17  C   UNL     1       5.922   3.582  13.330  0.00  0.00    +0.000 C 
ATOM     18  C   UNL     1       6.751   4.357  14.343  0.00  0.00    +0.000 C 
BRANCH  18  19
ATOM     19  O   UNL     1       6.528   5.754  14.175  0.00  0.00    +0.000 OA
ATOM     20  H   UNL     1       5.568   5.907  14.117  0.00  0.00    +0.000 HD
ENDBRANCH  18  19
ENDBRANCH  11  18
ENDBRANCH   5  14
ENDBRANCH   1   9
BRANCH   3  21
ATOM     21  C   UNL     1       1.185   9.806  18.874  0.00  0.00    +0.000 A 
ATOM     22  C   UNL     1       2.006  10.904  18.602  0.00  0.00    +0.000 A 
ATOM     23  C   UNL     1       1.486  12.191  18.533  0.00  0.00    +0.000 A 
ATOM     24  C   UNL     1       0.129  12.404  18.740  0.00  0.00    +0.000 A 
ATOM     25  C   UNL     1      -0.733  11.329  19.009  0.00  0.00    +0.000 A 
ATOM     26  C   UNL     1      -0.193  10.024  19.054  0.00  0.00    +0.000 A 
BRANCH  25  27
ATOM     27  C   UNL     1      -2.223  11.579  19.240  0.00  0.00    +0.000 C 
ATOM     28  C   UNL     1      -2.964  11.595  17.894  0.00  0.00    +0.000 C 
BRANCH  27  29
ATOM     29  C   UNL     1      -2.455  12.891  20.029  0.00  0.00    +0.000 C 
BRANCH  29  30
ATOM     30  C   UNL     1      -3.030  12.654  21.388  0.00  0.00    +0.000 A 
ATOM     31  N   UNL     1      -4.309  12.664  21.708  0.00  0.00    +0.000 NA
ATOM     32  N   UNL     1      -4.421  12.397  23.051  0.00  0.00    +0.000 NA
ATOM     33  C   UNL     1      -3.210  12.224  23.524  0.00  0.00    +0.000 A 
ATOM     34  N   UNL     1      -2.304  12.392  22.524  0.00  0.00    +0.000 N 
ATOM     35  C   UNL     1      -0.875  12.321  22.658  0.00  0.00    +0.000 C 
ENDBRANCH  29  30
ENDBRANCH  27  29
ENDBRANCH  25  27
ENDBRANCH   3  21
TORSDOF 8
ENDMDL
MODEL 7
REMARK VINA RESULT:      -8.2      1.417      1.889
REMARK  Name = 
REMARK  11 active torsions:
REMARK  status: ('A' for Active; 'I' for Inactive)
REMARK    1  A    between atoms: C_1  and  C_2
REMARK    2  A    between atoms: C_2  and  O_3
REMARK    3  A    between atoms: C_2  and  C_4
REMARK    4  A    between atoms: C_7  and  C_9
REMARK    5  A    between atoms: C_13  and  C_14
REMARK    6  A    between atoms: N_16  and  C_17
REMARK    7  A    between atoms: C_21  and  C_22
REMARK    8  A    between atoms: C_22  and  C_23
REMARK    9  A    between atoms: C_22  and  C_24
REMARK   10  A    between atoms: C_24  and  C_25
REMARK   11  A    between atoms: N_29  and  C_30
REMARK                            x       y       z     vdW  Elec       q    Type
REMARK                         _______ _______ _______ _____ _____    ______ ____
ROOT
ATOM      1  C   UNL     1       1.853   7.830  20.017  0.00  0.00    +0.000 C 
ATOM      2  O   UNL     1       1.446   8.157  21.122  0.00  0.00    +0.000 OA
ATOM      3  N   UNL     1       1.823   8.590  18.855  0.00  0.00    +0.000 N 
ATOM      4  H   UNL     1       2.092   8.108  18.005  0.00  0.00    +0.000 HD
ENDROOT
BRANCH   1   9
ATOM      5  C   UNL     1       4.224   5.003  19.297  0.00  0.00    +0.000 A 
ATOM      6  C   UNL     1       3.400   3.928  19.623  0.00  0.00    +0.000 A 
ATOM      7  C   UNL     1       2.091   4.180  19.999  0.00  0.00    +0.000 A 
ATOM      8  N   UNL     1       1.570   5.417  20.116  0.00  0.00    +0.000 NA
ATOM      9  C   UNL     1       2.413   6.449  19.854  0.00  0.00    +0.000 A 
ATOM     10  C   UNL     1       3.734   6.297  19.446  0.00  0.00    +0.000 A 
BRANCH   5  14
ATOM     11  C   UNL     1       6.312   3.966  15.658  0.00  0.00    +0.000 C 
ATOM     12  C   UNL     1       7.172   4.392  16.870  0.00  0.00    +0.000 C 
ATOM     13  N   UNL     1       5.887   4.561  17.543  0.00  0.00    +0.000 N 
ATOM     14  C   UNL     1       5.636   4.810  18.867  0.00  0.00    +0.000 C 
ATOM     15  O   UNL     1       6.528   4.860  19.709  0.00  0.00    +0.000 OA
ATOM     16  C   UNL     1       5.199   4.837  16.291  0.00  0.00    +0.000 C 
BRANCH  11  18
ATOM     17  C   UNL     1       5.898   3.599  13.217  0.00  0.00    +0.000 C 
ATOM     18  C   UNL     1       6.732   4.341  14.251  0.00  0.00    +0.000 C 
BRANCH  18  19
ATOM     19  O   UNL     1       6.542   5.746  14.099  0.00  0.00    +0.000 OA
ATOM     20  H   UNL     1       7.359   6.198  14.377  0.00  0.00    +0.000 HD
ENDBRANCH  18  19
ENDBRANCH  11  18
ENDBRANCH   5  14
ENDBRANCH   1   9
BRANCH   3  21
ATOM     21  C   UNL     1       1.357   9.924  18.760  0.00  0.00    +0.000 A 
ATOM     22  C   UNL     1       2.237  11.005  18.654  0.00  0.00    +0.000 A 
ATOM     23  C   UNL     1       1.767  12.310  18.578  0.00  0.00    +0.000 A 
ATOM     24  C   UNL     1       0.400  12.559  18.611  0.00  0.00    +0.000 A 
ATOM     25  C   UNL     1      -0.519  11.503  18.710  0.00  0.00    +0.000 A 
ATOM     26  C   UNL     1      -0.026  10.180  18.764  0.00  0.00    +0.000 A 
BRANCH  25  27
ATOM     27  C   UNL     1      -2.019  11.793  18.752  0.00  0.00    +0.000 C 
ATOM     28  C   UNL     1      -2.410  12.324  20.140  0.00  0.00    +0.000 C 
BRANCH  27  29
ATOM     29  C   UNL     1      -2.842  10.538  18.373  0.00  0.00    +0.000 C 
BRANCH  29  30
ATOM     30  C   UNL     1      -3.110  10.444  16.905  0.00  0.00    +0.000 A 
ATOM     31  N   UNL     1      -2.404   9.763  16.024  0.00  0.00    +0.000 NA
ATOM     32  N   UNL     1      -2.980   9.930  14.788  0.00  0.00    +0.000 NA
ATOM     33  C   UNL     1      -4.028  10.704  14.938  0.00  0.00    +0.000 A 
ATOM     34  N   UNL     1      -4.140  11.066  16.244  0.00  0.00    +0.000 N 
ATOM     35  C   UNL     1      -5.140  11.940  16.794  0.00  0.00    +0.000 C 
ENDBRANCH  29  30
ENDBRANCH  27  29
ENDBRANCH  25  27
ENDBRANCH   3  21
TORSDOF 8
ENDMDL
MODEL 8
REMARK VINA RESULT:      -8.2      3.097      4.160
REMARK  Name = 
REMARK  11 active torsions:
REMARK  status: ('A' for Active; 'I' for Inactive)
REMARK    1  A    between atoms: C_1  and  C_2
REMARK    2  A    between atoms: C_2  and  O_3
REMARK    3  A    between atoms: C_2  and  C_4
REMARK    4  A    between atoms: C_7  and  C_9
REMARK    5  A    between atoms: C_13  and  C_14
REMARK    6  A    between atoms: N_16  and  C_17
REMARK    7  A    between atoms: C_21  and  C_22
REMARK    8  A    between atoms: C_22  and  C_23
REMARK    9  A    between atoms: C_22  and  C_24
REMARK   10  A    between atoms: C_24  and  C_25
REMARK   11  A    between atoms: N_29  and  C_30
REMARK                            x       y       z     vdW  Elec       q    Type
REMARK                         _______ _______ _______ _____ _____    ______ ____
ROOT
ATOM      1  C   UNL     1       2.197   8.602  18.083  0.00  0.00    +0.000 C 
ATOM      2  O   UNL     1       2.375   9.404  17.178  0.00  0.00    +0.000 OA
ATOM      3  N   UNL     1       1.260   8.687  19.105  0.00  0.00    +0.000 N 
ATOM      4  H   UNL     1       1.342   7.991  19.837  0.00  0.00    +0.000 HD
ENDROOT
BRANCH   1   9
ATOM      5  C   UNL     1       5.027   6.223  17.399  0.00  0.00    +0.000 A 
ATOM      6  C   UNL     1       4.734   5.245  18.348  0.00  0.00    +0.000 A 
ATOM      7  C   UNL     1       3.590   5.382  19.117  0.00  0.00    +0.000 A 
ATOM      8  N   UNL     1       2.756   6.437  19.039  0.00  0.00    +0.000 NA
ATOM      9  C   UNL     1       3.099   7.406  18.151  0.00  0.00    +0.000 A 
ATOM     10  C   UNL     1       4.211   7.348  17.318  0.00  0.00    +0.000 A 
BRANCH   5  14
ATOM     11  C   UNL     1       6.362   3.781  14.094  0.00  0.00    +0.000 C 
ATOM     12  C   UNL     1       7.235   5.000  14.469  0.00  0.00    +0.000 C 
ATOM     13  N   UNL     1       6.216   5.235  15.489  0.00  0.00    +0.000 N 
ATOM     14  C   UNL     1       6.226   6.135  16.523  0.00  0.00    +0.000 C 
ATOM     15  O   UNL     1       7.193   6.852  16.763  0.00  0.00    +0.000 OA
ATOM     16  C   UNL     1       5.185   4.585  14.695  0.00  0.00    +0.000 C 
BRANCH  11  18
ATOM     17  C   UNL     1       4.782   3.562  12.164  0.00  0.00    +0.000 C 
ATOM     18  C   UNL     1       6.212   3.363  12.644  0.00  0.00    +0.000 C 
BRANCH  18  19
ATOM     19  O   UNL     1       7.093   4.169  11.866  0.00  0.00    +0.000 OA
ATOM     20  H   UNL     1       6.577   4.894  11.469  0.00  0.00    +0.000 HD
ENDBRANCH  18  19
ENDBRANCH  11  18
ENDBRANCH   5  14
ENDBRANCH   1   9
BRANCH   3  21
ATOM     21  C   UNL     1       0.292   9.711  19.246  0.00  0.00    +0.000 A 
ATOM     22  C   UNL     1      -0.543  10.084  18.189  0.00  0.00    +0.000 A 
ATOM     23  C   UNL     1      -1.477  11.102  18.337  0.00  0.00    +0.000 A 
ATOM     24  C   UNL     1      -1.590  11.772  19.549  0.00  0.00    +0.000 A 
ATOM     25  C   UNL     1      -0.775  11.425  20.638  0.00  0.00    +0.000 A 
ATOM     26  C   UNL     1       0.154  10.373  20.480  0.00  0.00    +0.000 A 
BRANCH  25  27
ATOM     27  C   UNL     1      -0.907  12.175  21.964  0.00  0.00    +0.000 C 
ATOM     28  C   UNL     1      -1.338  11.202  23.073  0.00  0.00    +0.000 C 
BRANCH  27  29
ATOM     29  C   UNL     1      -1.890  13.363  21.840  0.00  0.00    +0.000 C 
BRANCH  29  30
ATOM     30  C   UNL     1      -3.161  13.142  22.594  0.00  0.00    +0.000 A 
ATOM     31  N   UNL     1      -4.204  12.448  22.182  0.00  0.00    +0.000 NA
ATOM     32  N   UNL     1      -5.162  12.481  23.167  0.00  0.00    +0.000 NA
ATOM     33  C   UNL     1      -4.685  13.189  24.163  0.00  0.00    +0.000 A 
ATOM     34  N   UNL     1      -3.441  13.639  23.843  0.00  0.00    +0.000 N 
ATOM     35  C   UNL     1      -2.612  14.480  24.663  0.00  0.00    +0.000 C 
ENDBRANCH  29  30
ENDBRANCH  27  29
ENDBRANCH  25  27
ENDBRANCH   3  21
TORSDOF 8
ENDMDL
MODEL 9
REMARK VINA RESULT:      -8.1      2.371      3.179
REMARK  Name = 
REMARK  11 active torsions:
REMARK  status: ('A' for Active; 'I' for Inactive)
REMARK    1  A    between atoms: C_1  and  C_2
REMARK    2  A    between atoms: C_2  and  O_3
REMARK    3  A    between atoms: C_2  and  C_4
REMARK    4  A    between atoms: C_7  and  C_9
REMARK    5  A    between atoms: C_13  and  C_14
REMARK    6  A    between atoms: N_16  and  C_17
REMARK    7  A    between atoms: C_21  and  C_22
REMARK    8  A    between atoms: C_22  and  C_23
REMARK    9  A    between atoms: C_22  and  C_24
REMARK   10  A    between atoms: C_24  and  C_25
REMARK   11  A    between atoms: N_29  and  C_30
REMARK                            x       y       z     vdW  Elec       q    Type
REMARK                         _______ _______ _______ _____ _____    ______ ____
ROOT
ATOM      1  C   UNL     1       2.146   8.374  18.185  0.00  0.00    +0.000 C 
ATOM      2  O   UNL     1       2.078   8.815  17.047  0.00  0.00    +0.000 OA
ATOM      3  N   UNL     1       1.512   8.874  19.316  0.00  0.00    +0.000 N 
ATOM      4  H   UNL     1       1.784   8.453  20.197  0.00  0.00    +0.000 HD
ENDROOT
BRANCH   1   9
ATOM      5  C   UNL     1       4.990   5.931  17.918  0.00  0.00    +0.000 A 
ATOM      6  C   UNL     1       4.638   5.060  18.947  0.00  0.00    +0.000 A 
ATOM      7  C   UNL     1       3.454   5.280  19.632  0.00  0.00    +0.000 A 
ATOM      8  N   UNL     1       2.634   6.323  19.396  0.00  0.00    +0.000 NA
ATOM      9  C   UNL     1       3.033   7.191  18.431  0.00  0.00    +0.000 A 
ATOM     10  C   UNL     1       4.189   7.042  17.672  0.00  0.00    +0.000 A 
BRANCH   5  14
ATOM     11  C   UNL     1       6.163   3.902  14.287  0.00  0.00    +0.000 C 
ATOM     12  C   UNL     1       7.215   4.816  14.957  0.00  0.00    +0.000 C 
ATOM     13  N   UNL     1       6.159   5.075  15.933  0.00  0.00    +0.000 N 
ATOM     14  C   UNL     1       6.236   5.748  17.124  0.00  0.00    +0.000 C 
ATOM     15  O   UNL     1       7.294   6.185  17.567  0.00  0.00    +0.000 OA
ATOM     16  C   UNL     1       5.111   4.817  14.958  0.00  0.00    +0.000 C 
BRANCH  11  18
ATOM     17  C   UNL     1       7.253   4.529  12.123  0.00  0.00    +0.000 C 
ATOM     18  C   UNL     1       6.090   3.798  12.777  0.00  0.00    +0.000 C 
BRANCH  18  19
ATOM     19  O   UNL     1       6.141   2.415  12.433  0.00  0.00    +0.000 OA
ATOM     20  H   UNL     1       6.908   2.015  12.881  0.00  0.00    +0.000 HD
ENDBRANCH  18  19
ENDBRANCH  11  18
ENDBRANCH   5  14
ENDBRANCH   1   9
BRANCH   3  21
ATOM     21  C   UNL     1       0.616   9.971  19.336  0.00  0.00    +0.000 A 
ATOM     22  C   UNL     1       0.989  11.214  19.856  0.00  0.00    +0.000 A 
ATOM     23  C   UNL     1       0.095  12.278  19.885  0.00  0.00    +0.000 A 
ATOM     24  C   UNL     1      -1.196  12.114  19.395  0.00  0.00    +0.000 A 
ATOM     25  C   UNL     1      -1.609  10.885  18.859  0.00  0.00    +0.000 A 
ATOM     26  C   UNL     1      -0.682   9.820  18.816  0.00  0.00    +0.000 A 
BRANCH  25  27
ATOM     27  C   UNL     1      -3.033  10.718  18.329  0.00  0.00    +0.000 C 
ATOM     28  C   UNL     1      -2.995  10.203  16.882  0.00  0.00    +0.000 C 
BRANCH  27  29
ATOM     29  C   UNL     1      -3.829  12.041  18.438  0.00  0.00    +0.000 C 
BRANCH  29  30
ATOM     30  C   UNL     1      -4.831  12.023  19.547  0.00  0.00    +0.000 A 
ATOM     31  N   UNL     1      -4.626  12.406  20.792  0.00  0.00    +0.000 NA
ATOM     32  N   UNL     1      -5.795  12.238  21.494  0.00  0.00    +0.000 NA
ATOM     33  C   UNL     1      -6.692  11.762  20.664  0.00  0.00    +0.000 A 
ATOM     34  N   UNL     1      -6.130  11.594  19.437  0.00  0.00    +0.000 N 
ATOM     35  C   UNL     1      -6.785  11.057  18.275  0.00  0.00    +0.000 C 
ENDBRANCH  29  30
ENDBRANCH  27  29
ENDBRANCH  25  27
ENDBRANCH   3  21
TORSDOF 8
ENDMDL
