MODEL 1
REMARK VINA RESULT:      -8.2      0.000      0.000
REMARK  Name = 
REMARK  8 active torsions:
REMARK  status: ('A' for Active; 'I' for Inactive)
REMARK    1  A    between atoms: C_1  and  C_2
REMARK    2  A    between atoms: C_4  and  C_5
REMARK    3  A    between atoms: N_7  and  C_8
REMARK    4  A    between atoms: C_12  and  C_13
REMARK    5  A    between atoms: C_13  and  C_14
REMARK    6  A    between atoms: C_13  and  S_15
REMARK    7  A    between atoms: S_15  and  C_16
REMARK    8  A    between atoms: N_20  and  C_21
REMARK                            x       y       z     vdW  Elec       q    Type
REMARK                         _______ _______ _______ _____ _____    ______ ____
ROOT
ATOM      1  C   UNL     1       3.733   5.326  17.735  0.00  0.00    +0.000 A 
ATOM      2  C   UNL     1       3.420   4.267  18.590  0.00  0.00    +0.000 A 
ATOM      3  C   UNL     1       2.724   4.489  19.777  0.00  0.00    +0.000 A 
ATOM      4  C   UNL     1       2.312   5.774  20.116  0.00  0.00    +0.000 A 
ATOM      5  C   UNL     1       2.602   6.866  19.281  0.00  0.00    +0.000 A 
ATOM      6  C   UNL     1       3.363   6.631  18.111  0.00  0.00    +0.000 A 
ENDROOT
BRANCH   1   9
ATOM      7  C   UNL     1       5.748   5.050  16.321  0.00  0.00    +0.000 C 
ATOM      8  O   UNL     1       6.586   5.118  17.223  0.00  0.00    +0.000 OA
ATOM      9  N   UNL     1       4.377   5.125  16.484  0.00  0.00    +0.000 N 
ATOM     10  H   UNL     1       3.792   4.811  15.722  0.00  0.00    +0.000 HD
BRANCH   7  14
ATOM     11  C   UNL     1       5.662   2.711  11.793  0.00  0.00    +0.000 C 
ATOM     12  C   UNL     1       6.289   3.682  12.747  0.00  0.00    +0.000 A 
ATOM     13  C   UNL     1       5.705   3.856  14.072  0.00  0.00    +0.000 A 
ATOM     14  C   UNL     1       6.263   4.717  14.942  0.00  0.00    +0.000 A 
ATOM     15  N   UNL     1       7.371   5.446  14.553  0.00  0.00    +0.000 N 
ATOM     16  C   UNL     1       7.977   5.365  13.330  0.00  0.00    +0.000 A 
ATOM     17  O   UNL     1       8.949   6.034  13.013  0.00  0.00    +0.000 OA
ATOM     18  C   UNL     1       7.371   4.397  12.386  0.00  0.00    +0.000 A 
ATOM     19  H   UNL     1       7.737   6.128  15.212  0.00  0.00    +0.000 HD
ENDBRANCH   7  14
ENDBRANCH   1   9
BRANCH   5  20
ATOM     20  C   UNL     1       2.066   8.264  19.605  0.00  0.00    +0.000 C 
ATOM     21  C   UNL     1       0.964   8.202  20.667  0.00  0.00    +0.000 C 
BRANCH  20  22
ATOM     22  S   UNL     1       1.423   9.076  18.071  0.00  0.00    +0.000 S 
BRANCH  22  23
ATOM     23  C   UNL     1       0.711  10.525  18.687  0.00  0.00    +0.000 A 
ATOM     24  N   UNL     1       1.306  11.443  19.415  0.00  0.00    +0.000 NA
ATOM     25  N   UNL     1       0.382  12.426  19.689  0.00  0.00    +0.000 NA
ATOM     26  C   UNL     1      -0.748  12.082  19.117  0.00  0.00    +0.000 A 
ATOM     27  N   UNL     1      -0.588  10.888  18.474  0.00  0.00    +0.000 N 
ATOM     28  C   UNL     1      -1.624  10.190  17.759  0.00  0.00    +0.000 C 
ENDBRANCH  22  23
ENDBRANCH  20  22
ENDBRANCH   5  20
TORSDOF 5
ENDMDL
MODEL 2
REMARK VINA RESULT:      -8.0      0.593      1.118
REMARK  Name = 
REMARK  8 active torsions:
REMARK  status: ('A' for Active; 'I' for Inactive)
REMARK    1  A    between atoms: C_1  and  C_2
REMARK    2  A    between atoms: C_4  and  C_5
REMARK    3  A    between atoms: N_7  and  C_8
REMARK    4  A    between atoms: C_12  and  C_13
REMARK    5  A    between atoms: C_13  and  C_14
REMARK    6  A    between atoms: C_13  and  S_15
REMARK    7  A    between atoms: S_15  and  C_16
REMARK    8  A    between atoms: N_20  and  C_21
REMARK                            x       y       z     vdW  Elec       q    Type
REMARK                         _______ _______ _______ _____ _____    ______ ____
ROOT
ATOM      1  C   UNL     1       3.692   5.447  17.738  0.00  0.00    +0.000 A 
ATOM      2  C   UNL     1       3.379   4.390  18.597  0.00  0.00    +0.000 A 
ATOM      3  C   UNL     1       2.670   4.614  19.776  0.00  0.00    +0.000 A 
ATOM      4  C   UNL     1       2.245   5.898  20.103  0.00  0.00    +0.000 A 
ATOM      5  C   UNL     1       2.534   6.987  19.264  0.00  0.00    +0.000 A 
ATOM      6  C   UNL     1       3.308   6.752  18.103  0.00  0.00    +0.000 A 
ENDROOT
BRANCH   1   9
ATOM      7  C   UNL     1       5.693   4.946  16.367  0.00  0.00    +0.000 C 
ATOM      8  O   UNL     1       6.488   4.793  17.296  0.00  0.00    +0.000 OA
ATOM      9  N   UNL     1       4.348   5.244  16.494  0.00  0.00    +0.000 N 
ATOM     10  H   UNL     1       3.754   5.100  15.689  0.00  0.00    +0.000 HD
BRANCH   7  14
ATOM     11  C   UNL     1       5.592   2.730  11.778  0.00  0.00    +0.000 C 
ATOM     12  C   UNL     1       6.226   3.670  12.758  0.00  0.00    +0.000 A 
ATOM     13  C   UNL     1       5.643   3.814  14.087  0.00  0.00    +0.000 A 
ATOM     14  C   UNL     1       6.206   4.646  14.980  0.00  0.00    +0.000 A 
ATOM     15  N   UNL     1       7.320   5.377  14.611  0.00  0.00    +0.000 N 
ATOM     16  C   UNL     1       7.927   5.324  13.387  0.00  0.00    +0.000 A 
ATOM     17  O   UNL     1       8.905   5.993  13.089  0.00  0.00    +0.000 OA
ATOM     18  C   UNL     1       7.314   4.386  12.417  0.00  0.00    +0.000 A 
ATOM     19  H   UNL     1       7.692   6.038  15.288  0.00  0.00    +0.000 HD
ENDBRANCH   7  14
ENDBRANCH   1   9
BRANCH   5  20
ATOM     20  C   UNL     1       1.984   8.383  19.574  0.00  0.00    +0.000 C 
ATOM     21  C   UNL     1       0.936   8.330  20.690  0.00  0.00    +0.000 C 
BRANCH  20  22
ATOM     22  S   UNL     1       1.251   9.137  18.051  0.00  0.00    +0.000 S 
BRANCH  22  23
ATOM     23  C   UNL     1       0.249  10.387  18.700  0.00  0.00    +0.000 A 
ATOM     24  N   UNL     1      -1.018  10.283  19.031  0.00  0.00    +0.000 NA
ATOM     25  N   UNL     1      -1.430  11.508  19.505  0.00  0.00    +0.000 NA
ATOM     26  C   UNL     1      -0.401  12.322  19.453  0.00  0.00    +0.000 A 
ATOM     27  N   UNL     1       0.681  11.659  18.951  0.00  0.00    +0.000 N 
ATOM     28  C   UNL     1       1.977  12.242  18.725  0.00  0.00    +0.000 C 
ENDBRANCH  22  23
ENDBRANCH  20  22
ENDBRANCH   5  20
TORSDOF 5
ENDMDL
MODEL 3
REMARK VINA RESULT:      -8.0      4.979      7.308
REMARK  Name = 
REMARK  8 active torsions:
REMARK  status: ('A' for Active; 'I' for Inactive)
REMARK    1  A    between atoms: C_1  and  C_2
REMARK    2  A    between atoms: C_4  and  C_5
REMARK    3  A    between atoms: N_7  and  C_8
REMARK    4  A    between atoms: C_12  and  C_13
REMARK    5  A    between atoms: C_13  and  C_14
REMARK    6  A    between atoms: C_13  and  S_15
REMARK    7  A    between atoms: S_15  and  C_16
REMARK    8  A    between atoms: N_20  and  C_21
REMARK                            x       y       z     vdW  Elec       q    Type
REMARK                         _______ _______ _______ _____ _____    ______ ____
ROOT
ATOM      1  C   UNL     1       6.339   6.752  17.045  0.00  0.00    +0.000 A 
ATOM      2  C   UNL     1       6.995   5.812  16.246  0.00  0.00    +0.000 A 
ATOM      3  C   UNL     1       6.381   4.605  15.912  0.00  0.00    +0.000 A 
ATOM      4  C   UNL     1       5.092   4.331  16.357  0.00  0.00    +0.000 A 
ATOM      5  C   UNL     1       4.396   5.252  17.158  0.00  0.00    +0.000 A 
ATOM      6  C   UNL     1       5.057   6.444  17.538  0.00  0.00    +0.000 A 
ENDROOT
BRANCH   1   9
ATOM      7  C   UNL     1       7.962   8.211  18.215  0.00  0.00    +0.000 C 
ATOM      8  O   UNL     1       8.564   7.324  18.824  0.00  0.00    +0.000 OA
ATOM      9  N   UNL     1       6.907   8.021  17.343  0.00  0.00    +0.000 N 
ATOM     10  H   UNL     1       6.662   8.780  16.722  0.00  0.00    +0.000 HD
BRANCH   7  14
ATOM     11  C   UNL     1      11.299  11.749  19.743  0.00  0.00    +0.000 C 
ATOM     12  C   UNL     1      10.072  11.359  18.977  0.00  0.00    +0.000 A 
ATOM     13  C   UNL     1       9.624   9.971  19.005  0.00  0.00    +0.000 A 
ATOM     14  C   UNL     1       8.520   9.609  18.330  0.00  0.00    +0.000 A 
ATOM     15  N   UNL     1       7.838  10.560  17.593  0.00  0.00    +0.000 N 
ATOM     16  C   UNL     1       8.188  11.877  17.491  0.00  0.00    +0.000 A 
ATOM     17  O   UNL     1       7.570  12.690  16.820  0.00  0.00    +0.000 OA
ATOM     18  C   UNL     1       9.393  12.273  18.258  0.00  0.00    +0.000 A 
ATOM     19  H   UNL     1       7.038  10.246  17.050  0.00  0.00    +0.000 HD
ENDBRANCH   7  14
ENDBRANCH   1   9
BRANCH   5  20
ATOM     20  C   UNL     1       2.942   4.993  17.567  0.00  0.00    +0.000 C 
ATOM     21  C   UNL     1       2.617   5.659  18.909  0.00  0.00    +0.000 C 
BRANCH  20  22
ATOM     22  S   UNL     1       2.618   3.174  17.667  0.00  0.00    +0.000 S 
BRANCH  22  23
ATOM     23  C   UNL     1       2.201   2.960  19.331  0.00  0.00    +0.000 A 
ATOM     24  N   UNL     1       1.004   3.074  19.860  0.00  0.00    +0.000 NA
ATOM     25  N   UNL     1       1.115   2.823  21.209  0.00  0.00    +0.000 NA
ATOM     26  C   UNL     1       2.376   2.560  21.462  0.00  0.00    +0.000 A 
ATOM     27  N   UNL     1       3.099   2.636  20.308  0.00  0.00    +0.000 N 
ATOM     28  C   UNL     1       4.521   2.434  20.208  0.00  0.00    +0.000 C 
ENDBRANCH  22  23
ENDBRANCH  20  22
ENDBRANCH   5  20
TORSDOF 5
ENDMDL
MODEL 4
REMARK VINA RESULT:      -7.8      4.926      7.362
REMARK  Name = 
REMARK  8 active torsions:
REMARK  status: ('A' for Active; 'I' for Inactive)
REMARK    1  A    between atoms: C_1  and  C_2
REMARK    2  A    between atoms: C_4  and  C_5
REMARK    3  A    between atoms: N_7  and  C_8
REMARK    4  A    between atoms: C_12  and  C_13
REMARK    5  A    between atoms: C_13  and  C_14
REMARK    6  A    between atoms: C_13  and  S_15
REMARK    7  A    between atoms: S_15  and  C_16
REMARK    8  A    between atoms: N_20  and  C_21
REMARK                            x       y       z     vdW  Elec       q    Type
REMARK                         _______ _______ _______ _____ _____    ______ ____
ROOT
ATOM      1  C   UNL     1       6.489   6.686  16.964  0.00  0.00    +0.000 A 
ATOM      2  C   UNL     1       7.176   5.752  16.184  0.00  0.00    +0.000 A 
ATOM      3  C   UNL     1       6.590   4.533  15.848  0.00  0.00    +0.000 A 
ATOM      4  C   UNL     1       5.298   4.238  16.272  0.00  0.00    +0.000 A 
ATOM      5  C   UNL     1       4.571   5.152  17.053  0.00  0.00    +0.000 A 
ATOM      6  C   UNL     1       5.204   6.358  17.436  0.00  0.00    +0.000 A 
ENDROOT
BRANCH   1   9
ATOM      7  C   UNL     1       8.000   8.194  18.220  0.00  0.00    +0.000 C 
ATOM      8  O   UNL     1       8.542   7.333  18.915  0.00  0.00    +0.000 OA
ATOM      9  N   UNL     1       7.028   7.967  17.263  0.00  0.00    +0.000 N 
ATOM     10  H   UNL     1       6.841   8.701  16.594  0.00  0.00    +0.000 HD
BRANCH   7  14
ATOM     11  C   UNL     1      11.323  11.759  19.712  0.00  0.00    +0.000 C 
ATOM     12  C   UNL     1      10.090  11.360  18.960  0.00  0.00    +0.000 A 
ATOM     13  C   UNL     1       9.655   9.968  18.992  0.00  0.00    +0.000 A 
ATOM     14  C   UNL     1       8.545   9.597  18.331  0.00  0.00    +0.000 A 
ATOM     15  N   UNL     1       7.845  10.543  17.606  0.00  0.00    +0.000 N 
ATOM     16  C   UNL     1       8.181  11.864  17.502  0.00  0.00    +0.000 A 
ATOM     17  O   UNL     1       7.546  12.672  16.841  0.00  0.00    +0.000 OA
ATOM     18  C   UNL     1       9.393  12.269  18.253  0.00  0.00    +0.000 A 
ATOM     19  H   UNL     1       7.041  10.223  17.072  0.00  0.00    +0.000 HD
ENDBRANCH   7  14
ENDBRANCH   1   9
BRANCH   5  20
ATOM     20  C   UNL     1       3.115   4.870  17.438  0.00  0.00    +0.000 C 
ATOM     21  C   UNL     1       2.749   5.553  18.760  0.00  0.00    +0.000 C 
BRANCH  20  22
ATOM     22  S   UNL     1       2.827   3.046  17.566  0.00  0.00    +0.000 S 
BRANCH  22  23
ATOM     23  C   UNL     1       3.138   2.736  19.237  0.00  0.00    +0.000 A 
ATOM     24  N   UNL     1       4.306   2.481  19.783  0.00  0.00    +0.000 NA
ATOM     25  N   UNL     1       4.108   2.297  21.133  0.00  0.00    +0.000 NA
ATOM     26  C   UNL     1       2.826   2.449  21.372  0.00  0.00    +0.000 A 
ATOM     27  N   UNL     1       2.175   2.727  20.205  0.00  0.00    +0.000 N 
ATOM     28  C   UNL     1       0.755   2.928  20.078  0.00  0.00    +0.000 C 
ENDBRANCH  22  23
ENDBRANCH  20  22
ENDBRANCH   5  20
TORSDOF 5
ENDMDL
MODEL 5
REMARK VINA RESULT:      -7.8      4.839      7.282
REMARK  Name = 
REMARK  8 active torsions:
REMARK  status: ('A' for Active; 'I' for Inactive)
REMARK    1  A    between atoms: C_1  and  C_2
REMARK    2  A    between atoms: C_4  and  C_5
REMARK    3  A    between atoms: N_7  and  C_8
REMARK    4  A    between atoms: C_12  and  C_13
REMARK    5  A    between atoms: C_13  and  C_14
REMARK    6  A    between atoms: C_13  and  S_15
REMARK    7  A    between atoms: S_15  and  C_16
REMARK    8  A    between atoms: N_20  and  C_21
REMARK                            x       y       z     vdW  Elec       q    Type
REMARK                         _______ _______ _______ _____ _____    ______ ____
ROOT
ATOM      1  C   UNL     1       6.331   6.456  16.891  0.00  0.00    +0.000 A 
ATOM      2  C   UNL     1       7.037   5.537  16.111  0.00  0.00    +0.000 A 
ATOM      3  C   UNL     1       6.475   4.307  15.773  0.00  0.00    +0.000 A 
ATOM      4  C   UNL     1       5.188   3.987  16.195  0.00  0.00    +0.000 A 
ATOM      5  C   UNL     1       4.443   4.886  16.977  0.00  0.00    +0.000 A 
ATOM      6  C   UNL     1       5.052   6.103  17.362  0.00  0.00    +0.000 A 
ENDROOT
BRANCH   1   9
ATOM      7  C   UNL     1       7.840   7.987  18.122  0.00  0.00    +0.000 C 
ATOM      8  O   UNL     1       8.426   7.131  18.789  0.00  0.00    +0.000 OA
ATOM      9  N   UNL     1       6.845   7.747  17.192  0.00  0.00    +0.000 N 
ATOM     10  H   UNL     1       6.619   8.485  16.539  0.00  0.00    +0.000 HD
BRANCH   7  14
ATOM     11  C   UNL     1       7.955  12.965  17.031  0.00  0.00    +0.000 C 
ATOM     12  C   UNL     1       8.460  11.789  17.812  0.00  0.00    +0.000 A 
ATOM     13  C   UNL     1       7.902  10.467  17.550  0.00  0.00    +0.000 A 
ATOM     14  C   UNL     1       8.352   9.402  18.237  0.00  0.00    +0.000 A 
ATOM     15  N   UNL     1       9.322   9.585  19.204  0.00  0.00    +0.000 N 
ATOM     16  C   UNL     1       9.891  10.783  19.533  0.00  0.00    +0.000 A 
ATOM     17  O   UNL     1      10.739  10.912  20.404  0.00  0.00    +0.000 OA
ATOM     18  C   UNL     1       9.407  11.948  18.755  0.00  0.00    +0.000 A 
ATOM     19  H   UNL     1       9.603   8.770  19.745  0.00  0.00    +0.000 HD
ENDBRANCH   7  14
ENDBRANCH   1   9
BRANCH   5  20
ATOM     20  C   UNL     1       2.992   4.576  17.359  0.00  0.00    +0.000 C 
ATOM     21  C   UNL     1       2.556   5.388  18.583  0.00  0.00    +0.000 C 
BRANCH  20  22
ATOM     22  S   UNL     1       2.790   2.767  17.695  0.00  0.00    +0.000 S 
BRANCH  22  23
ATOM     23  C   UNL     1       2.296   2.748  19.351  0.00  0.00    +0.000 A 
ATOM     24  N   UNL     1       1.075   2.914  19.807  0.00  0.00    +0.000 NA
ATOM     25  N   UNL     1       1.124   2.825  21.180  0.00  0.00    +0.000 NA
ATOM     26  C   UNL     1       2.372   2.602  21.521  0.00  0.00    +0.000 A 
ATOM     27  N   UNL     1       3.148   2.546  20.400  0.00  0.00    +0.000 N 
ATOM     28  C   UNL     1       4.573   2.344  20.390  0.00  0.00    +0.000 C 
ENDBRANCH  22  23
ENDBRANCH  20  22
ENDBRANCH   5  20
TORSDOF 5
ENDMDL
MODEL 6
REMARK VINA RESULT:      -7.6      1.220      1.781
REMARK  Name = 
REMARK  8 active torsions:
REMARK  status: ('A' for Active; 'I' for Inactive)
REMARK    1  A    between atoms: C_1  and  C_2
REMARK    2  A    between atoms: C_4  and  C_5
REMARK    3  A    between atoms: N_7  and  C_8
REMARK    4  A    between atoms: C_12  and  C_13
REMARK    5  A    between atoms: C_13  and  C_14
REMARK    6  A    between atoms: C_13  and  S_15
REMARK    7  A    between atoms: S_15  and  C_16
REMARK    8  A    between atoms: N_20  and  C_21
REMARK                            x       y       z     vdW  Elec       q    Type
REMARK                         _______ _______ _______ _____ _____    ______ ____
ROOT
ATOM      1  C   UNL     1       4.042   6.332  17.515  0.00  0.00    +0.000 A 
ATOM      2  C   UNL     1       3.993   5.539  18.665  0.00  0.00    +0.000 A 
ATOM      3  C   UNL     1       3.188   5.898  19.745  0.00  0.00    +0.000 A 
ATOM      4  C   UNL     1       2.404   7.045  19.682  0.00  0.00    +0.000 A 
ATOM      5  C   UNL     1       2.421   7.866  18.542  0.00  0.00    +0.000 A 
ATOM      6  C   UNL     1       3.290   7.521  17.481  0.00  0.00    +0.000 A 
ENDROOT
BRANCH   1   9
ATOM      7  C   UNL     1       5.179   4.661  16.083  0.00  0.00    +0.000 C 
ATOM      8  O   UNL     1       4.906   3.664  16.755  0.00  0.00    +0.000 OA
ATOM      9  N   UNL     1       4.795   5.958  16.369  0.00  0.00    +0.000 N 
ATOM     10  H   UNL     1       4.860   6.645  15.630  0.00  0.00    +0.000 HD
BRANCH   7  14
ATOM     11  C   UNL     1       5.796   2.504  11.506  0.00  0.00    +0.000 C 
ATOM     12  C   UNL     1       6.233   3.478  12.558  0.00  0.00    +0.000 A 
ATOM     13  C   UNL     1       5.487   3.558  13.809  0.00  0.00    +0.000 A 
ATOM     14  C   UNL     1       5.874   4.420  14.765  0.00  0.00    +0.000 A 
ATOM     15  N   UNL     1       6.963   5.240  14.534  0.00  0.00    +0.000 N 
ATOM     16  C   UNL     1       7.712   5.251  13.391  0.00  0.00    +0.000 A 
ATOM     17  O   UNL     1       8.662   5.998  13.214  0.00  0.00    +0.000 OA
ATOM     18  C   UNL     1       7.294   4.281  12.351  0.00  0.00    +0.000 A 
ATOM     19  H   UNL     1       7.198   5.919  15.253  0.00  0.00    +0.000 HD
ENDBRANCH   7  14
ENDBRANCH   1   9
BRANCH   5  20
ATOM     20  C   UNL     1       1.486   9.076  18.434  0.00  0.00    +0.000 C 
ATOM     21  C   UNL     1       2.224  10.298  17.879  0.00  0.00    +0.000 C 
BRANCH  20  22
ATOM     22  S   UNL     1       0.757   9.473  20.088  0.00  0.00    +0.000 S 
BRANCH  22  23
ATOM     23  C   UNL     1      -0.296  10.795  19.724  0.00  0.00    +0.000 A 
ATOM     24  N   UNL     1      -1.437  10.732  19.075  0.00  0.00    +0.000 NA
ATOM     25  N   UNL     1      -1.950  12.007  19.006  0.00  0.00    +0.000 NA
ATOM     26  C   UNL     1      -1.110  12.809  19.617  0.00  0.00    +0.000 A 
ATOM     27  N   UNL     1      -0.050  12.088  20.086  0.00  0.00    +0.000 N 
ATOM     28  C   UNL     1       1.080  12.640  20.785  0.00  0.00    +0.000 C 
ENDBRANCH  22  23
ENDBRANCH  20  22
ENDBRANCH   5  20
TORSDOF 5
ENDMDL
MODEL 7
REMARK VINA RESULT:      -7.5      1.517      2.038
REMARK  Name = 
REMARK  8 active torsions:
REMARK  status: ('A' for Active; 'I' for Inactive)
REMARK    1  A    between atoms: C_1  and  C_2
REMARK    2  A    between atoms: C_4  and  C_5
REMARK    3  A    between atoms: N_7  and  C_8
REMARK    4  A    between atoms: C_12  and  C_13
REMARK    5  A    between atoms: C_13  and  C_14
REMARK    6  A    between atoms: C_13  and  S_15
REMARK    7  A    between atoms: S_15  and  C_16
REMARK    8  A    between atoms: N_20  and  C_21
REMARK                            x       y       z     vdW  Elec       q    Type
REMARK                         _______ _______ _______ _____ _____    ______ ____
ROOT
ATOM      1  C   UNL     1       4.135   3.531  17.817  0.00  0.00    +0.000 A 
ATOM      2  C   UNL     1       4.066   2.285  18.444  0.00  0.00    +0.000 A 
ATOM      3  C   UNL     1       3.473   2.148  19.698  0.00  0.00    +0.000 A 
ATOM      4  C   UNL     1       2.921   3.255  20.335  0.00  0.00    +0.000 A 
ATOM      5  C   UNL     1       2.965   4.526  19.736  0.00  0.00    +0.000 A 
ATOM      6  C   UNL     1       3.625   4.657  18.492  0.00  0.00    +0.000 A 
ENDROOT
BRANCH   1   9
ATOM      7  C   UNL     1       5.944   4.152  16.243  0.00  0.00    +0.000 C 
ATOM      8  O   UNL     1       6.792   4.454  17.086  0.00  0.00    +0.000 OA
ATOM      9  N   UNL     1       4.667   3.693  16.509  0.00  0.00    +0.000 N 
ATOM     10  H   UNL     1       4.158   3.247  15.758  0.00  0.00    +0.000 HD
BRANCH   7  14
ATOM     11  C   UNL     1       5.745   2.781  11.338  0.00  0.00    +0.000 C 
ATOM     12  C   UNL     1       6.354   3.592  12.441  0.00  0.00    +0.000 A 
ATOM     13  C   UNL     1       5.848   3.440  13.800  0.00  0.00    +0.000 A 
ATOM     14  C   UNL     1       6.391   4.154  14.802  0.00  0.00    +0.000 A 
ATOM     15  N   UNL     1       7.409   5.046  14.519  0.00  0.00    +0.000 N 
ATOM     16  C   UNL     1       7.937   5.271  13.278  0.00  0.00    +0.000 A 
ATOM     17  O   UNL     1       8.829   6.077  13.060  0.00  0.00    +0.000 OA
ATOM     18  C   UNL     1       7.349   4.462  12.184  0.00  0.00    +0.000 A 
ATOM     19  H   UNL     1       7.762   5.612  15.286  0.00  0.00    +0.000 HD
ENDBRANCH   7  14
ENDBRANCH   1   9
BRANCH   5  20
ATOM     20  C   UNL     1       2.273   5.725  20.391  0.00  0.00    +0.000 C 
ATOM     21  C   UNL     1       0.794   5.431  20.663  0.00  0.00    +0.000 C 
BRANCH  20  22
ATOM     22  S   UNL     1       2.435   7.224  19.318  0.00  0.00    +0.000 S 
BRANCH  22  23
ATOM     23  C   UNL     1       1.528   8.408  20.192  0.00  0.00    +0.000 A 
ATOM     24  N   UNL     1       1.349   8.454  21.493  0.00  0.00    +0.000 NA
ATOM     25  N   UNL     1       0.569   9.554  21.770  0.00  0.00    +0.000 NA
ATOM     26  C   UNL     1       0.299  10.149  20.631  0.00  0.00    +0.000 A 
ATOM     27  N   UNL     1       0.882   9.460  19.608  0.00  0.00    +0.000 N 
ATOM     28  C   UNL     1       0.778   9.805  18.214  0.00  0.00    +0.000 C 
ENDBRANCH  22  23
ENDBRANCH  20  22
ENDBRANCH   5  20
TORSDOF 5
ENDMDL
MODEL 8
REMARK VINA RESULT:      -7.5      3.459      8.461
REMARK  Name = 
REMARK  8 active torsions:
REMARK  status: ('A' for Active; 'I' for Inactive)
REMARK    1  A    between atoms: C_1  and  C_2
REMARK    2  A    between atoms: C_4  and  C_5
REMARK    3  A    between atoms: N_7  and  C_8
REMARK    4  A    between atoms: C_12  and  C_13
REMARK    5  A    between atoms: C_13  and  C_14
REMARK    6  A    between atoms: C_13  and  S_15
REMARK    7  A    between atoms: S_15  and  C_16
REMARK    8  A    between atoms: N_20  and  C_21
REMARK                            x       y       z     vdW  Elec       q    Type
REMARK                         _______ _______ _______ _____ _____    ______ ____
ROOT
ATOM      1  C   UNL     1       2.717   5.369  18.884  0.00  0.00    +0.000 A 
ATOM      2  C   UNL     1       2.429   4.041  19.209  0.00  0.00    +0.000 A 
ATOM      3  C   UNL     1       3.044   2.991  18.530  0.00  0.00    +0.000 A 
ATOM      4  C   UNL     1       3.973   3.255  17.528  0.00  0.00    +0.000 A 
ATOM      5  C   UNL     1       4.295   4.576  17.175  0.00  0.00    +0.000 A 
ATOM      6  C   UNL     1       3.615   5.629  17.832  0.00  0.00    +0.000 A 
ENDROOT
BRANCH   1   9
ATOM      7  C   UNL     1       2.034   7.741  19.093  0.00  0.00    +0.000 C 
ATOM      8  O   UNL     1       2.350   8.099  17.957  0.00  0.00    +0.000 OA
ATOM      9  N   UNL     1       2.163   6.463  19.604  0.00  0.00    +0.000 N 
ATOM     10  H   UNL     1       1.650   6.234  20.445  0.00  0.00    +0.000 HD
BRANCH   7  14
ATOM     11  C   UNL     1       0.019   9.554  23.410  0.00  0.00    +0.000 C 
ATOM     12  C   UNL     1       0.366   9.723  21.962  0.00  0.00    +0.000 A 
ATOM     13  C   UNL     1       1.011   8.624  21.251  0.00  0.00    +0.000 A 
ATOM     14  C   UNL     1       1.319   8.758  19.949  0.00  0.00    +0.000 A 
ATOM     15  N   UNL     1       1.042   9.952  19.310  0.00  0.00    +0.000 N 
ATOM     16  C   UNL     1       0.458  11.041  19.894  0.00  0.00    +0.000 A 
ATOM     17  O   UNL     1       0.238  12.087  19.303  0.00  0.00    +0.000 OA
ATOM     18  C   UNL     1       0.099  10.877  21.323  0.00  0.00    +0.000 A 
ATOM     19  H   UNL     1       1.336  10.043  18.341  0.00  0.00    +0.000 HD
ENDBRANCH   7  14
ENDBRANCH   1   9
BRANCH   5  20
ATOM     20  C   UNL     1       5.387   4.867  16.141  0.00  0.00    +0.000 C 
ATOM     21  C   UNL     1       5.204   4.009  14.885  0.00  0.00    +0.000 C 
BRANCH  20  22
ATOM     22  S   UNL     1       7.060   4.568  16.874  0.00  0.00    +0.000 S 
BRANCH  22  23
ATOM     23  C   UNL     1       7.537   6.153  17.373  0.00  0.00    +0.000 A 
ATOM     24  N   UNL     1       7.618   7.222  16.614  0.00  0.00    +0.000 NA
ATOM     25  N   UNL     1       8.033   8.269  17.406  0.00  0.00    +0.000 NA
ATOM     26  C   UNL     1       8.188   7.809  18.625  0.00  0.00    +0.000 A 
ATOM     27  N   UNL     1       7.887   6.478  18.652  0.00  0.00    +0.000 N 
ATOM     28  C   UNL     1       7.971   5.635  19.816  0.00  0.00    +0.000 C 
ENDBRANCH  22  23
ENDBRANCH  20  22
ENDBRANCH   5  20
TORSDOF 5
ENDMDL
MODEL 9
REMARK VINA RESULT:      -7.5      2.965      5.027
REMARK  Name = 
REMARK  8 active torsions:
REMARK  status: ('A' for Active; 'I' for Inactive)
REMARK    1  A    between atoms: C_1  and  C_2
REMARK    2  A    between atoms: C_4  and  C_5
REMARK    3  A    between atoms: N_7  and  C_8
REMARK    4  A    between atoms: C_12  and  C_13
REMARK    5  A    between atoms: C_13  and  C_14
REMARK    6  A    between atoms: C_13  and  S_15
REMARK    7  A    between atoms: S_15  and  C_16
REMARK    8  A    between atoms: N_20  and  C_21
REMARK                            x       y       z     vdW  Elec       q    Type
REMARK                         _______ _______ _______ _____ _____    ______ ____
ROOT
ATOM      1  C   UNL     1       1.206   8.926  20.150  0.00  0.00    +0.000 A 
ATOM      2  C   UNL     1       0.989   8.987  21.529  0.00  0.00    +0.000 A 
ATOM      3  C   UNL     1       0.259  10.033  22.092  0.00  0.00    +0.000 A 
ATOM      4  C   UNL     1      -0.284  11.023  21.279  0.00  0.00    +0.000 A 
ATOM      5  C   UNL     1      -0.094  10.995  19.887  0.00  0.00    +0.000 A 
ATOM      6  C   UNL     1       0.701   9.961  19.339  0.00  0.00    +0.000 A 
ENDROOT
BRANCH   1   9
ATOM      7  C   UNL     1       2.424   7.879  18.264  0.00  0.00    +0.000 C 
ATOM      8  O   UNL     1       2.418   8.854  17.510  0.00  0.00    +0.000 OA
ATOM      9  N   UNL     1       1.882   7.837  19.536  0.00  0.00    +0.000 N 
ATOM     10  H   UNL     1       2.161   7.080  20.145  0.00  0.00    +0.000 HD
BRANCH   7  14
ATOM     11  C   UNL     1       3.299   2.897  17.632  0.00  0.00    +0.000 C 
ATOM     12  C   UNL     1       3.698   4.328  17.427  0.00  0.00    +0.000 A 
ATOM     13  C   UNL     1       2.859   5.387  17.976  0.00  0.00    +0.000 A 
ATOM     14  C   UNL     1       3.210   6.674  17.809  0.00  0.00    +0.000 A 
ATOM     15  N   UNL     1       4.353   6.974  17.091  0.00  0.00    +0.000 N 
ATOM     16  C   UNL     1       5.192   6.054  16.525  0.00  0.00    +0.000 A 
ATOM     17  O   UNL     1       6.189   6.353  15.886  0.00  0.00    +0.000 OA
ATOM     18  C   UNL     1       4.811   4.637  16.735  0.00  0.00    +0.000 A 
ATOM     19  H   UNL     1       4.563   7.956  16.935  0.00  0.00    +0.000 HD
ENDBRANCH   7  14
ENDBRANCH   1   9
BRANCH   5  20
ATOM     20  C   UNL     1      -0.772  12.030  18.983  0.00  0.00    +0.000 C 
ATOM     21  C   UNL     1      -0.446  13.458  19.434  0.00  0.00    +0.000 C 
BRANCH  20  22
ATOM     22  S   UNL     1      -2.605  11.771  18.974  0.00  0.00    +0.000 S 
BRANCH  22  23
ATOM     23  C   UNL     1      -2.884  11.138  17.390  0.00  0.00    +0.000 A 
ATOM     24  N   UNL     1      -2.042  10.433  16.669  0.00  0.00    +0.000 NA
ATOM     25  N   UNL     1      -2.662  10.131  15.477  0.00  0.00    +0.000 NA
ATOM     26  C   UNL     1      -3.864  10.657  15.508  0.00  0.00    +0.000 A 
ATOM     27  N   UNL     1      -4.049  11.303  16.696  0.00  0.00    +0.000 N 
ATOM     28  C   UNL     1      -5.239  12.020  17.070  0.00  0.00    +0.000 C 
ENDBRANCH  22  23
ENDBRANCH  20  22
ENDBRANCH   5  20
TORSDOF 5
ENDMDL
