MODEL 1
REMARK VINA RESULT:      -7.9      0.000      0.000
REMARK  Name = 
REMARK  6 active torsions:
REMARK  status: ('A' for Active; 'I' for Inactive)
REMARK    1  A    between atoms: C_1  and  C_2
REMARK    2  A    between atoms: C_2  and  S_3
REMARK    3  A    between atoms: C_2  and  C_10
REMARK    4  A    between atoms: S_3  and  C_4
REMARK    5  A    between atoms: N_8  and  C_9
REMARK    6  A    between atoms: C_16  and  C_18
REMARK                            x       y       z     vdW  Elec       q    Type
REMARK                         _______ _______ _______ _____ _____    ______ ____
ROOT
ATOM      1  C   UNL     1       6.297   5.953  17.180  0.00  0.00    +0.000 A 
ATOM      2  C   UNL     1       6.889   5.200  18.198  0.00  0.00    +0.000 A 
ATOM      3  C   UNL     1       7.826   5.810  19.011  0.00  0.00    +0.000 A 
ATOM      4  N   UNL     1       8.207   7.095  18.883  0.00  0.00    +0.000 NA
ATOM      5  C   UNL     1       7.644   7.834  17.917  0.00  0.00    +0.000 A 
ATOM      6  N   UNL     1       8.022   9.176  17.749  0.00  0.00    +0.000 N 
ATOM      7  C   UNL     1       8.946   9.835  18.536  0.00  0.00    +0.000 C 
ATOM      8  O   UNL     1       9.550   9.403  19.511  0.00  0.00    +0.000 OA
ATOM      9  C   UNL     1       6.685   7.304  17.054  0.00  0.00    +0.000 A 
ATOM     10  H   UNL     1       7.613   9.711  16.993  0.00  0.00    +0.000 HD
ENDROOT
BRANCH   7  11
ATOM     11  C   UNL     1       9.213  11.248  18.113  0.00  0.00    +0.000 A 
ATOM     12  C   UNL     1      10.517  11.626  17.794  0.00  0.00    +0.000 A 
ATOM     13  C   UNL     1      10.751  12.935  17.387  0.00  0.00    +0.000 A 
ATOM     14  C   UNL     1       9.680  13.817  17.313  0.00  0.00    +0.000 A 
ATOM     15  C   UNL     1       8.420  13.346  17.653  0.00  0.00    +0.000 A 
ATOM     16 CL   UNL     1       7.054  14.381  17.582  0.00  0.00    +0.000 Cl
ATOM     17  N   UNL     1       8.143  12.086  18.054  0.00  0.00    +0.000 NA
ENDBRANCH   7  11
BRANCH   1  19
ATOM     18  C   UNL     1       3.977   4.962  17.076  0.00  0.00    +0.000 C 
ATOM     19  C   UNL     1       5.237   5.315  16.282  0.00  0.00    +0.000 C 
BRANCH  19  20
ATOM     20  S   UNL     1       5.999   3.870  15.442  0.00  0.00    +0.000 S 
BRANCH  20  21
ATOM     21  C   UNL     1       6.926   4.552  14.156  0.00  0.00    +0.000 A 
ATOM     22  N   UNL     1       7.865   5.465  14.229  0.00  0.00    +0.000 NA
ATOM     23  N   UNL     1       8.246   5.786  12.943  0.00  0.00    +0.000 NA
ATOM     24  C   UNL     1       7.542   5.039  12.124  0.00  0.00    +0.000 A 
ATOM     25  N   UNL     1       6.719   4.225  12.844  0.00  0.00    +0.000 N 
ATOM     26  C   UNL     1       5.839   3.226  12.302  0.00  0.00    +0.000 C 
ENDBRANCH  20  21
ENDBRANCH  19  20
ENDBRANCH   1  19
TORSDOF 4
ENDMDL
MODEL 2
REMARK VINA RESULT:      -7.8      1.148      1.383
REMARK  Name = 
REMARK  6 active torsions:
REMARK  status: ('A' for Active; 'I' for Inactive)
REMARK    1  A    between atoms: C_1  and  C_2
REMARK    2  A    between atoms: C_2  and  S_3
REMARK    3  A    between atoms: C_2  and  C_10
REMARK    4  A    between atoms: S_3  and  C_4
REMARK    5  A    between atoms: N_8  and  C_9
REMARK    6  A    between atoms: C_16  and  C_18
REMARK                            x       y       z     vdW  Elec       q    Type
REMARK                         _______ _______ _______ _____ _____    ______ ____
ROOT
ATOM      1  C   UNL     1       6.281   5.927  17.152  0.00  0.00    +0.000 A 
ATOM      2  C   UNL     1       6.954   5.161  18.109  0.00  0.00    +0.000 A 
ATOM      3  C   UNL     1       7.909   5.778  18.895  0.00  0.00    +0.000 A 
ATOM      4  N   UNL     1       8.233   7.081  18.797  0.00  0.00    +0.000 NA
ATOM      5  C   UNL     1       7.592   7.832  17.891  0.00  0.00    +0.000 A 
ATOM      6  N   UNL     1       7.908   9.193  17.756  0.00  0.00    +0.000 N 
ATOM      7  C   UNL     1       8.847   9.860  18.518  0.00  0.00    +0.000 C 
ATOM      8  O   UNL     1       9.517   9.418  19.444  0.00  0.00    +0.000 OA
ATOM      9  C   UNL     1       6.609   7.296  17.059  0.00  0.00    +0.000 A 
ATOM     10  H   UNL     1       7.439   9.739  17.043  0.00  0.00    +0.000 HD
ENDROOT
BRANCH   7  11
ATOM     11  C   UNL     1       9.036  11.297  18.137  0.00  0.00    +0.000 A 
ATOM     12  C   UNL     1       7.952  12.013  17.629  0.00  0.00    +0.000 A 
ATOM     13  C   UNL     1       8.134  13.350  17.293  0.00  0.00    +0.000 A 
ATOM     14  C   UNL     1       9.387  13.924  17.475  0.00  0.00    +0.000 A 
ATOM     15  C   UNL     1      10.403  13.128  17.985  0.00  0.00    +0.000 A 
ATOM     16 CL   UNL     1      11.972  13.773  18.235  0.00  0.00    +0.000 Cl
ATOM     17  N   UNL     1      10.275  11.827  18.324  0.00  0.00    +0.000 NA
ENDBRANCH   7  11
BRANCH   1  19
ATOM     18  C   UNL     1       3.966   4.918  17.118  0.00  0.00    +0.000 C 
ATOM     19  C   UNL     1       5.200   5.279  16.287  0.00  0.00    +0.000 C 
BRANCH  19  20
ATOM     20  S   UNL     1       5.947   3.839  15.426  0.00  0.00    +0.000 S 
BRANCH  20  21
ATOM     21  C   UNL     1       6.885   4.530  14.152  0.00  0.00    +0.000 A 
ATOM     22  N   UNL     1       7.822   5.444  14.240  0.00  0.00    +0.000 NA
ATOM     23  N   UNL     1       8.214   5.773  12.959  0.00  0.00    +0.000 NA
ATOM     24  C   UNL     1       7.518   5.030  12.129  0.00  0.00    +0.000 A 
ATOM     25  N   UNL     1       6.689   4.211  12.837  0.00  0.00    +0.000 N 
ATOM     26  C   UNL     1       5.814   3.215  12.281  0.00  0.00    +0.000 C 
ENDBRANCH  20  21
ENDBRANCH  19  20
ENDBRANCH   1  19
TORSDOF 4
ENDMDL
MODEL 3
REMARK VINA RESULT:      -7.6      6.412      8.288
REMARK  Name = 
REMARK  6 active torsions:
REMARK  status: ('A' for Active; 'I' for Inactive)
REMARK    1  A    between atoms: C_1  and  C_2
REMARK    2  A    between atoms: C_2  and  S_3
REMARK    3  A    between atoms: C_2  and  C_10
REMARK    4  A    between atoms: S_3  and  C_4
REMARK    5  A    between atoms: N_8  and  C_9
REMARK    6  A    between atoms: C_16  and  C_18
REMARK                            x       y       z     vdW  Elec       q    Type
REMARK                         _______ _______ _______ _____ _____    ______ ____
ROOT
ATOM      1  C   UNL     1       4.216   5.691  18.663  0.00  0.00    +0.000 A 
ATOM      2  C   UNL     1       4.199   6.107  17.328  0.00  0.00    +0.000 A 
ATOM      3  C   UNL     1       3.405   7.183  16.982  0.00  0.00    +0.000 A 
ATOM      4  N   UNL     1       2.640   7.863  17.858  0.00  0.00    +0.000 NA
ATOM      5  C   UNL     1       2.650   7.483  19.142  0.00  0.00    +0.000 A 
ATOM      6  N   UNL     1       1.860   8.165  20.083  0.00  0.00    +0.000 N 
ATOM      7  C   UNL     1       1.055   9.248  19.793  0.00  0.00    +0.000 C 
ATOM      8  O   UNL     1       0.919   9.819  18.717  0.00  0.00    +0.000 OA
ATOM      9  C   UNL     1       3.427   6.412  19.584  0.00  0.00    +0.000 A 
ATOM     10  H   UNL     1       1.853   7.844  21.043  0.00  0.00    +0.000 HD
ENDROOT
BRANCH   7  11
ATOM     11  C   UNL     1       0.270   9.758  20.964  0.00  0.00    +0.000 A 
ATOM     12  C   UNL     1       0.364   9.092  22.186  0.00  0.00    +0.000 A 
ATOM     13  C   UNL     1      -0.355   9.582  23.269  0.00  0.00    +0.000 A 
ATOM     14  C   UNL     1      -1.141  10.716  23.097  0.00  0.00    +0.000 A 
ATOM     15  C   UNL     1      -1.170  11.306  21.841  0.00  0.00    +0.000 A 
ATOM     16 CL   UNL     1      -2.118  12.708  21.560  0.00  0.00    +0.000 Cl
ATOM     17  N   UNL     1      -0.491  10.867  20.759  0.00  0.00    +0.000 NA
ENDBRANCH   7  11
BRANCH   1  19
ATOM     18  C   UNL     1       6.451   4.558  18.351  0.00  0.00    +0.000 C 
ATOM     19  C   UNL     1       5.107   4.522  19.082  0.00  0.00    +0.000 C 
BRANCH  19  20
ATOM     20  S   UNL     1       4.169   2.966  18.808  0.00  0.00    +0.000 S 
BRANCH  20  21
ATOM     21  C   UNL     1       3.057   2.889  20.125  0.00  0.00    +0.000 A 
ATOM     22  N   UNL     1       3.298   2.554  21.371  0.00  0.00    +0.000 NA
ATOM     23  N   UNL     1       2.094   2.521  22.042  0.00  0.00    +0.000 NA
ATOM     24  C   UNL     1       1.156   2.860  21.188  0.00  0.00    +0.000 A 
ATOM     25  N   UNL     1       1.719   3.129  19.976  0.00  0.00    +0.000 N 
ATOM     26  C   UNL     1       1.020   3.587  18.806  0.00  0.00    +0.000 C 
ENDBRANCH  20  21
ENDBRANCH  19  20
ENDBRANCH   1  19
TORSDOF 4
ENDMDL
MODEL 4
REMARK VINA RESULT:      -7.5      5.204      6.635
REMARK  Name = 
REMARK  6 active torsions:
REMARK  status: ('A' for Active; 'I' for Inactive)
REMARK    1  A    between atoms: C_1  and  C_2
REMARK    2  A    between atoms: C_2  and  S_3
REMARK    3  A    between atoms: C_2  and  C_10
REMARK    4  A    between atoms: S_3  and  C_4
REMARK    5  A    between atoms: N_8  and  C_9
REMARK    6  A    between atoms: C_16  and  C_18
REMARK                            x       y       z     vdW  Elec       q    Type
REMARK                         _______ _______ _______ _____ _____    ______ ____
ROOT
ATOM      1  C   UNL     1       3.146   5.633  18.428  0.00  0.00    +0.000 A 
ATOM      2  C   UNL     1       2.894   5.086  19.690  0.00  0.00    +0.000 A 
ATOM      3  C   UNL     1       2.221   5.856  20.620  0.00  0.00    +0.000 A 
ATOM      4  N   UNL     1       1.791   7.110  20.385  0.00  0.00    +0.000 NA
ATOM      5  C   UNL     1       2.017   7.647  19.179  0.00  0.00    +0.000 A 
ATOM      6  N   UNL     1       1.588   8.954  18.900  0.00  0.00    +0.000 N 
ATOM      7  C   UNL     1       0.908   9.763  19.789  0.00  0.00    +0.000 C 
ATOM      8  O   UNL     1       0.530   9.487  20.922  0.00  0.00    +0.000 OA
ATOM      9  C   UNL     1       2.682   6.941  18.176  0.00  0.00    +0.000 A 
ATOM     10  H   UNL     1       1.797   9.358  17.995  0.00  0.00    +0.000 HD
ENDROOT
BRANCH   7  11
ATOM     11  C   UNL     1       0.613  11.137  19.265  0.00  0.00    +0.000 A 
ATOM     12  C   UNL     1      -0.715  11.541  19.129  0.00  0.00    +0.000 A 
ATOM     13  C   UNL     1      -0.976  12.822  18.658  0.00  0.00    +0.000 A 
ATOM     14  C   UNL     1       0.092  13.652  18.339  0.00  0.00    +0.000 A 
ATOM     15  C   UNL     1       1.378  13.157  18.507  0.00  0.00    +0.000 A 
ATOM     16 CL   UNL     1       2.740  14.129  18.134  0.00  0.00    +0.000 Cl
ATOM     17  N   UNL     1       1.682  11.921  18.960  0.00  0.00    +0.000 NA
ENDBRANCH   7  11
BRANCH   1  19
ATOM     18  C   UNL     1       3.075   3.525  17.040  0.00  0.00    +0.000 C 
ATOM     19  C   UNL     1       3.862   4.796  17.368  0.00  0.00    +0.000 C 
BRANCH  19  20
ATOM     20  S   UNL     1       5.568   4.465  17.963  0.00  0.00    +0.000 S 
BRANCH  20  21
ATOM     21  C   UNL     1       6.409   5.954  17.730  0.00  0.00    +0.000 A 
ATOM     22  N   UNL     1       6.208   6.862  16.805  0.00  0.00    +0.000 NA
ATOM     23  N   UNL     1       7.187   7.824  16.936  0.00  0.00    +0.000 NA
ATOM     24  C   UNL     1       7.942   7.484  17.955  0.00  0.00    +0.000 A 
ATOM     25  N   UNL     1       7.472   6.329  18.505  0.00  0.00    +0.000 N 
ATOM     26  C   UNL     1       8.001   5.675  19.671  0.00  0.00    +0.000 C 
ENDBRANCH  20  21
ENDBRANCH  19  20
ENDBRANCH   1  19
TORSDOF 4
ENDMDL
MODEL 5
REMARK VINA RESULT:      -7.4      5.040      8.511
REMARK  Name = 
REMARK  6 active torsions:
REMARK  status: ('A' for Active; 'I' for Inactive)
REMARK    1  A    between atoms: C_1  and  C_2
REMARK    2  A    between atoms: C_2  and  S_3
REMARK    3  A    between atoms: C_2  and  C_10
REMARK    4  A    between atoms: S_3  and  C_4
REMARK    5  A    between atoms: N_8  and  C_9
REMARK    6  A    between atoms: C_16  and  C_18
REMARK                            x       y       z     vdW  Elec       q    Type
REMARK                         _______ _______ _______ _____ _____    ______ ____
ROOT
ATOM      1  C   UNL     1       5.779   5.045  18.417  0.00  0.00    +0.000 A 
ATOM      2  C   UNL     1       6.718   6.081  18.445  0.00  0.00    +0.000 A 
ATOM      3  C   UNL     1       7.382   6.401  17.276  0.00  0.00    +0.000 A 
ATOM      4  N   UNL     1       7.179   5.773  16.103  0.00  0.00    +0.000 NA
ATOM      5  C   UNL     1       6.277   4.783  16.056  0.00  0.00    +0.000 A 
ATOM      6  N   UNL     1       6.044   4.102  14.850  0.00  0.00    +0.000 N 
ATOM      7  C   UNL     1       6.674   4.385  13.654  0.00  0.00    +0.000 C 
ATOM      8  O   UNL     1       7.486   5.273  13.423  0.00  0.00    +0.000 OA
ATOM      9  C   UNL     1       5.555   4.396  17.185  0.00  0.00    +0.000 A 
ATOM     10  H   UNL     1       5.384   3.333  14.840  0.00  0.00    +0.000 HD
ENDROOT
BRANCH   7  11
ATOM     11  C   UNL     1       6.289   3.472  12.529  0.00  0.00    +0.000 A 
ATOM     12  C   UNL     1       7.245   2.606  12.000  0.00  0.00    +0.000 A 
ATOM     13  C   UNL     1       6.873   1.753  10.968  0.00  0.00    +0.000 A 
ATOM     14  C   UNL     1       5.564   1.794  10.500  0.00  0.00    +0.000 A 
ATOM     15  C   UNL     1       4.687   2.693  11.091  0.00  0.00    +0.000 A 
ATOM     16 CL   UNL     1       3.059   2.794  10.562  0.00  0.00    +0.000 Cl
ATOM     17  N   UNL     1       5.002   3.541  12.093  0.00  0.00    +0.000 NA
ENDBRANCH   7  11
BRANCH   1  19
ATOM     18  C   UNL     1       4.892   3.169  19.857  0.00  0.00    +0.000 C 
ATOM     19  C   UNL     1       5.007   4.686  19.688  0.00  0.00    +0.000 C 
BRANCH  19  20
ATOM     20  S   UNL     1       3.382   5.540  19.626  0.00  0.00    +0.000 S 
BRANCH  20  21
ATOM     21  C   UNL     1       2.276   4.334  19.077  0.00  0.00    +0.000 A 
ATOM     22  N   UNL     1       1.946   4.039  17.842  0.00  0.00    +0.000 NA
ATOM     23  N   UNL     1       0.944   3.092  17.886  0.00  0.00    +0.000 NA
ATOM     24  C   UNL     1       0.710   2.822  19.150  0.00  0.00    +0.000 A 
ATOM     25  N   UNL     1       1.546   3.559  19.935  0.00  0.00    +0.000 N 
ATOM     26  C   UNL     1       1.627   3.495  21.369  0.00  0.00    +0.000 C 
ENDBRANCH  20  21
ENDBRANCH  19  20
ENDBRANCH   1  19
TORSDOF 4
ENDMDL
MODEL 6
REMARK VINA RESULT:      -7.3      4.985      8.551
REMARK  Name = 
REMARK  6 active torsions:
REMARK  status: ('A' for Active; 'I' for Inactive)
REMARK    1  A    between atoms: C_1  and  C_2
REMARK    2  A    between atoms: C_2  and  S_3
REMARK    3  A    between atoms: C_2  and  C_10
REMARK    4  A    between atoms: S_3  and  C_4
REMARK    5  A    between atoms: N_8  and  C_9
REMARK    6  A    between atoms: C_16  and  C_18
REMARK                            x       y       z     vdW  Elec       q    Type
REMARK                         _______ _______ _______ _____ _____    ______ ____
ROOT
ATOM      1  C   UNL     1       5.779   5.312  18.318  0.00  0.00    +0.000 A 
ATOM      2  C   UNL     1       6.756   6.312  18.317  0.00  0.00    +0.000 A 
ATOM      3  C   UNL     1       7.445   6.560  17.145  0.00  0.00    +0.000 A 
ATOM      4  N   UNL     1       7.232   5.893  15.995  0.00  0.00    +0.000 NA
ATOM      5  C   UNL     1       6.294   4.937  15.976  0.00  0.00    +0.000 A 
ATOM      6  N   UNL     1       6.048   4.217  14.795  0.00  0.00    +0.000 N 
ATOM      7  C   UNL     1       6.702   4.428  13.597  0.00  0.00    +0.000 C 
ATOM      8  O   UNL     1       7.550   5.275  13.341  0.00  0.00    +0.000 OA
ATOM      9  C   UNL     1       5.544   4.624  17.109  0.00  0.00    +0.000 A 
ATOM     10  H   UNL     1       5.360   3.475  14.806  0.00  0.00    +0.000 HD
ENDROOT
BRANCH   7  11
ATOM     11  C   UNL     1       6.295   3.487  12.504  0.00  0.00    +0.000 A 
ATOM     12  C   UNL     1       7.237   2.595  11.990  0.00  0.00    +0.000 A 
ATOM     13  C   UNL     1       6.845   1.716  10.988  0.00  0.00    +0.000 A 
ATOM     14  C   UNL     1       5.531   1.756  10.534  0.00  0.00    +0.000 A 
ATOM     15  C   UNL     1       4.670   2.681  11.108  0.00  0.00    +0.000 A 
ATOM     16 CL   UNL     1       3.036   2.782  10.595  0.00  0.00    +0.000 Cl
ATOM     17  N   UNL     1       5.004   3.555  12.081  0.00  0.00    +0.000 NA
ENDBRANCH   7  11
BRANCH   1  19
ATOM     18  C   UNL     1       4.869   3.532  19.861  0.00  0.00    +0.000 C 
ATOM     19  C   UNL     1       4.979   5.034  19.591  0.00  0.00    +0.000 C 
BRANCH  19  20
ATOM     20  S   UNL     1       3.351   5.870  19.434  0.00  0.00    +0.000 S 
BRANCH  20  21
ATOM     21  C   UNL     1       2.197   4.664  19.871  0.00  0.00    +0.000 A 
ATOM     22  N   UNL     1       1.780   4.337  21.072  0.00  0.00    +0.000 NA
ATOM     23  N   UNL     1       0.946   3.246  20.950  0.00  0.00    +0.000 NA
ATOM     24  C   UNL     1       0.861   2.955  19.672  0.00  0.00    +0.000 A 
ATOM     25  N   UNL     1       1.609   3.839  18.953  0.00  0.00    +0.000 N 
ATOM     26  C   UNL     1       1.719   3.877  17.520  0.00  0.00    +0.000 C 
ENDBRANCH  20  21
ENDBRANCH  19  20
ENDBRANCH   1  19
TORSDOF 4
ENDMDL
MODEL 7
REMARK VINA RESULT:      -7.3      3.894      9.183
REMARK  Name = 
REMARK  6 active torsions:
REMARK  status: ('A' for Active; 'I' for Inactive)
REMARK    1  A    between atoms: C_1  and  C_2
REMARK    2  A    between atoms: C_2  and  S_3
REMARK    3  A    between atoms: C_2  and  C_10
REMARK    4  A    between atoms: S_3  and  C_4
REMARK    5  A    between atoms: N_8  and  C_9
REMARK    6  A    between atoms: C_16  and  C_18
REMARK                            x       y       z     vdW  Elec       q    Type
REMARK                         _______ _______ _______ _____ _____    ______ ____
ROOT
ATOM      1  C   UNL     1       9.066  11.742  18.129  0.00  0.00    +0.000 A 
ATOM      2  C   UNL     1       9.646  11.487  19.376  0.00  0.00    +0.000 A 
ATOM      3  C   UNL     1       9.560  10.209  19.894  0.00  0.00    +0.000 A 
ATOM      4  N   UNL     1       8.947   9.186  19.269  0.00  0.00    +0.000 NA
ATOM      5  C   UNL     1       8.393   9.411  18.070  0.00  0.00    +0.000 A 
ATOM      6  N   UNL     1       7.740   8.369  17.391  0.00  0.00    +0.000 N 
ATOM      7  C   UNL     1       7.631   7.075  17.860  0.00  0.00    +0.000 C 
ATOM      8  O   UNL     1       8.100   6.604  18.890  0.00  0.00    +0.000 OA
ATOM      9  C   UNL     1       8.437  10.668  17.466  0.00  0.00    +0.000 A 
ATOM     10  H   UNL     1       7.297   8.563  16.502  0.00  0.00    +0.000 HD
ENDROOT
BRANCH   7  11
ATOM     11  C   UNL     1       6.835   6.167  16.971  0.00  0.00    +0.000 A 
ATOM     12  C   UNL     1       5.630   5.644  17.439  0.00  0.00    +0.000 A 
ATOM     13  C   UNL     1       4.892   4.816  16.600  0.00  0.00    +0.000 A 
ATOM     14  C   UNL     1       5.381   4.540  15.329  0.00  0.00    +0.000 A 
ATOM     15  C   UNL     1       6.592   5.107  14.957  0.00  0.00    +0.000 A 
ATOM     16 CL   UNL     1       7.252   4.808  13.402  0.00  0.00    +0.000 Cl
ATOM     17  N   UNL     1       7.344   5.914  15.735  0.00  0.00    +0.000 NA
ENDBRANCH   7  11
BRANCH   1  19
ATOM     18  C   UNL     1      10.619  13.484  17.163  0.00  0.00    +0.000 C 
ATOM     19  C   UNL     1       9.170  13.139  17.516  0.00  0.00    +0.000 C 
BRANCH  19  20
ATOM     20  S   UNL     1       8.399  14.331  18.682  0.00  0.00    +0.000 S 
BRANCH  20  21
ATOM     21  C   UNL     1       9.396  15.736  18.594  0.00  0.00    +0.000 A 
ATOM     22  N   UNL     1       9.340  16.716  17.722  0.00  0.00    +0.000 NA
ATOM     23  N   UNL     1      10.401  17.562  17.968  0.00  0.00    +0.000 NA
ATOM     24  C   UNL     1      11.059  17.084  18.998  0.00  0.00    +0.000 A 
ATOM     25  N   UNL     1      10.445  15.951  19.444  0.00  0.00    +0.000 N 
ATOM     26  C   UNL     1      10.838  15.175  20.589  0.00  0.00    +0.000 C 
ENDBRANCH  20  21
ENDBRANCH  19  20
ENDBRANCH   1  19
TORSDOF 4
ENDMDL
MODEL 8
REMARK VINA RESULT:      -7.3      7.963     10.268
REMARK  Name = 
REMARK  6 active torsions:
REMARK  status: ('A' for Active; 'I' for Inactive)
REMARK    1  A    between atoms: C_1  and  C_2
REMARK    2  A    between atoms: C_2  and  S_3
REMARK    3  A    between atoms: C_2  and  C_10
REMARK    4  A    between atoms: S_3  and  C_4
REMARK    5  A    between atoms: N_8  and  C_9
REMARK    6  A    between atoms: C_16  and  C_18
REMARK                            x       y       z     vdW  Elec       q    Type
REMARK                         _______ _______ _______ _____ _____    ______ ____
ROOT
ATOM      1  C   UNL     1       0.370  10.636  19.580  0.00  0.00    +0.000 A 
ATOM      2  C   UNL     1      -0.001  10.394  20.907  0.00  0.00    +0.000 A 
ATOM      3  C   UNL     1       0.384   9.203  21.493  0.00  0.00    +0.000 A 
ATOM      4  N   UNL     1       1.100   8.254  20.861  0.00  0.00    +0.000 NA
ATOM      5  C   UNL     1       1.470   8.472  19.592  0.00  0.00    +0.000 A 
ATOM      6  N   UNL     1       2.213   7.502  18.899  0.00  0.00    +0.000 N 
ATOM      7  C   UNL     1       2.628   6.300  19.438  0.00  0.00    +0.000 C 
ATOM      8  O   UNL     1       2.471   5.894  20.583  0.00  0.00    +0.000 OA
ATOM      9  C   UNL     1       1.133   9.649  18.922  0.00  0.00    +0.000 A 
ATOM     10  H   UNL     1       2.455   7.668  17.930  0.00  0.00    +0.000 HD
ENDROOT
BRANCH   7  11
ATOM     11  C   UNL     1       3.357   5.416  18.471  0.00  0.00    +0.000 A 
ATOM     12  C   UNL     1       4.157   5.999  17.489  0.00  0.00    +0.000 A 
ATOM     13  C   UNL     1       4.841   5.170  16.608  0.00  0.00    +0.000 A 
ATOM     14  C   UNL     1       4.704   3.793  16.737  0.00  0.00    +0.000 A 
ATOM     15  C   UNL     1       3.883   3.309  17.746  0.00  0.00    +0.000 A 
ATOM     16 CL   UNL     1       3.670   1.621  17.961  0.00  0.00    +0.000 Cl
ATOM     17  N   UNL     1       3.197   4.074  18.623  0.00  0.00    +0.000 NA
ENDBRANCH   7  11
BRANCH   1  19
ATOM     18  C   UNL     1       0.883  13.101  19.386  0.00  0.00    +0.000 C 
ATOM     19  C   UNL     1      -0.017  11.957  18.914  0.00  0.00    +0.000 C 
BRANCH  19  20
ATOM     20  S   UNL     1      -1.802  12.253  19.231  0.00  0.00    +0.000 S 
BRANCH  20  21
ATOM     21  C   UNL     1      -2.605  11.608  17.847  0.00  0.00    +0.000 A 
ATOM     22  N   UNL     1      -2.069  11.105  16.759  0.00  0.00    +0.000 NA
ATOM     23  N   UNL     1      -3.089  10.822  15.876  0.00  0.00    +0.000 NA
ATOM     24  C   UNL     1      -4.220  11.139  16.463  0.00  0.00    +0.000 A 
ATOM     25  N   UNL     1      -3.966  11.610  17.716  0.00  0.00    +0.000 N 
ATOM     26  C   UNL     1      -4.954  12.004  18.684  0.00  0.00    +0.000 C 
ENDBRANCH  20  21
ENDBRANCH  19  20
ENDBRANCH   1  19
TORSDOF 4
ENDMDL
MODEL 9
REMARK VINA RESULT:      -7.3      5.472      6.754
REMARK  Name = 
REMARK  6 active torsions:
REMARK  status: ('A' for Active; 'I' for Inactive)
REMARK    1  A    between atoms: C_1  and  C_2
REMARK    2  A    between atoms: C_2  and  S_3
REMARK    3  A    between atoms: C_2  and  C_10
REMARK    4  A    between atoms: S_3  and  C_4
REMARK    5  A    between atoms: N_8  and  C_9
REMARK    6  A    between atoms: C_16  and  C_18
REMARK                            x       y       z     vdW  Elec       q    Type
REMARK                         _______ _______ _______ _____ _____    ______ ____
ROOT
ATOM      1  C   UNL     1       2.939   5.530  18.654  0.00  0.00    +0.000 A 
ATOM      2  C   UNL     1       2.582   4.832  19.811  0.00  0.00    +0.000 A 
ATOM      3  C   UNL     1       1.931   5.516  20.820  0.00  0.00    +0.000 A 
ATOM      4  N   UNL     1       1.617   6.824  20.757  0.00  0.00    +0.000 NA
ATOM      5  C   UNL     1       1.945   7.507  19.652  0.00  0.00    +0.000 A 
ATOM      6  N   UNL     1       1.639   8.874  19.554  0.00  0.00    +0.000 N 
ATOM      7  C   UNL     1       0.985   9.604  20.527  0.00  0.00    +0.000 C 
ATOM      8  O   UNL     1       0.532   9.202  21.593  0.00  0.00    +0.000 OA
ATOM      9  C   UNL     1       2.597   6.897  18.580  0.00  0.00    +0.000 A 
ATOM     10  H   UNL     1       1.924   9.383  18.726  0.00  0.00    +0.000 HD
ENDROOT
BRANCH   7  11
ATOM     11  C   UNL     1       0.831  11.059  20.201  0.00  0.00    +0.000 A 
ATOM     12  C   UNL     1       0.853  11.461  18.866  0.00  0.00    +0.000 A 
ATOM     13  C   UNL     1       0.693  12.810  18.573  0.00  0.00    +0.000 A 
ATOM     14  C   UNL     1       0.518  13.709  19.620  0.00  0.00    +0.000 A 
ATOM     15  C   UNL     1       0.512  13.210  20.915  0.00  0.00    +0.000 A 
ATOM     16 CL   UNL     1       0.299  14.264  22.252  0.00  0.00    +0.000 Cl
ATOM     17  N   UNL     1       0.665  11.911  21.249  0.00  0.00    +0.000 NA
ENDBRANCH   7  11
BRANCH   1  19
ATOM     18  C   UNL     1       2.843   3.554  17.083  0.00  0.00    +0.000 C 
ATOM     19  C   UNL     1       3.634   4.794  17.508  0.00  0.00    +0.000 C 
BRANCH  19  20
ATOM     20  S   UNL     1       5.353   4.417  18.035  0.00  0.00    +0.000 S 
BRANCH  20  21
ATOM     21  C   UNL     1       6.232   5.871  17.731  0.00  0.00    +0.000 A 
ATOM     22  N   UNL     1       6.050   6.742  16.766  0.00  0.00    +0.000 NA
ATOM     23  N   UNL     1       7.055   7.682  16.849  0.00  0.00    +0.000 NA
ATOM     24  C   UNL     1       7.807   7.368  17.878  0.00  0.00    +0.000 A 
ATOM     25  N   UNL     1       7.310   6.252  18.482  0.00  0.00    +0.000 N 
ATOM     26  C   UNL     1       7.829   5.637  19.673  0.00  0.00    +0.000 C 
ENDBRANCH  20  21
ENDBRANCH  19  20
ENDBRANCH   1  19
TORSDOF 4
ENDMDL
