MODEL 1
REMARK VINA RESULT:      -9.7      0.000      0.000
REMARK  Name = 
REMARK  7 active torsions:
REMARK  status: ('A' for Active; 'I' for Inactive)
REMARK    1  A    between atoms: C_1  and  N_2
REMARK    2  A    between atoms: C_6  and  C_7
REMARK    3  A    between atoms: C_7  and  C_8
REMARK    4  A    between atoms: C_8  and  C_9
REMARK    5  A    between atoms: C_13  and  N_14
REMARK    6  A    between atoms: C_22  and  C_23
REMARK    7  A    between atoms: C_28  and  C_29
REMARK                            x       y       z     vdW  Elec       q    Type
REMARK                         _______ _______ _______ _____ _____    ______ ____
ROOT
ATOM      1  N   UNL     1       2.290   7.722  18.818  0.00  0.00    +0.000 N 
ATOM      2  C   UNL     1       1.649   7.801  20.127  0.00  0.00    +0.000 C 
ATOM      3  C   UNL     1       1.009   9.144  20.098  0.00  0.00    +0.000 A 
ATOM      4  C   UNL     1       1.360   9.816  18.942  0.00  0.00    +0.000 A 
ATOM      5  C   UNL     1       0.850  11.046  18.599  0.00  0.00    +0.000 A 
ATOM      6  C   UNL     1      -0.053  11.592  19.488  0.00  0.00    +0.000 A 
ATOM      7  N   UNL     1      -0.709  12.796  19.190  0.00  0.00    +0.000 N 
ATOM      8  C   UNL     1      -0.260  13.895  18.398  0.00  0.00    +0.000 C 
ATOM      9  C   UNL     1      -0.731  14.824  19.520  0.00  0.00    +0.000 C 
ATOM     10  C   UNL     1      -1.434  13.607  20.118  0.00  0.00    +0.000 C 
ATOM     11  N   UNL     1      -0.374  10.963  20.654  0.00  0.00    +0.000 NA
ATOM     12  C   UNL     1       0.129   9.742  20.966  0.00  0.00    +0.000 A 
ATOM     13  C   UNL     1       2.214   8.942  18.142  0.00  0.00    +0.000 C 
ATOM     14  O   UNL     1       2.693   9.306  17.083  0.00  0.00    +0.000 OA
ENDROOT
BRANCH   1  19
ATOM     15  C   UNL     1       4.521   5.088  17.300  0.00  0.00    +0.000 A 
ATOM     16  C   UNL     1       3.608   4.014  17.297  0.00  0.00    +0.000 A 
ATOM     17  C   UNL     1       2.302   4.156  17.748  0.00  0.00    +0.000 A 
ATOM     18  C   UNL     1       1.861   5.390  18.213  0.00  0.00    +0.000 A 
ATOM     19  C   UNL     1       2.718   6.494  18.252  0.00  0.00    +0.000 A 
ATOM     20  C   UNL     1       4.034   6.326  17.785  0.00  0.00    +0.000 A 
BRANCH  15  21
ATOM     21  C   UNL     1       6.038   4.892  16.793  0.00  0.00    +0.000 C 
ATOM     22  C   UNL     1       7.046   4.422  17.885  0.00  0.00    +0.000 C 
ATOM     23  O   UNL     1       7.870   5.589  17.719  0.00  0.00    +0.000 OA
ATOM     24  C   UNL     1       6.966   6.137  16.737  0.00  0.00    +0.000 C 
BRANCH  21  25
ATOM     25  C   UNL     1       6.083   3.979  15.550  0.00  0.00    +0.000 C 
BRANCH  25  31
ATOM     26  C   UNL     1       5.715   3.294  12.475  0.00  0.00    +0.000 C 
ATOM     27  N   UNL     1       6.641   4.227  13.060  0.00  0.00    +0.000 N 
ATOM     28  C   UNL     1       7.571   4.941  12.366  0.00  0.00    +0.000 A 
ATOM     29  N   UNL     1       8.244   5.703  13.191  0.00  0.00    +0.000 NA
ATOM     30  N   UNL     1       7.764   5.472  14.456  0.00  0.00    +0.000 NA
ATOM     31  C   UNL     1       6.802   4.571  14.381  0.00  0.00    +0.000 A 
ENDBRANCH  25  31
ENDBRANCH  21  25
ENDBRANCH  15  21
ENDBRANCH   1  19
BRANCH   9  32
ATOM     32  C   UNL     1       0.392  15.342  20.375  0.00  0.00    +0.000 C 
ATOM     33  F   UNL     1       1.320  15.921  19.568  0.00  0.00    +0.000 F 
ATOM     34  F   UNL     1      -0.088  16.327  21.177  0.00  0.00    +0.000 F 
ENDBRANCH   9  32
BRANCH  12  35
ATOM     35  C   UNL     1      -0.324   9.078  22.241  0.00  0.00    +0.000 C 
ATOM     36  C   UNL     1       0.433   9.334  23.527  0.00  0.00    +0.000 C 
ATOM     37  C   UNL     1      -0.939   9.907  23.345  0.00  0.00    +0.000 C 
ENDBRANCH  12  35
TORSDOF 6
ENDMDL
MODEL 2
REMARK VINA RESULT:      -9.7      4.175      9.879
REMARK  Name = 
REMARK  7 active torsions:
REMARK  status: ('A' for Active; 'I' for Inactive)
REMARK    1  A    between atoms: C_1  and  N_2
REMARK    2  A    between atoms: C_6  and  C_7
REMARK    3  A    between atoms: C_7  and  C_8
REMARK    4  A    between atoms: C_8  and  C_9
REMARK    5  A    between atoms: C_13  and  N_14
REMARK    6  A    between atoms: C_22  and  C_23
REMARK    7  A    between atoms: C_28  and  C_29
REMARK                            x       y       z     vdW  Elec       q    Type
REMARK                         _______ _______ _______ _____ _____    ______ ____
ROOT
ATOM      1  N   UNL     1       1.808   7.867  19.396  0.00  0.00    +0.000 N 
ATOM      2  C   UNL     1       2.070   6.526  19.912  0.00  0.00    +0.000 C 
ATOM      3  C   UNL     1       3.152   6.036  19.016  0.00  0.00    +0.000 A 
ATOM      4  C   UNL     1       3.391   6.954  18.009  0.00  0.00    +0.000 A 
ATOM      5  C   UNL     1       4.396   6.812  17.081  0.00  0.00    +0.000 A 
ATOM      6  C   UNL     1       5.175   5.680  17.206  0.00  0.00    +0.000 A 
ATOM      7  N   UNL     1       6.288   5.484  16.376  0.00  0.00    +0.000 N 
ATOM      8  C   UNL     1       6.507   5.937  15.040  0.00  0.00    +0.000 C 
ATOM      9  C   UNL     1       6.985   4.524  14.698  0.00  0.00    +0.000 C 
ATOM     10  C   UNL     1       6.999   4.255  16.202  0.00  0.00    +0.000 C 
ATOM     11  N   UNL     1       4.922   4.744  18.165  0.00  0.00    +0.000 NA
ATOM     12  C   UNL     1       3.935   4.910  19.081  0.00  0.00    +0.000 A 
ATOM     13  C   UNL     1       2.509   8.099  18.211  0.00  0.00    +0.000 C 
ATOM     14  O   UNL     1       2.493   9.042  17.440  0.00  0.00    +0.000 OA
ENDROOT
BRANCH   1  19
ATOM     15  C   UNL     1      -0.464  10.757  20.234  0.00  0.00    +0.000 A 
ATOM     16  C   UNL     1      -0.401  10.675  21.640  0.00  0.00    +0.000 A 
ATOM     17  C   UNL     1       0.380   9.726  22.288  0.00  0.00    +0.000 A 
ATOM     18  C   UNL     1       1.136   8.827  21.544  0.00  0.00    +0.000 A 
ATOM     19  C   UNL     1       1.111   8.848  20.146  0.00  0.00    +0.000 A 
ATOM     20  C   UNL     1       0.318   9.821  19.514  0.00  0.00    +0.000 A 
BRANCH  15  21
ATOM     21  C   UNL     1      -1.395  11.853  19.506  0.00  0.00    +0.000 C 
ATOM     22  C   UNL     1      -0.728  12.600  18.311  0.00  0.00    +0.000 C 
ATOM     23  O   UNL     1      -0.892  13.884  18.936  0.00  0.00    +0.000 OA
ATOM     24  C   UNL     1      -1.469  13.281  20.114  0.00  0.00    +0.000 C 
BRANCH  21  25
ATOM     25  C   UNL     1      -2.750  11.236  19.103  0.00  0.00    +0.000 C 
BRANCH  25  31
ATOM     26  C   UNL     1      -5.078  12.118  17.137  0.00  0.00    +0.000 C 
ATOM     27  N   UNL     1      -3.924  11.318  16.826  0.00  0.00    +0.000 N 
ATOM     28  C   UNL     1      -3.673  10.751  15.612  0.00  0.00    +0.000 A 
ATOM     29  N   UNL     1      -2.538  10.098  15.658  0.00  0.00    +0.000 NA
ATOM     30  N   UNL     1      -2.041  10.220  16.931  0.00  0.00    +0.000 NA
ATOM     31  C   UNL     1      -2.882  10.947  17.642  0.00  0.00    +0.000 A 
ENDBRANCH  25  31
ENDBRANCH  21  25
ENDBRANCH  15  21
ENDBRANCH   1  19
BRANCH   9  32
ATOM     32  C   UNL     1       5.960   3.710  13.958  0.00  0.00    +0.000 C 
ATOM     33  F   UNL     1       4.851   4.475  13.772  0.00  0.00    +0.000 F 
ATOM     34  F   UNL     1       6.441   3.422  12.722  0.00  0.00    +0.000 F 
ENDBRANCH   9  32
BRANCH  12  35
ATOM     35  C   UNL     1       3.760   3.865  20.152  0.00  0.00    +0.000 C 
ATOM     36  C   UNL     1       2.765   2.743  19.945  0.00  0.00    +0.000 C 
ATOM     37  C   UNL     1       4.234   2.450  19.910  0.00  0.00    +0.000 C 
ENDBRANCH  12  35
TORSDOF 6
ENDMDL
MODEL 3
REMARK VINA RESULT:      -9.6      3.956      9.864
REMARK  Name = 
REMARK  7 active torsions:
REMARK  status: ('A' for Active; 'I' for Inactive)
REMARK    1  A    between atoms: C_1  and  N_2
REMARK    2  A    between atoms: C_6  and  C_7
REMARK    3  A    between atoms: C_7  and  C_8
REMARK    4  A    between atoms: C_8  and  C_9
REMARK    5  A    between atoms: C_13  and  N_14
REMARK    6  A    between atoms: C_22  and  C_23
REMARK    7  A    between atoms: C_28  and  C_29
REMARK                            x       y       z     vdW  Elec       q    Type
REMARK                         _______ _______ _______ _____ _____    ______ ____
ROOT
ATOM      1  N   UNL     1       1.739   7.921  19.428  0.00  0.00    +0.000 N 
ATOM      2  C   UNL     1       1.963   6.568  19.929  0.00  0.00    +0.000 C 
ATOM      3  C   UNL     1       3.060   6.072  19.054  0.00  0.00    +0.000 A 
ATOM      4  C   UNL     1       3.343   7.001  18.070  0.00  0.00    +0.000 A 
ATOM      5  C   UNL     1       4.370   6.855  17.167  0.00  0.00    +0.000 A 
ATOM      6  C   UNL     1       5.125   5.708  17.295  0.00  0.00    +0.000 A 
ATOM      7  N   UNL     1       6.257   5.505  16.492  0.00  0.00    +0.000 N 
ATOM      8  C   UNL     1       6.520   5.974  15.170  0.00  0.00    +0.000 C 
ATOM      9  C   UNL     1       6.983   4.558  14.819  0.00  0.00    +0.000 C 
ATOM     10  C   UNL     1       6.951   4.266  16.317  0.00  0.00    +0.000 C 
ATOM     11  N   UNL     1       4.830   4.761  18.231  0.00  0.00    +0.000 NA
ATOM     12  C   UNL     1       3.821   4.932  19.122  0.00  0.00    +0.000 A 
ATOM     13  C   UNL     1       2.476   8.159  18.266  0.00  0.00    +0.000 C 
ATOM     14  O   UNL     1       2.499   9.114  17.510  0.00  0.00    +0.000 OA
ENDROOT
BRANCH   1  19
ATOM     15  C   UNL     1      -0.504  10.838  20.250  0.00  0.00    +0.000 A 
ATOM     16  C   UNL     1      -0.480  10.734  21.656  0.00  0.00    +0.000 A 
ATOM     17  C   UNL     1       0.267   9.761  22.310  0.00  0.00    +0.000 A 
ATOM     18  C   UNL     1       1.026   8.860  21.572  0.00  0.00    +0.000 A 
ATOM     19  C   UNL     1       1.040   8.903  20.175  0.00  0.00    +0.000 A 
ATOM     20  C   UNL     1       0.280   9.900  19.537  0.00  0.00    +0.000 A 
BRANCH  15  21
ATOM     21  C   UNL     1      -1.396  11.961  19.515  0.00  0.00    +0.000 C 
ATOM     22  C   UNL     1      -2.557  12.550  20.373  0.00  0.00    +0.000 C 
ATOM     23  O   UNL     1      -3.557  12.124  19.432  0.00  0.00    +0.000 OA
ATOM     24  C   UNL     1      -2.561  11.496  18.597  0.00  0.00    +0.000 C 
BRANCH  21  25
ATOM     25  C   UNL     1      -0.501  13.073  18.932  0.00  0.00    +0.000 C 
BRANCH  25  31
ATOM     26  C   UNL     1       2.576  12.616  18.310  0.00  0.00    +0.000 C 
ATOM     27  N   UNL     1       1.997  13.181  19.500  0.00  0.00    +0.000 N 
ATOM     28  C   UNL     1       2.700  13.569  20.600  0.00  0.00    +0.000 A 
ATOM     29  N   UNL     1       1.878  14.051  21.499  0.00  0.00    +0.000 NA
ATOM     30  N   UNL     1       0.607  13.961  20.990  0.00  0.00    +0.000 NA
ATOM     31  C   UNL     1       0.674  13.425  19.786  0.00  0.00    +0.000 A 
ENDBRANCH  25  31
ENDBRANCH  21  25
ENDBRANCH  15  21
ENDBRANCH   1  19
BRANCH   9  32
ATOM     32  C   UNL     1       5.964   3.775  14.038  0.00  0.00    +0.000 C 
ATOM     33  F   UNL     1       4.851   4.541  13.888  0.00  0.00    +0.000 F 
ATOM     34  F   UNL     1       6.448   3.551  12.789  0.00  0.00    +0.000 F 
ENDBRANCH   9  32
BRANCH  12  35
ATOM     35  C   UNL     1       3.598   3.873  20.172  0.00  0.00    +0.000 C 
ATOM     36  C   UNL     1       2.732   2.673  19.850  0.00  0.00    +0.000 C 
ATOM     37  C   UNL     1       4.212   2.502  20.002  0.00  0.00    +0.000 C 
ENDBRANCH  12  35
TORSDOF 6
ENDMDL
MODEL 4
REMARK VINA RESULT:      -9.5      1.541      2.539
REMARK  Name = 
REMARK  7 active torsions:
REMARK  status: ('A' for Active; 'I' for Inactive)
REMARK    1  A    between atoms: C_1  and  N_2
REMARK    2  A    between atoms: C_6  and  C_7
REMARK    3  A    between atoms: C_7  and  C_8
REMARK    4  A    between atoms: C_8  and  C_9
REMARK    5  A    between atoms: C_13  and  N_14
REMARK    6  A    between atoms: C_22  and  C_23
REMARK    7  A    between atoms: C_28  and  C_29
REMARK                            x       y       z     vdW  Elec       q    Type
REMARK                         _______ _______ _______ _____ _____    ______ ____
ROOT
ATOM      1  N   UNL     1       2.311   7.352  18.886  0.00  0.00    +0.000 N 
ATOM      2  C   UNL     1       1.687   7.531  20.194  0.00  0.00    +0.000 C 
ATOM      3  C   UNL     1       1.089   8.890  20.088  0.00  0.00    +0.000 A 
ATOM      4  C   UNL     1       1.450   9.479  18.890  0.00  0.00    +0.000 A 
ATOM      5  C   UNL     1       0.976  10.702  18.477  0.00  0.00    +0.000 A 
ATOM      6  C   UNL     1       0.100  11.330  19.338  0.00  0.00    +0.000 A 
ATOM      7  N   UNL     1      -0.520  12.534  18.973  0.00  0.00    +0.000 N 
ATOM      8  C   UNL     1      -0.045  13.567  18.112  0.00  0.00    +0.000 C 
ATOM      9  C   UNL     1      -0.474  14.578  19.178  0.00  0.00    +0.000 C 
ATOM     10  C   UNL     1      -1.210  13.423  19.856  0.00  0.00    +0.000 C 
ATOM     11  N   UNL     1      -0.228  10.784  20.543  0.00  0.00    +0.000 NA
ATOM     12  C   UNL     1       0.238   9.568  20.926  0.00  0.00    +0.000 A 
ATOM     13  C   UNL     1       2.267   8.531  18.138  0.00  0.00    +0.000 C 
ATOM     14  O   UNL     1       2.746   8.814  17.055  0.00  0.00    +0.000 OA
ENDROOT
BRANCH   1  19
ATOM     15  C   UNL     1       4.296   4.657  17.151  0.00  0.00    +0.000 A 
ATOM     16  C   UNL     1       3.545   3.540  17.567  0.00  0.00    +0.000 A 
ATOM     17  C   UNL     1       2.412   3.668  18.362  0.00  0.00    +0.000 A 
ATOM     18  C   UNL     1       1.988   4.930  18.763  0.00  0.00    +0.000 A 
ATOM     19  C   UNL     1       2.694   6.079  18.393  0.00  0.00    +0.000 A 
ATOM     20  C   UNL     1       3.833   5.923  17.584  0.00  0.00    +0.000 A 
BRANCH  15  21
ATOM     21  C   UNL     1       5.618   4.480  16.247  0.00  0.00    +0.000 C 
ATOM     22  C   UNL     1       5.735   5.464  15.044  0.00  0.00    +0.000 C 
ATOM     23  O   UNL     1       5.772   4.393  14.085  0.00  0.00    +0.000 OA
ATOM     24  C   UNL     1       5.608   3.404  15.124  0.00  0.00    +0.000 C 
BRANCH  21  25
ATOM     25  C   UNL     1       6.887   4.504  17.125  0.00  0.00    +0.000 C 
BRANCH  25  31
ATOM     26  C   UNL     1       7.986   5.631  19.878  0.00  0.00    +0.000 C 
ATOM     27  N   UNL     1       7.840   6.342  18.636  0.00  0.00    +0.000 N 
ATOM     28  C   UNL     1       8.109   7.666  18.460  0.00  0.00    +0.000 A 
ATOM     29  N   UNL     1       7.884   7.997  17.212  0.00  0.00    +0.000 NA
ATOM     30  N   UNL     1       7.440   6.876  16.558  0.00  0.00    +0.000 NA
ATOM     31  C   UNL     1       7.401   5.876  17.419  0.00  0.00    +0.000 A 
ENDBRANCH  25  31
ENDBRANCH  21  25
ENDBRANCH  15  21
ENDBRANCH   1  19
BRANCH   9  32
ATOM     32  C   UNL     1       0.673  15.111  19.990  0.00  0.00    +0.000 C 
ATOM     33  F   UNL     1       0.972  16.362  19.551  0.00  0.00    +0.000 F 
ATOM     34  F   UNL     1       0.272  15.241  21.281  0.00  0.00    +0.000 F 
ENDBRANCH   9  32
BRANCH  12  35
ATOM     35  C   UNL     1      -0.223   8.998  22.243  0.00  0.00    +0.000 C 
ATOM     36  C   UNL     1       0.535   9.337  23.509  0.00  0.00    +0.000 C 
ATOM     37  C   UNL     1      -0.832   9.908  23.285  0.00  0.00    +0.000 C 
ENDBRANCH  12  35
TORSDOF 6
ENDMDL
MODEL 5
REMARK VINA RESULT:      -9.5      3.962     10.238
REMARK  Name = 
REMARK  7 active torsions:
REMARK  status: ('A' for Active; 'I' for Inactive)
REMARK    1  A    between atoms: C_1  and  N_2
REMARK    2  A    between atoms: C_6  and  C_7
REMARK    3  A    between atoms: C_7  and  C_8
REMARK    4  A    between atoms: C_8  and  C_9
REMARK    5  A    between atoms: C_13  and  N_14
REMARK    6  A    between atoms: C_22  and  C_23
REMARK    7  A    between atoms: C_28  and  C_29
REMARK                            x       y       z     vdW  Elec       q    Type
REMARK                         _______ _______ _______ _____ _____    ______ ____
ROOT
ATOM      1  N   UNL     1       1.871   7.683  19.515  0.00  0.00    +0.000 N 
ATOM      2  C   UNL     1       2.138   6.325  19.981  0.00  0.00    +0.000 C 
ATOM      3  C   UNL     1       3.199   5.861  19.046  0.00  0.00    +0.000 A 
ATOM      4  C   UNL     1       3.420   6.810  18.065  0.00  0.00    +0.000 A 
ATOM      5  C   UNL     1       4.405   6.694  17.111  0.00  0.00    +0.000 A 
ATOM      6  C   UNL     1       5.181   5.556  17.183  0.00  0.00    +0.000 A 
ATOM      7  N   UNL     1       6.275   5.383  16.323  0.00  0.00    +0.000 N 
ATOM      8  C   UNL     1       6.467   5.878  14.998  0.00  0.00    +0.000 C 
ATOM      9  C   UNL     1       6.932   4.475  14.600  0.00  0.00    +0.000 C 
ATOM     10  C   UNL     1       6.977   4.158  16.094  0.00  0.00    +0.000 C 
ATOM     11  N   UNL     1       4.945   4.590  18.116  0.00  0.00    +0.000 NA
ATOM     12  C   UNL     1       3.978   4.730  19.058  0.00  0.00    +0.000 A 
ATOM     13  C   UNL     1       2.548   7.951  18.322  0.00  0.00    +0.000 C 
ATOM     14  O   UNL     1       2.520   8.918  17.583  0.00  0.00    +0.000 OA
ENDROOT
BRANCH   1  19
ATOM     15  C   UNL     1      -0.135  10.723  20.487  0.00  0.00    +0.000 A 
ATOM     16  C   UNL     1      -0.289  10.445  21.861  0.00  0.00    +0.000 A 
ATOM     17  C   UNL     1       0.269   9.317  22.451  0.00  0.00    +0.000 A 
ATOM     18  C   UNL     1       1.012   8.430  21.681  0.00  0.00    +0.000 A 
ATOM     19  C   UNL     1       1.195   8.642  20.311  0.00  0.00    +0.000 A 
ATOM     20  C   UNL     1       0.625   9.793  19.738  0.00  0.00    +0.000 A 
BRANCH  15  21
ATOM     21  C   UNL     1      -0.811  12.026  19.823  0.00  0.00    +0.000 C 
ATOM     22  C   UNL     1      -1.879  12.741  20.705  0.00  0.00    +0.000 C 
ATOM     23  O   UNL     1      -2.913  12.552  19.724  0.00  0.00    +0.000 OA
ATOM     24  C   UNL     1      -2.015  11.825  18.859  0.00  0.00    +0.000 C 
BRANCH  21  25
ATOM     25  C   UNL     1       0.269  13.011  19.331  0.00  0.00    +0.000 C 
BRANCH  25  31
ATOM     26  C   UNL     1      -0.086  16.149  19.631  0.00  0.00    +0.000 C 
ATOM     27  N   UNL     1       0.671  15.267  20.480  0.00  0.00    +0.000 N 
ATOM     28  C   UNL     1       1.420  15.665  21.545  0.00  0.00    +0.000 A 
ATOM     29  N   UNL     1       1.971  14.619  22.110  0.00  0.00    +0.000 NA
ATOM     30  N   UNL     1       1.594  13.513  21.392  0.00  0.00    +0.000 NA
ATOM     31  C   UNL     1       0.817  13.903  20.398  0.00  0.00    +0.000 A 
ENDBRANCH  25  31
ENDBRANCH  21  25
ENDBRANCH  15  21
ENDBRANCH   1  19
BRANCH   9  32
ATOM     32  C   UNL     1       5.888   3.690  13.856  0.00  0.00    +0.000 C 
ATOM     33  F   UNL     1       4.769   4.454  13.743  0.00  0.00    +0.000 F 
ATOM     34  F   UNL     1       6.329   3.464  12.592  0.00  0.00    +0.000 F 
ENDBRANCH   9  32
BRANCH  12  35
ATOM     35  C   UNL     1       3.821   3.651  20.098  0.00  0.00    +0.000 C 
ATOM     36  C   UNL     1       2.744   2.601  19.929  0.00  0.00    +0.000 C 
ATOM     37  C   UNL     1       4.184   2.222  19.763  0.00  0.00    +0.000 C 
ENDBRANCH  12  35
TORSDOF 6
ENDMDL
MODEL 6
REMARK VINA RESULT:      -9.4      3.907      9.838
REMARK  Name = 
REMARK  7 active torsions:
REMARK  status: ('A' for Active; 'I' for Inactive)
REMARK    1  A    between atoms: C_1  and  N_2
REMARK    2  A    between atoms: C_6  and  C_7
REMARK    3  A    between atoms: C_7  and  C_8
REMARK    4  A    between atoms: C_8  and  C_9
REMARK    5  A    between atoms: C_13  and  N_14
REMARK    6  A    between atoms: C_22  and  C_23
REMARK    7  A    between atoms: C_28  and  C_29
REMARK                            x       y       z     vdW  Elec       q    Type
REMARK                         _______ _______ _______ _____ _____    ______ ____
ROOT
ATOM      1  N   UNL     1       1.638   8.100  19.466  0.00  0.00    +0.000 N 
ATOM      2  C   UNL     1       1.828   6.758  20.007  0.00  0.00    +0.000 C 
ATOM      3  C   UNL     1       2.947   6.227  19.181  0.00  0.00    +0.000 A 
ATOM      4  C   UNL     1       3.273   7.127  18.184  0.00  0.00    +0.000 A 
ATOM      5  C   UNL     1       4.327   6.946  17.319  0.00  0.00    +0.000 A 
ATOM      6  C   UNL     1       5.063   5.793  17.499  0.00  0.00    +0.000 A 
ATOM      7  N   UNL     1       6.217   5.557  16.739  0.00  0.00    +0.000 N 
ATOM      8  C   UNL     1       6.529   5.989  15.416  0.00  0.00    +0.000 C 
ATOM      9  C   UNL     1       6.984   4.559  15.114  0.00  0.00    +0.000 C 
ATOM     10  C   UNL     1       6.900   4.305  16.618  0.00  0.00    +0.000 C 
ATOM     11  N   UNL     1       4.725   4.875  18.449  0.00  0.00    +0.000 NA
ATOM     12  C   UNL     1       3.690   5.079  19.302  0.00  0.00    +0.000 A 
ATOM     13  C   UNL     1       2.415   8.301  18.323  0.00  0.00    +0.000 C 
ATOM     14  O   UNL     1       2.475   9.235  17.544  0.00  0.00    +0.000 OA
ENDROOT
BRANCH   1  19
ATOM     15  C   UNL     1      -0.613  11.048  20.144  0.00  0.00    +0.000 A 
ATOM     16  C   UNL     1      -0.614  10.994  21.553  0.00  0.00    +0.000 A 
ATOM     17  C   UNL     1       0.120  10.045  22.254  0.00  0.00    +0.000 A 
ATOM     18  C   UNL     1       0.891   9.117  21.562  0.00  0.00    +0.000 A 
ATOM     19  C   UNL     1       0.928   9.110  20.165  0.00  0.00    +0.000 A 
ATOM     20  C   UNL     1       0.181  10.083  19.478  0.00  0.00    +0.000 A 
BRANCH  15  21
ATOM     21  C   UNL     1      -1.491  12.144  19.354  0.00  0.00    +0.000 C 
ATOM     22  C   UNL     1      -3.012  12.144  19.693  0.00  0.00    +0.000 C 
ATOM     23  O   UNL     1      -3.384  11.873  18.331  0.00  0.00    +0.000 OA
ATOM     24  C   UNL     1      -2.000  11.796  17.927  0.00  0.00    +0.000 C 
BRANCH  21  25
ATOM     25  C   UNL     1      -0.876  13.551  19.510  0.00  0.00    +0.000 C 
BRANCH  25  31
ATOM     26  C   UNL     1       1.312  14.381  21.651  0.00  0.00    +0.000 C 
ATOM     27  N   UNL     1       1.528  13.990  20.283  0.00  0.00    +0.000 N 
ATOM     28  C   UNL     1       2.741  13.968  19.661  0.00  0.00    +0.000 A 
ATOM     29  N   UNL     1       2.593  13.555  18.427  0.00  0.00    +0.000 NA
ATOM     30  N   UNL     1       1.257  13.319  18.224  0.00  0.00    +0.000 NA
ATOM     31  C   UNL     1       0.609  13.592  19.342  0.00  0.00    +0.000 A 
ENDBRANCH  25  31
ENDBRANCH  21  25
ENDBRANCH  15  21
ENDBRANCH   1  19
BRANCH   9  32
ATOM     32  C   UNL     1       5.981   3.770  14.320  0.00  0.00    +0.000 C 
ATOM     33  F   UNL     1       4.940   4.584  14.003  0.00  0.00    +0.000 F 
ATOM     34  F   UNL     1       6.550   3.397  13.145  0.00  0.00    +0.000 F 
ENDBRANCH   9  32
BRANCH  12  35
ATOM     35  C   UNL     1       3.419   4.050  20.369  0.00  0.00    +0.000 C 
ATOM     36  C   UNL     1       2.347   3.005  20.145  0.00  0.00    +0.000 C 
ATOM     37  C   UNL     1       3.790   2.604  20.134  0.00  0.00    +0.000 C 
ENDBRANCH  12  35
TORSDOF 6
ENDMDL
MODEL 7
REMARK VINA RESULT:      -9.3      4.117     10.018
REMARK  Name = 
REMARK  7 active torsions:
REMARK  status: ('A' for Active; 'I' for Inactive)
REMARK    1  A    between atoms: C_1  and  N_2
REMARK    2  A    between atoms: C_6  and  C_7
REMARK    3  A    between atoms: C_7  and  C_8
REMARK    4  A    between atoms: C_8  and  C_9
REMARK    5  A    between atoms: C_13  and  N_14
REMARK    6  A    between atoms: C_22  and  C_23
REMARK    7  A    between atoms: C_28  and  C_29
REMARK                            x       y       z     vdW  Elec       q    Type
REMARK                         _______ _______ _______ _____ _____    ______ ____
ROOT
ATOM      1  N   UNL     1       1.791   7.860  19.431  0.00  0.00    +0.000 N 
ATOM      2  C   UNL     1       2.068   6.526  19.956  0.00  0.00    +0.000 C 
ATOM      3  C   UNL     1       3.148   6.038  19.056  0.00  0.00    +0.000 A 
ATOM      4  C   UNL     1       3.372   6.949  18.040  0.00  0.00    +0.000 A 
ATOM      5  C   UNL     1       4.372   6.807  17.106  0.00  0.00    +0.000 A 
ATOM      6  C   UNL     1       5.161   5.683  17.235  0.00  0.00    +0.000 A 
ATOM      7  N   UNL     1       6.270   5.490  16.398  0.00  0.00    +0.000 N 
ATOM      8  C   UNL     1       6.475   5.933  15.058  0.00  0.00    +0.000 C 
ATOM      9  C   UNL     1       6.963   4.521  14.724  0.00  0.00    +0.000 C 
ATOM     10  C   UNL     1       6.990   4.266  16.230  0.00  0.00    +0.000 C 
ATOM     11  N   UNL     1       4.923   4.753  18.203  0.00  0.00    +0.000 NA
ATOM     12  C   UNL     1       3.941   4.919  19.125  0.00  0.00    +0.000 A 
ATOM     13  C   UNL     1       2.482   8.089  18.239  0.00  0.00    +0.000 C 
ATOM     14  O   UNL     1       2.454   9.024  17.460  0.00  0.00    +0.000 OA
ENDROOT
BRANCH   1  19
ATOM     15  C   UNL     1      -0.148  10.984  20.266  0.00  0.00    +0.000 A 
ATOM     16  C   UNL     1      -0.440  10.698  21.615  0.00  0.00    +0.000 A 
ATOM     17  C   UNL     1       0.008   9.538  22.236  0.00  0.00    +0.000 A 
ATOM     18  C   UNL     1       0.776   8.624  21.522  0.00  0.00    +0.000 A 
ATOM     19  C   UNL     1       1.092   8.843  20.178  0.00  0.00    +0.000 A 
ATOM     20  C   UNL     1       0.632  10.026  19.574  0.00  0.00    +0.000 A 
BRANCH  15  21
ATOM     21  C   UNL     1      -0.699  12.326  19.563  0.00  0.00    +0.000 C 
ATOM     22  C   UNL     1       0.282  13.537  19.590  0.00  0.00    +0.000 C 
ATOM     23  O   UNL     1      -0.648  14.359  20.315  0.00  0.00    +0.000 OA
ATOM     24  C   UNL     1      -1.602  13.279  20.395  0.00  0.00    +0.000 C 
BRANCH  21  25
ATOM     25  C   UNL     1      -1.194  12.029  18.133  0.00  0.00    +0.000 C 
BRANCH  25  31
ATOM     26  C   UNL     1      -2.786  10.881  15.641  0.00  0.00    +0.000 C 
ATOM     27  N   UNL     1      -3.311  11.214  16.938  0.00  0.00    +0.000 N 
ATOM     28  C   UNL     1      -4.625  11.138  17.290  0.00  0.00    +0.000 A 
ATOM     29  N   UNL     1      -4.766  11.500  18.541  0.00  0.00    +0.000 NA
ATOM     30  N   UNL     1      -3.525  11.840  19.018  0.00  0.00    +0.000 NA
ATOM     31  C   UNL     1      -2.645  11.679  18.047  0.00  0.00    +0.000 A 
ENDBRANCH  25  31
ENDBRANCH  21  25
ENDBRANCH  15  21
ENDBRANCH   1  19
BRANCH   9  32
ATOM     32  C   UNL     1       5.940   3.693  13.998  0.00  0.00    +0.000 C 
ATOM     33  F   UNL     1       4.833   4.455  13.789  0.00  0.00    +0.000 F 
ATOM     34  F   UNL     1       6.425   3.375  12.771  0.00  0.00    +0.000 F 
ENDBRANCH   9  32
BRANCH  12  35
ATOM     35  C   UNL     1       3.782   3.881  20.206  0.00  0.00    +0.000 C 
ATOM     36  C   UNL     1       2.792   2.751  20.017  0.00  0.00    +0.000 C 
ATOM     37  C   UNL     1       4.263   2.468  19.971  0.00  0.00    +0.000 C 
ENDBRANCH  12  35
TORSDOF 6
ENDMDL
MODEL 8
REMARK VINA RESULT:      -9.2      1.787      2.701
REMARK  Name = 
REMARK  7 active torsions:
REMARK  status: ('A' for Active; 'I' for Inactive)
REMARK    1  A    between atoms: C_1  and  N_2
REMARK    2  A    between atoms: C_6  and  C_7
REMARK    3  A    between atoms: C_7  and  C_8
REMARK    4  A    between atoms: C_8  and  C_9
REMARK    5  A    between atoms: C_13  and  N_14
REMARK    6  A    between atoms: C_22  and  C_23
REMARK    7  A    between atoms: C_28  and  C_29
REMARK                            x       y       z     vdW  Elec       q    Type
REMARK                         _______ _______ _______ _____ _____    ______ ____
ROOT
ATOM      1  N   UNL     1       2.359   7.524  18.809  0.00  0.00    +0.000 N 
ATOM      2  C   UNL     1       1.734   7.655  20.122  0.00  0.00    +0.000 C 
ATOM      3  C   UNL     1       1.097   8.998  20.049  0.00  0.00    +0.000 A 
ATOM      4  C   UNL     1       1.436   9.624  18.865  0.00  0.00    +0.000 A 
ATOM      5  C   UNL     1       0.926  10.843  18.482  0.00  0.00    +0.000 A 
ATOM      6  C   UNL     1       0.035  11.425  19.360  0.00  0.00    +0.000 A 
ATOM      7  N   UNL     1      -0.621  12.618  19.026  0.00  0.00    +0.000 N 
ATOM      8  C   UNL     1      -0.178  13.685  18.188  0.00  0.00    +0.000 C 
ATOM      9  C   UNL     1      -0.633  14.658  19.279  0.00  0.00    +0.000 C 
ATOM     10  C   UNL     1      -1.332  13.467  19.931  0.00  0.00    +0.000 C 
ATOM     11  N   UNL     1      -0.273  10.841  20.553  0.00  0.00    +0.000 NA
ATOM     12  C   UNL     1       0.230   9.630  20.905  0.00  0.00    +0.000 A 
ATOM     13  C   UNL     1       2.278   8.719  18.088  0.00  0.00    +0.000 C 
ATOM     14  O   UNL     1       2.745   9.041  17.011  0.00  0.00    +0.000 OA
ENDROOT
BRANCH   1  19
ATOM     15  C   UNL     1       4.352   4.948  16.909  0.00  0.00    +0.000 A 
ATOM     16  C   UNL     1       3.710   3.789  17.388  0.00  0.00    +0.000 A 
ATOM     17  C   UNL     1       2.644   3.851  18.277  0.00  0.00    +0.000 A 
ATOM     18  C   UNL     1       2.178   5.086  18.713  0.00  0.00    +0.000 A 
ATOM     19  C   UNL     1       2.777   6.275  18.284  0.00  0.00    +0.000 A 
ATOM     20  C   UNL     1       3.849   6.186  17.380  0.00  0.00    +0.000 A 
BRANCH  15  21
ATOM     21  C   UNL     1       5.600   4.849  15.895  0.00  0.00    +0.000 C 
ATOM     22  C   UNL     1       5.224   4.817  14.382  0.00  0.00    +0.000 C 
ATOM     23  O   UNL     1       5.847   3.536  14.186  0.00  0.00    +0.000 OA
ATOM     24  C   UNL     1       6.191   3.444  15.585  0.00  0.00    +0.000 C 
BRANCH  21  25
ATOM     25  C   UNL     1       6.638   5.949  16.197  0.00  0.00    +0.000 C 
BRANCH  25  31
ATOM     26  C   UNL     1       7.933   8.302  17.885  0.00  0.00    +0.000 C 
ATOM     27  N   UNL     1       7.798   6.920  18.266  0.00  0.00    +0.000 N 
ATOM     28  C   UNL     1       8.271   6.383  19.426  0.00  0.00    +0.000 A 
ATOM     29  N   UNL     1       7.974   5.107  19.470  0.00  0.00    +0.000 NA
ATOM     30  N   UNL     1       7.311   4.794  18.311  0.00  0.00    +0.000 NA
ATOM     31  C   UNL     1       7.213   5.886  17.575  0.00  0.00    +0.000 A 
ENDBRANCH  25  31
ENDBRANCH  21  25
ENDBRANCH  15  21
ENDBRANCH   1  19
BRANCH   9  32
ATOM     32  C   UNL     1       0.501  15.204  20.101  0.00  0.00    +0.000 C 
ATOM     33  F   UNL     1       1.617  15.249  19.325  0.00  0.00    +0.000 F 
ATOM     34  F   UNL     1       0.217  16.487  20.440  0.00  0.00    +0.000 F 
ENDBRANCH   9  32
BRANCH  12  35
ATOM     35  C   UNL     1      -0.210   9.017  22.210  0.00  0.00    +0.000 C 
ATOM     36  C   UNL     1       0.546   9.342  23.481  0.00  0.00    +0.000 C 
ATOM     37  C   UNL     1      -0.836   9.884  23.278  0.00  0.00    +0.000 C 
ENDBRANCH  12  35
TORSDOF 6
ENDMDL
MODEL 9
REMARK VINA RESULT:      -9.2      4.008     10.678
REMARK  Name = 
REMARK  7 active torsions:
REMARK  status: ('A' for Active; 'I' for Inactive)
REMARK    1  A    between atoms: C_1  and  N_2
REMARK    2  A    between atoms: C_6  and  C_7
REMARK    3  A    between atoms: C_7  and  C_8
REMARK    4  A    between atoms: C_8  and  C_9
REMARK    5  A    between atoms: C_13  and  N_14
REMARK    6  A    between atoms: C_22  and  C_23
REMARK    7  A    between atoms: C_28  and  C_29
REMARK                            x       y       z     vdW  Elec       q    Type
REMARK                         _______ _______ _______ _____ _____    ______ ____
ROOT
ATOM      1  N   UNL     1       1.836   7.816  19.431  0.00  0.00    +0.000 N 
ATOM      2  C   UNL     1       2.077   6.462  19.921  0.00  0.00    +0.000 C 
ATOM      3  C   UNL     1       3.168   5.981  19.030  0.00  0.00    +0.000 A 
ATOM      4  C   UNL     1       3.430   6.917  18.047  0.00  0.00    +0.000 A 
ATOM      5  C   UNL     1       4.446   6.785  17.130  0.00  0.00    +0.000 A 
ATOM      6  C   UNL     1       5.213   5.643  17.241  0.00  0.00    +0.000 A 
ATOM      7  N   UNL     1       6.336   5.454  16.423  0.00  0.00    +0.000 N 
ATOM      8  C   UNL     1       6.578   5.933  15.101  0.00  0.00    +0.000 C 
ATOM      9  C   UNL     1       7.047   4.523  14.735  0.00  0.00    +0.000 C 
ATOM     10  C   UNL     1       7.037   4.222  16.232  0.00  0.00    +0.000 C 
ATOM     11  N   UNL     1       4.937   4.689  18.176  0.00  0.00    +0.000 NA
ATOM     12  C   UNL     1       3.939   4.846  19.082  0.00  0.00    +0.000 A 
ATOM     13  C   UNL     1       2.556   8.067  18.261  0.00  0.00    +0.000 C 
ATOM     14  O   UNL     1       2.561   9.026  17.510  0.00  0.00    +0.000 OA
ENDROOT
BRANCH   1  19
ATOM     15  C   UNL     1      -0.403  10.723  20.296  0.00  0.00    +0.000 A 
ATOM     16  C   UNL     1      -0.378  10.599  21.700  0.00  0.00    +0.000 A 
ATOM     17  C   UNL     1       0.368   9.616  22.340  0.00  0.00    +0.000 A 
ATOM     18  C   UNL     1       1.126   8.725  21.589  0.00  0.00    +0.000 A 
ATOM     19  C   UNL     1       1.138   8.788  20.192  0.00  0.00    +0.000 A 
ATOM     20  C   UNL     1       0.380   9.794  19.569  0.00  0.00    +0.000 A 
BRANCH  15  21
ATOM     21  C   UNL     1      -1.294  11.858  19.578  0.00  0.00    +0.000 C 
ATOM     22  C   UNL     1      -2.534  11.328  18.795  0.00  0.00    +0.000 C 
ATOM     23  O   UNL     1      -2.068  11.881  17.552  0.00  0.00    +0.000 OA
ATOM     24  C   UNL     1      -0.857  12.363  18.174  0.00  0.00    +0.000 C 
BRANCH  21  25
ATOM     25  C   UNL     1      -1.687  12.960  20.582  0.00  0.00    +0.000 C 
BRANCH  25  31
ATOM     26  C   UNL     1      -3.050  12.254  23.358  0.00  0.00    +0.000 C 
ATOM     27  N   UNL     1      -3.702  12.639  22.135  0.00  0.00    +0.000 N 
ATOM     28  C   UNL     1      -5.051  12.708  21.959  0.00  0.00    +0.000 A 
ATOM     29  N   UNL     1      -5.316  13.099  20.737  0.00  0.00    +0.000 NA
ATOM     30  N   UNL     1      -4.119  13.273  20.089  0.00  0.00    +0.000 NA
ATOM     31  C   UNL     1      -3.142  12.984  20.928  0.00  0.00    +0.000 A 
ENDBRANCH  25  31
ENDBRANCH  21  25
ENDBRANCH  15  21
ENDBRANCH   1  19
BRANCH   9  32
ATOM     32  C   UNL     1       6.025   3.736  13.963  0.00  0.00    +0.000 C 
ATOM     33  F   UNL     1       4.838   4.395  14.017  0.00  0.00    +0.000 F 
ATOM     34  F   UNL     1       6.391   3.708  12.656  0.00  0.00    +0.000 F 
ENDBRANCH   9  32
BRANCH  12  35
ATOM     35  C   UNL     1       3.738   3.779  20.128  0.00  0.00    +0.000 C 
ATOM     36  C   UNL     1       2.692   2.707  19.910  0.00  0.00    +0.000 C 
ATOM     37  C   UNL     1       4.146   2.353  19.838  0.00  0.00    +0.000 C 
ENDBRANCH  12  35
TORSDOF 6
ENDMDL
