MODEL 1
REMARK VINA RESULT:      -8.7      0.000      0.000
REMARK  Name = 
REMARK  9 active torsions:
REMARK  status: ('A' for Active; 'I' for Inactive)
REMARK    1  A    between atoms: C_1  and  C_2
REMARK    2  A    between atoms: C_4  and  C_5
REMARK    3  A    between atoms: N_7  and  C_8
REMARK    4  A    between atoms: C_12  and  C_13
REMARK    5  A    between atoms: C_13  and  C_14
REMARK    6  A    between atoms: C_13  and  C_15
REMARK    7  A    between atoms: C_15  and  C_16
REMARK    8  A    between atoms: N_20  and  C_21
REMARK    9  A    between atoms: C_24  and  C_25
REMARK                            x       y       z     vdW  Elec       q    Type
REMARK                         _______ _______ _______ _____ _____    ______ ____
ROOT
ATOM      1  C   UNL     1       2.688   5.988  18.377  0.00  0.00    +0.000 A 
ATOM      2  C   UNL     1       1.926   4.836  18.161  0.00  0.00    +0.000 A 
ATOM      3  C   UNL     1       2.441   3.754  17.446  0.00  0.00    +0.000 A 
ATOM      4  C   UNL     1       3.734   3.803  16.943  0.00  0.00    +0.000 A 
ATOM      5  C   UNL     1       4.527   4.943  17.134  0.00  0.00    +0.000 A 
ATOM      6  C   UNL     1       3.981   6.043  17.834  0.00  0.00    +0.000 A 
ENDROOT
BRANCH   1   9
ATOM      7  C   UNL     1       1.901   8.344  18.610  0.00  0.00    +0.000 C 
ATOM      8  O   UNL     1       1.960   8.675  17.427  0.00  0.00    +0.000 OA
ATOM      9  N   UNL     1       2.210   7.091  19.124  0.00  0.00    +0.000 N 
ATOM     10  H   UNL     1       1.994   6.952  20.107  0.00  0.00    +0.000 HD
BRANCH   7  14
ATOM     11  C   UNL     1       0.171   9.523  23.115  0.00  0.00    +0.000 C 
ATOM     12  C   UNL     1       0.600   9.874  21.722  0.00  0.00    +0.000 A 
ATOM     13  C   UNL     1       1.050   8.919  20.850  0.00  0.00    +0.000 A 
ATOM     14  C   UNL     1       1.417   9.365  19.596  0.00  0.00    +0.000 A 
ATOM     15  N   UNL     1       1.364  10.661  19.202  0.00  0.00    +0.000 NA
ATOM     16  C   UNL     1       0.908  11.535  20.125  0.00  0.00    +0.000 A 
ATOM     17  N   UNL     1       0.524  11.170  21.370  0.00  0.00    +0.000 NA
BRANCH  16  18
ATOM     18  C   UNL     1       0.808  13.007  19.810  0.00  0.00    +0.000 C 
ATOM     19  C   UNL     1       2.036  13.868  20.032  0.00  0.00    +0.000 C 
ATOM     20  C   UNL     1       1.512  13.654  18.644  0.00  0.00    +0.000 C 
ENDBRANCH  16  18
ENDBRANCH   7  14
ENDBRANCH   1   9
BRANCH   5  21
ATOM     21  C   UNL     1       5.964   4.984  16.627  0.00  0.00    +0.000 C 
ATOM     22  C   UNL     1       6.945   4.733  17.786  0.00  0.00    +0.000 C 
BRANCH  21  23
ATOM     23  C   UNL     1       6.235   3.975  15.490  0.00  0.00    +0.000 C 
BRANCH  23  24
ATOM     24  C   UNL     1       6.955   4.593  14.338  0.00  0.00    +0.000 A 
ATOM     25  N   UNL     1       7.891   5.518  14.416  0.00  0.00    +0.000 NA
ATOM     26  N   UNL     1       8.311   5.812  13.141  0.00  0.00    +0.000 NA
ATOM     27  C   UNL     1       7.631   5.054  12.315  0.00  0.00    +0.000 A 
ATOM     28  N   UNL     1       6.775   4.267  13.020  0.00  0.00    +0.000 N 
ATOM     29  C   UNL     1       5.891   3.276  12.468  0.00  0.00    +0.000 C 
ENDBRANCH  23  24
ENDBRANCH  21  23
ENDBRANCH   5  21
TORSDOF 6
ENDMDL
MODEL 2
REMARK VINA RESULT:      -8.3      3.216      9.258
REMARK  Name = 
REMARK  9 active torsions:
REMARK  status: ('A' for Active; 'I' for Inactive)
REMARK    1  A    between atoms: C_1  and  C_2
REMARK    2  A    between atoms: C_4  and  C_5
REMARK    3  A    between atoms: N_7  and  C_8
REMARK    4  A    between atoms: C_12  and  C_13
REMARK    5  A    between atoms: C_13  and  C_14
REMARK    6  A    between atoms: C_13  and  C_15
REMARK    7  A    between atoms: C_15  and  C_16
REMARK    8  A    between atoms: N_20  and  C_21
REMARK    9  A    between atoms: C_24  and  C_25
REMARK                            x       y       z     vdW  Elec       q    Type
REMARK                         _______ _______ _______ _____ _____    ______ ____
ROOT
ATOM      1  C   UNL     1       1.359   8.461  20.680  0.00  0.00    +0.000 A 
ATOM      2  C   UNL     1       1.175   8.539  22.064  0.00  0.00    +0.000 A 
ATOM      3  C   UNL     1       0.319   9.487  22.625  0.00  0.00    +0.000 A 
ATOM      4  C   UNL     1      -0.377  10.368  21.809  0.00  0.00    +0.000 A 
ATOM      5  C   UNL     1      -0.214  10.325  20.417  0.00  0.00    +0.000 A 
ATOM      6  C   UNL     1       0.680   9.379  19.865  0.00  0.00    +0.000 A 
ENDROOT
BRANCH   1   9
ATOM      7  C   UNL     1       2.044   6.115  20.174  0.00  0.00    +0.000 C 
ATOM      8  O   UNL     1       1.144   5.529  20.771  0.00  0.00    +0.000 OA
ATOM      9  N   UNL     1       2.195   7.492  20.074  0.00  0.00    +0.000 N 
ATOM     10  H   UNL     1       2.928   7.812  19.446  0.00  0.00    +0.000 HD
BRANCH   7  14
ATOM     11  C   UNL     1       3.448   1.800  18.154  0.00  0.00    +0.000 C 
ATOM     12  C   UNL     1       3.683   3.235  18.520  0.00  0.00    +0.000 A 
ATOM     13  C   UNL     1       2.728   3.972  19.169  0.00  0.00    +0.000 A 
ATOM     14  C   UNL     1       3.060   5.282  19.451  0.00  0.00    +0.000 A 
ATOM     15  N   UNL     1       4.241   5.857  19.120  0.00  0.00    +0.000 NA
ATOM     16  C   UNL     1       5.123   5.058  18.483  0.00  0.00    +0.000 A 
ATOM     17  N   UNL     1       4.871   3.763  18.179  0.00  0.00    +0.000 NA
BRANCH  16  18
ATOM     18  C   UNL     1       6.471   5.583  18.055  0.00  0.00    +0.000 C 
ATOM     19  C   UNL     1       7.577   5.635  19.089  0.00  0.00    +0.000 C 
ATOM     20  C   UNL     1       7.694   4.713  17.915  0.00  0.00    +0.000 C 
ENDBRANCH  16  18
ENDBRANCH   7  14
ENDBRANCH   1   9
BRANCH   5  21
ATOM     21  C   UNL     1      -1.012  11.257  19.512  0.00  0.00    +0.000 C 
ATOM     22  C   UNL     1      -0.177  12.500  19.157  0.00  0.00    +0.000 C 
BRANCH  21  23
ATOM     23  C   UNL     1      -1.499  10.573  18.216  0.00  0.00    +0.000 C 
BRANCH  23  24
ATOM     24  C   UNL     1      -2.865  11.018  17.814  0.00  0.00    +0.000 A 
ATOM     25  N   UNL     1      -3.729  11.655  18.581  0.00  0.00    +0.000 NA
ATOM     26  N   UNL     1      -4.861  11.899  17.841  0.00  0.00    +0.000 NA
ATOM     27  C   UNL     1      -4.661  11.416  16.639  0.00  0.00    +0.000 A 
ATOM     28  N   UNL     1      -3.420  10.862  16.572  0.00  0.00    +0.000 N 
ATOM     29  C   UNL     1      -2.824  10.266  15.407  0.00  0.00    +0.000 C 
ENDBRANCH  23  24
ENDBRANCH  21  23
ENDBRANCH   5  21
TORSDOF 6
ENDMDL
MODEL 3
REMARK VINA RESULT:      -8.1      1.022      1.044
REMARK  Name = 
REMARK  9 active torsions:
REMARK  status: ('A' for Active; 'I' for Inactive)
REMARK    1  A    between atoms: C_1  and  C_2
REMARK    2  A    between atoms: C_4  and  C_5
REMARK    3  A    between atoms: N_7  and  C_8
REMARK    4  A    between atoms: C_12  and  C_13
REMARK    5  A    between atoms: C_13  and  C_14
REMARK    6  A    between atoms: C_13  and  C_15
REMARK    7  A    between atoms: C_15  and  C_16
REMARK    8  A    between atoms: N_20  and  C_21
REMARK    9  A    between atoms: C_24  and  C_25
REMARK                            x       y       z     vdW  Elec       q    Type
REMARK                         _______ _______ _______ _____ _____    ______ ____
ROOT
ATOM      1  C   UNL     1       2.665   6.531  18.134  0.00  0.00    +0.000 A 
ATOM      2  C   UNL     1       1.989   5.308  18.105  0.00  0.00    +0.000 A 
ATOM      3  C   UNL     1       2.577   4.173  17.547  0.00  0.00    +0.000 A 
ATOM      4  C   UNL     1       3.858   4.240  17.016  0.00  0.00    +0.000 A 
ATOM      5  C   UNL     1       4.565   5.451  17.021  0.00  0.00    +0.000 A 
ATOM      6  C   UNL     1       3.945   6.599  17.563  0.00  0.00    +0.000 A 
ENDROOT
BRANCH   1   9
ATOM      7  C   UNL     1       1.586   7.786  20.003  0.00  0.00    +0.000 C 
ATOM      8  O   UNL     1       1.555   6.882  20.836  0.00  0.00    +0.000 OA
ATOM      9  N   UNL     1       2.112   7.696  18.720  0.00  0.00    +0.000 N 
ATOM     10  H   UNL     1       2.164   8.569  18.202  0.00  0.00    +0.000 HD
BRANCH   7  14
ATOM     11  C   UNL     1      -1.034  10.629  23.121  0.00  0.00    +0.000 C 
ATOM     12  C   UNL     1      -0.200  10.423  21.892  0.00  0.00    +0.000 A 
ATOM     13  C   UNL     1       0.290   9.188  21.560  0.00  0.00    +0.000 A 
ATOM     14  C   UNL     1       1.046   9.125  20.406  0.00  0.00    +0.000 A 
ATOM     15  N   UNL     1       1.325  10.191  19.618  0.00  0.00    +0.000 NA
ATOM     16  C   UNL     1       0.802  11.370  20.021  0.00  0.00    +0.000 A 
ATOM     17  N   UNL     1       0.047  11.507  21.135  0.00  0.00    +0.000 NA
BRANCH  16  18
ATOM     18  C   UNL     1       1.048  12.632  19.233  0.00  0.00    +0.000 C 
ATOM     19  C   UNL     1       2.281  13.450  19.562  0.00  0.00    +0.000 C 
ATOM     20  C   UNL     1       2.163  12.778  18.228  0.00  0.00    +0.000 C 
ENDBRANCH  16  18
ENDBRANCH   7  14
ENDBRANCH   1   9
BRANCH   5  21
ATOM     21  C   UNL     1       5.991   5.521  16.485  0.00  0.00    +0.000 C 
ATOM     22  C   UNL     1       6.989   5.676  17.645  0.00  0.00    +0.000 C 
BRANCH  21  23
ATOM     23  C   UNL     1       6.377   4.296  15.628  0.00  0.00    +0.000 C 
BRANCH  23  24
ATOM     24  C   UNL     1       6.965   4.682  14.312  0.00  0.00    +0.000 A 
ATOM     25  N   UNL     1       7.980   5.503  14.129  0.00  0.00    +0.000 NA
ATOM     26  N   UNL     1       8.226   5.587  12.779  0.00  0.00    +0.000 NA
ATOM     27  C   UNL     1       7.363   4.809  12.170  0.00  0.00    +0.000 A 
ATOM     28  N   UNL     1       6.558   4.214  13.091  0.00  0.00    +0.000 N 
ATOM     29  C   UNL     1       5.516   3.264  12.812  0.00  0.00    +0.000 C 
ENDBRANCH  23  24
ENDBRANCH  21  23
ENDBRANCH   5  21
TORSDOF 6
ENDMDL
MODEL 4
REMARK VINA RESULT:      -8.0      1.946      2.972
REMARK  Name = 
REMARK  9 active torsions:
REMARK  status: ('A' for Active; 'I' for Inactive)
REMARK    1  A    between atoms: C_1  and  C_2
REMARK    2  A    between atoms: C_4  and  C_5
REMARK    3  A    between atoms: N_7  and  C_8
REMARK    4  A    between atoms: C_12  and  C_13
REMARK    5  A    between atoms: C_13  and  C_14
REMARK    6  A    between atoms: C_13  and  C_15
REMARK    7  A    between atoms: C_15  and  C_16
REMARK    8  A    between atoms: N_20  and  C_21
REMARK    9  A    between atoms: C_24  and  C_25
REMARK                            x       y       z     vdW  Elec       q    Type
REMARK                         _______ _______ _______ _____ _____    ______ ____
ROOT
ATOM      1  C   UNL     1       2.632   5.459  18.072  0.00  0.00    +0.000 A 
ATOM      2  C   UNL     1       1.952   4.240  18.153  0.00  0.00    +0.000 A 
ATOM      3  C   UNL     1       2.455   3.092  17.539  0.00  0.00    +0.000 A 
ATOM      4  C   UNL     1       3.654   3.143  16.841  0.00  0.00    +0.000 A 
ATOM      5  C   UNL     1       4.361   4.349  16.733  0.00  0.00    +0.000 A 
ATOM      6  C   UNL     1       3.825   5.509  17.335  0.00  0.00    +0.000 A 
ENDROOT
BRANCH   1   9
ATOM      7  C   UNL     1       2.242   7.921  18.187  0.00  0.00    +0.000 C 
ATOM      8  O   UNL     1       2.686   8.229  17.083  0.00  0.00    +0.000 OA
ATOM      9  N   UNL     1       2.167   6.636  18.708  0.00  0.00    +0.000 N 
ATOM     10  H   UNL     1       1.664   6.543  19.587  0.00  0.00    +0.000 HD
BRANCH   7  14
ATOM     11  C   UNL     1       0.344   9.493  22.500  0.00  0.00    +0.000 C 
ATOM     12  C   UNL     1       0.796   9.714  21.088  0.00  0.00    +0.000 A 
ATOM     13  C   UNL     1       1.307   8.692  20.334  0.00  0.00    +0.000 A 
ATOM     14  C   UNL     1       1.690   9.019  19.048  0.00  0.00    +0.000 A 
ATOM     15  N   UNL     1       1.597  10.262  18.517  0.00  0.00    +0.000 NA
ATOM     16  C   UNL     1       1.081  11.208  19.332  0.00  0.00    +0.000 A 
ATOM     17  N   UNL     1       0.678  10.961  20.599  0.00  0.00    +0.000 NA
BRANCH  16  18
ATOM     18  C   UNL     1       0.932  12.633  18.860  0.00  0.00    +0.000 C 
ATOM     19  C   UNL     1      -0.405  13.059  18.287  0.00  0.00    +0.000 C 
ATOM     20  C   UNL     1       0.085  13.658  19.571  0.00  0.00    +0.000 C 
ENDBRANCH  16  18
ENDBRANCH   7  14
ENDBRANCH   1   9
BRANCH   5  21
ATOM     21  C   UNL     1       5.703   4.401  16.011  0.00  0.00    +0.000 C 
ATOM     22  C   UNL     1       5.505   4.179  14.501  0.00  0.00    +0.000 C 
BRANCH  21  23
ATOM     23  C   UNL     1       6.467   5.722  16.245  0.00  0.00    +0.000 C 
BRANCH  23  24
ATOM     24  C   UNL     1       7.178   5.746  17.557  0.00  0.00    +0.000 A 
ATOM     25  N   UNL     1       7.431   4.700  18.319  0.00  0.00    +0.000 NA
ATOM     26  N   UNL     1       8.113   5.135  19.431  0.00  0.00    +0.000 NA
ATOM     27  C   UNL     1       8.269   6.432  19.318  0.00  0.00    +0.000 A 
ATOM     28  N   UNL     1       7.707   6.858  18.155  0.00  0.00    +0.000 N 
ATOM     29  C   UNL     1       7.710   8.209  17.662  0.00  0.00    +0.000 C 
ENDBRANCH  23  24
ENDBRANCH  21  23
ENDBRANCH   5  21
TORSDOF 6
ENDMDL
MODEL 5
REMARK VINA RESULT:      -7.9      3.020      9.230
REMARK  Name = 
REMARK  9 active torsions:
REMARK  status: ('A' for Active; 'I' for Inactive)
REMARK    1  A    between atoms: C_1  and  C_2
REMARK    2  A    between atoms: C_4  and  C_5
REMARK    3  A    between atoms: N_7  and  C_8
REMARK    4  A    between atoms: C_12  and  C_13
REMARK    5  A    between atoms: C_13  and  C_14
REMARK    6  A    between atoms: C_13  and  C_15
REMARK    7  A    between atoms: C_15  and  C_16
REMARK    8  A    between atoms: N_20  and  C_21
REMARK    9  A    between atoms: C_24  and  C_25
REMARK                            x       y       z     vdW  Elec       q    Type
REMARK                         _______ _______ _______ _____ _____    ______ ____
ROOT
ATOM      1  C   UNL     1       1.222   8.599  20.746  0.00  0.00    +0.000 A 
ATOM      2  C   UNL     1       1.004   8.823  22.109  0.00  0.00    +0.000 A 
ATOM      3  C   UNL     1       0.235   9.900  22.549  0.00  0.00    +0.000 A 
ATOM      4  C   UNL     1      -0.339  10.768  21.630  0.00  0.00    +0.000 A 
ATOM      5  C   UNL     1      -0.139  10.580  20.256  0.00  0.00    +0.000 A 
ATOM      6  C   UNL     1       0.667   9.502  19.826  0.00  0.00    +0.000 A 
ENDROOT
BRANCH   1   9
ATOM      7  C   UNL     1       2.371   7.308  18.947  0.00  0.00    +0.000 C 
ATOM      8  O   UNL     1       2.172   8.080  18.011  0.00  0.00    +0.000 OA
ATOM      9  N   UNL     1       1.970   7.499  20.263  0.00  0.00    +0.000 N 
ATOM     10  H   UNL     1       2.319   6.819  20.934  0.00  0.00    +0.000 HD
BRANCH   7  14
ATOM     11  C   UNL     1       2.554   2.554  17.516  0.00  0.00    +0.000 C 
ATOM     12  C   UNL     1       3.192   3.824  17.995  0.00  0.00    +0.000 A 
ATOM     13  C   UNL     1       2.452   4.951  18.229  0.00  0.00    +0.000 A 
ATOM     14  C   UNL     1       3.152   6.058  18.666  0.00  0.00    +0.000 A 
ATOM     15  N   UNL     1       4.493   6.085  18.858  0.00  0.00    +0.000 NA
ATOM     16  C   UNL     1       5.144   4.929  18.603  0.00  0.00    +0.000 A 
ATOM     17  N   UNL     1       4.524   3.803  18.179  0.00  0.00    +0.000 NA
BRANCH  16  18
ATOM     18  C   UNL     1       6.640   4.833  18.772  0.00  0.00    +0.000 C 
ATOM     19  C   UNL     1       7.495   4.747  17.524  0.00  0.00    +0.000 C 
ATOM     20  C   UNL     1       7.588   5.949  18.413  0.00  0.00    +0.000 C 
ENDBRANCH  16  18
ENDBRANCH   7  14
ENDBRANCH   1   9
BRANCH   5  21
ATOM     21  C   UNL     1      -0.808  11.500  19.240  0.00  0.00    +0.000 C 
ATOM     22  C   UNL     1       0.207  12.523  18.699  0.00  0.00    +0.000 C 
BRANCH  21  23
ATOM     23  C   UNL     1      -1.452  10.737  18.063  0.00  0.00    +0.000 C 
BRANCH  23  24
ATOM     24  C   UNL     1      -2.857  11.168  17.804  0.00  0.00    +0.000 A 
ATOM     25  N   UNL     1      -3.684  11.688  18.691  0.00  0.00    +0.000 NA
ATOM     26  N   UNL     1      -4.873  11.963  18.059  0.00  0.00    +0.000 NA
ATOM     27  C   UNL     1      -4.744  11.615  16.801  0.00  0.00    +0.000 A 
ATOM     28  N   UNL     1      -3.494  11.120  16.592  0.00  0.00    +0.000 N 
ATOM     29  C   UNL     1      -2.963  10.672  15.333  0.00  0.00    +0.000 C 
ENDBRANCH  23  24
ENDBRANCH  21  23
ENDBRANCH   5  21
TORSDOF 6
ENDMDL
MODEL 6
REMARK VINA RESULT:      -7.9      3.010      9.483
REMARK  Name = 
REMARK  9 active torsions:
REMARK  status: ('A' for Active; 'I' for Inactive)
REMARK    1  A    between atoms: C_1  and  C_2
REMARK    2  A    between atoms: C_4  and  C_5
REMARK    3  A    between atoms: N_7  and  C_8
REMARK    4  A    between atoms: C_12  and  C_13
REMARK    5  A    between atoms: C_13  and  C_14
REMARK    6  A    between atoms: C_13  and  C_15
REMARK    7  A    between atoms: C_15  and  C_16
REMARK    8  A    between atoms: N_20  and  C_21
REMARK    9  A    between atoms: C_24  and  C_25
REMARK                            x       y       z     vdW  Elec       q    Type
REMARK                         _______ _______ _______ _____ _____    ______ ____
ROOT
ATOM      1  C   UNL     1       1.125   8.695  20.591  0.00  0.00    +0.000 A 
ATOM      2  C   UNL     1       1.128   8.760  21.988  0.00  0.00    +0.000 A 
ATOM      3  C   UNL     1       0.416   9.750  22.665  0.00  0.00    +0.000 A 
ATOM      4  C   UNL     1      -0.322  10.688  21.955  0.00  0.00    +0.000 A 
ATOM      5  C   UNL     1      -0.345  10.658  20.554  0.00  0.00    +0.000 A 
ATOM      6  C   UNL     1       0.406   9.668  19.880  0.00  0.00    +0.000 A 
ENDROOT
BRANCH   1   9
ATOM      7  C   UNL     1       2.335   7.818  18.592  0.00  0.00    +0.000 C 
ATOM      8  O   UNL     1       2.317   8.838  17.906  0.00  0.00    +0.000 OA
ATOM      9  N   UNL     1       1.811   7.686  19.872  0.00  0.00    +0.000 N 
ATOM     10  H   UNL     1       2.014   6.810  20.345  0.00  0.00    +0.000 HD
BRANCH   7  14
ATOM     11  C   UNL     1       6.203   5.710  16.297  0.00  0.00    +0.000 C 
ATOM     12  C   UNL     1       4.850   5.659  16.939  0.00  0.00    +0.000 A 
ATOM     13  C   UNL     1       4.262   6.781  17.459  0.00  0.00    +0.000 A 
ATOM     14  C   UNL     1       3.015   6.607  18.026  0.00  0.00    +0.000 A 
ATOM     15  N   UNL     1       2.370   5.418  18.100  0.00  0.00    +0.000 NA
ATOM     16  C   UNL     1       3.023   4.364  17.563  0.00  0.00    +0.000 A 
ATOM     17  N   UNL     1       4.242   4.460  16.984  0.00  0.00    +0.000 NA
BRANCH  16  18
ATOM     18  C   UNL     1       2.412   2.985  17.589  0.00  0.00    +0.000 C 
ATOM     19  C   UNL     1       2.768   2.070  18.743  0.00  0.00    +0.000 C 
ATOM     20  C   UNL     1       1.362   2.562  18.584  0.00  0.00    +0.000 C 
ENDBRANCH  16  18
ENDBRANCH   7  14
ENDBRANCH   1   9
BRANCH   5  21
ATOM     21  C   UNL     1      -1.193  11.654  19.769  0.00  0.00    +0.000 C 
ATOM     22  C   UNL     1      -0.486  13.019  19.703  0.00  0.00    +0.000 C 
BRANCH  21  23
ATOM     23  C   UNL     1      -1.526  11.173  18.340  0.00  0.00    +0.000 C 
BRANCH  23  24
ATOM     24  C   UNL     1      -2.956  11.404  17.979  0.00  0.00    +0.000 A 
ATOM     25  N   UNL     1      -3.900  11.834  18.794  0.00  0.00    +0.000 NA
ATOM     26  N   UNL     1      -5.071  11.929  18.080  0.00  0.00    +0.000 NA
ATOM     27  C   UNL     1      -4.814  11.565  16.846  0.00  0.00    +0.000 A 
ATOM     28  N   UNL     1      -3.499  11.236  16.734  0.00  0.00    +0.000 N 
ATOM     29  C   UNL     1      -2.832  10.826  15.527  0.00  0.00    +0.000 C 
ENDBRANCH  23  24
ENDBRANCH  21  23
ENDBRANCH   5  21
TORSDOF 6
ENDMDL
MODEL 7
REMARK VINA RESULT:      -7.9      4.334     10.106
REMARK  Name = 
REMARK  9 active torsions:
REMARK  status: ('A' for Active; 'I' for Inactive)
REMARK    1  A    between atoms: C_1  and  C_2
REMARK    2  A    between atoms: C_4  and  C_5
REMARK    3  A    between atoms: N_7  and  C_8
REMARK    4  A    between atoms: C_12  and  C_13
REMARK    5  A    between atoms: C_13  and  C_14
REMARK    6  A    between atoms: C_13  and  C_15
REMARK    7  A    between atoms: C_15  and  C_16
REMARK    8  A    between atoms: N_20  and  C_21
REMARK    9  A    between atoms: C_24  and  C_25
REMARK                            x       y       z     vdW  Elec       q    Type
REMARK                         _______ _______ _______ _____ _____    ______ ____
ROOT
ATOM      1  C   UNL     1       0.260  10.141  18.721  0.00  0.00    +0.000 A 
ATOM      2  C   UNL     1       0.603  11.346  19.341  0.00  0.00    +0.000 A 
ATOM      3  C   UNL     1      -0.179  12.490  19.176  0.00  0.00    +0.000 A 
ATOM      4  C   UNL     1      -1.326  12.443  18.393  0.00  0.00    +0.000 A 
ATOM      5  C   UNL     1      -1.698  11.254  17.751  0.00  0.00    +0.000 A 
ATOM      6  C   UNL     1      -0.880  10.112  17.904  0.00  0.00    +0.000 A 
ENDROOT
BRANCH   1   9
ATOM      7  C   UNL     1       2.065   8.539  18.086  0.00  0.00    +0.000 C 
ATOM      8  O   UNL     1       2.528   9.155  17.128  0.00  0.00    +0.000 OA
ATOM      9  N   UNL     1       1.013   8.953  18.892  0.00  0.00    +0.000 N 
ATOM     10  H   UNL     1       0.833   8.381  19.713  0.00  0.00    +0.000 HD
BRANCH   7  14
ATOM     11  C   UNL     1       2.401   4.568  21.052  0.00  0.00    +0.000 C 
ATOM     12  C   UNL     1       2.839   5.391  19.877  0.00  0.00    +0.000 A 
ATOM     13  C   UNL     1       2.218   6.569  19.560  0.00  0.00    +0.000 A 
ATOM     14  C   UNL     1       2.710   7.236  18.455  0.00  0.00    +0.000 A 
ATOM     15  N   UNL     1       3.736   6.791  17.690  0.00  0.00    +0.000 NA
ATOM     16  C   UNL     1       4.289   5.620  18.076  0.00  0.00    +0.000 A 
ATOM     17  N   UNL     1       3.865   4.915  19.150  0.00  0.00    +0.000 NA
BRANCH  16  18
ATOM     18  C   UNL     1       5.434   5.016  17.302  0.00  0.00    +0.000 C 
ATOM     19  C   UNL     1       5.110   3.994  16.231  0.00  0.00    +0.000 C 
ATOM     20  C   UNL     1       5.701   5.316  15.848  0.00  0.00    +0.000 C 
ENDBRANCH  16  18
ENDBRANCH   7  14
ENDBRANCH   1   9
BRANCH   5  21
ATOM     21  C   UNL     1      -2.982  11.183  16.931  0.00  0.00    +0.000 C 
ATOM     22  C   UNL     1      -2.736  10.414  15.622  0.00  0.00    +0.000 C 
BRANCH  21  23
ATOM     23  C   UNL     1      -4.157  10.539  17.699  0.00  0.00    +0.000 C 
BRANCH  23  24
ATOM     24  C   UNL     1      -5.376  11.400  17.705  0.00  0.00    +0.000 A 
ATOM     25  N   UNL     1      -5.526  12.534  17.048  0.00  0.00    +0.000 NA
ATOM     26  N   UNL     1      -6.790  13.011  17.301  0.00  0.00    +0.000 NA
ATOM     27  C   UNL     1      -7.386  12.156  18.096  0.00  0.00    +0.000 A 
ATOM     28  N   UNL     1      -6.541  11.124  18.369  0.00  0.00    +0.000 N 
ATOM     29  C   UNL     1      -6.848   9.973  19.173  0.00  0.00    +0.000 C 
ENDBRANCH  23  24
ENDBRANCH  21  23
ENDBRANCH   5  21
TORSDOF 6
ENDMDL
MODEL 8
REMARK VINA RESULT:      -7.9      0.925      2.321
REMARK  Name = 
REMARK  9 active torsions:
REMARK  status: ('A' for Active; 'I' for Inactive)
REMARK    1  A    between atoms: C_1  and  C_2
REMARK    2  A    between atoms: C_4  and  C_5
REMARK    3  A    between atoms: N_7  and  C_8
REMARK    4  A    between atoms: C_12  and  C_13
REMARK    5  A    between atoms: C_13  and  C_14
REMARK    6  A    between atoms: C_13  and  C_15
REMARK    7  A    between atoms: C_15  and  C_16
REMARK    8  A    between atoms: N_20  and  C_21
REMARK    9  A    between atoms: C_24  and  C_25
REMARK                            x       y       z     vdW  Elec       q    Type
REMARK                         _______ _______ _______ _____ _____    ______ ____
ROOT
ATOM      1  C   UNL     1       2.738   6.371  18.758  0.00  0.00    +0.000 A 
ATOM      2  C   UNL     1       2.127   5.158  19.086  0.00  0.00    +0.000 A 
ATOM      3  C   UNL     1       2.654   3.943  18.647  0.00  0.00    +0.000 A 
ATOM      4  C   UNL     1       3.810   3.922  17.878  0.00  0.00    +0.000 A 
ATOM      5  C   UNL     1       4.448   5.119  17.523  0.00  0.00    +0.000 A 
ATOM      6  C   UNL     1       3.885   6.343  17.951  0.00  0.00    +0.000 A 
ENDROOT
BRANCH   1   9
ATOM      7  C   UNL     1       1.895   8.694  18.404  0.00  0.00    +0.000 C 
ATOM      8  O   UNL     1       1.916   8.711  17.175  0.00  0.00    +0.000 OA
ATOM      9  N   UNL     1       2.248   7.620  19.212  0.00  0.00    +0.000 N 
ATOM     10  H   UNL     1       2.060   7.733  20.204  0.00  0.00    +0.000 HD
BRANCH   7  14
ATOM     11  C   UNL     1       0.879  13.556  18.417  0.00  0.00    +0.000 C 
ATOM     12  C   UNL     1       0.951  12.212  19.076  0.00  0.00    +0.000 A 
ATOM     13  C   UNL     1       1.388  11.105  18.397  0.00  0.00    +0.000 A 
ATOM     14  C   UNL     1       1.407   9.923  19.111  0.00  0.00    +0.000 A 
ATOM     15  N   UNL     1       1.019   9.807  20.404  0.00  0.00    +0.000 NA
ATOM     16  C   UNL     1       0.602  10.948  20.995  0.00  0.00    +0.000 A 
ATOM     17  N   UNL     1       0.562  12.143  20.362  0.00  0.00    +0.000 NA
BRANCH  16  18
ATOM     18  C   UNL     1       0.137  10.947  22.430  0.00  0.00    +0.000 C 
ATOM     19  C   UNL     1      -1.351  11.048  22.697  0.00  0.00    +0.000 C 
ATOM     20  C   UNL     1      -0.608   9.798  23.059  0.00  0.00    +0.000 C 
ENDBRANCH  16  18
ENDBRANCH   7  14
ENDBRANCH   1   9
BRANCH   5  21
ATOM     21  C   UNL     1       5.744   5.101  16.721  0.00  0.00    +0.000 C 
ATOM     22  C   UNL     1       6.897   4.556  17.583  0.00  0.00    +0.000 C 
BRANCH  21  23
ATOM     23  C   UNL     1       5.639   4.281  15.417  0.00  0.00    +0.000 C 
BRANCH  23  24
ATOM     24  C   UNL     1       6.624   4.720  14.385  0.00  0.00    +0.000 A 
ATOM     25  N   UNL     1       7.600   5.588  14.567  0.00  0.00    +0.000 NA
ATOM     26  N   UNL     1       8.289   5.712  13.384  0.00  0.00    +0.000 NA
ATOM     27  C   UNL     1       7.726   4.911  12.511  0.00  0.00    +0.000 A 
ATOM     28  N   UNL     1       6.684   4.262  13.097  0.00  0.00    +0.000 N 
ATOM     29  C   UNL     1       5.847   3.273  12.471  0.00  0.00    +0.000 C 
ENDBRANCH  23  24
ENDBRANCH  21  23
ENDBRANCH   5  21
TORSDOF 6
ENDMDL
MODEL 9
REMARK VINA RESULT:      -7.8      3.290      9.332
REMARK  Name = 
REMARK  9 active torsions:
REMARK  status: ('A' for Active; 'I' for Inactive)
REMARK    1  A    between atoms: C_1  and  C_2
REMARK    2  A    between atoms: C_4  and  C_5
REMARK    3  A    between atoms: N_7  and  C_8
REMARK    4  A    between atoms: C_12  and  C_13
REMARK    5  A    between atoms: C_13  and  C_14
REMARK    6  A    between atoms: C_13  and  C_15
REMARK    7  A    between atoms: C_15  and  C_16
REMARK    8  A    between atoms: N_20  and  C_21
REMARK    9  A    between atoms: C_24  and  C_25
REMARK                            x       y       z     vdW  Elec       q    Type
REMARK                         _______ _______ _______ _____ _____    ______ ____
ROOT
ATOM      1  C   UNL     1       0.366   8.893  21.483  0.00  0.00    +0.000 A 
ATOM      2  C   UNL     1       0.087   9.292  22.793  0.00  0.00    +0.000 A 
ATOM      3  C   UNL     1      -0.562  10.499  23.057  0.00  0.00    +0.000 A 
ATOM      4  C   UNL     1      -0.953  11.323  22.010  0.00  0.00    +0.000 A 
ATOM      5  C   UNL     1      -0.686  10.959  20.683  0.00  0.00    +0.000 A 
ATOM      6  C   UNL     1      -0.001   9.749  20.433  0.00  0.00    +0.000 A 
ENDROOT
BRANCH   1   9
ATOM      7  C   UNL     1       1.867   7.438  20.119  0.00  0.00    +0.000 C 
ATOM      8  O   UNL     1       2.255   8.281  19.313  0.00  0.00    +0.000 OA
ATOM      9  N   UNL     1       0.994   7.661  21.177  0.00  0.00    +0.000 N 
ATOM     10  H   UNL     1       0.869   6.883  21.818  0.00  0.00    +0.000 HD
BRANCH   7  14
ATOM     11  C   UNL     1       1.985   2.691  21.578  0.00  0.00    +0.000 C 
ATOM     12  C   UNL     1       2.435   3.826  20.708  0.00  0.00    +0.000 A 
ATOM     13  C   UNL     1       1.913   5.084  20.847  0.00  0.00    +0.000 A 
ATOM     14  C   UNL     1       2.406   6.045  19.986  0.00  0.00    +0.000 A 
ATOM     15  N   UNL     1       3.343   5.809  19.037  0.00  0.00    +0.000 NA
ATOM     16  C   UNL     1       3.802   4.541  18.970  0.00  0.00    +0.000 A 
ATOM     17  N   UNL     1       3.372   3.549  19.783  0.00  0.00    +0.000 NA
BRANCH  16  18
ATOM     18  C   UNL     1       4.842   4.151  17.949  0.00  0.00    +0.000 C 
ATOM     19  C   UNL     1       4.793   4.818  16.590  0.00  0.00    +0.000 C 
ATOM     20  C   UNL     1       5.953   5.068  17.505  0.00  0.00    +0.000 C 
ENDBRANCH  16  18
ENDBRANCH   7  14
ENDBRANCH   1   9
BRANCH   5  21
ATOM     21  C   UNL     1      -1.157  11.836  19.527  0.00  0.00    +0.000 C 
ATOM     22  C   UNL     1      -0.021  12.767  19.068  0.00  0.00    +0.000 C 
BRANCH  21  23
ATOM     23  C   UNL     1      -1.680  11.023  18.324  0.00  0.00    +0.000 C 
BRANCH  23  24
ATOM     24  C   UNL     1      -3.085  11.374  17.964  0.00  0.00    +0.000 A 
ATOM     25  N   UNL     1      -3.989  11.882  18.780  0.00  0.00    +0.000 NA
ATOM     26  N   UNL     1      -5.148  12.076  18.068  0.00  0.00    +0.000 NA
ATOM     27  C   UNL     1      -4.925  11.693  16.834  0.00  0.00    +0.000 A 
ATOM     28  N   UNL     1      -3.642  11.254  16.720  0.00  0.00    +0.000 N 
ATOM     29  C   UNL     1      -3.013  10.791  15.512  0.00  0.00    +0.000 C 
ENDBRANCH  23  24
ENDBRANCH  21  23
ENDBRANCH   5  21
TORSDOF 6
ENDMDL
