MODEL 1
REMARK VINA RESULT:      -9.2      0.000      0.000
REMARK  Name = 
REMARK  7 active torsions:
REMARK  status: ('A' for Active; 'I' for Inactive)
REMARK    1  A    between atoms: C_1  and  C_2
REMARK    2  A    between atoms: C_2  and  S_3
REMARK    3  A    between atoms: C_2  and  C_10
REMARK    4  A    between atoms: S_3  and  C_4
REMARK    5  A    between atoms: N_8  and  C_9
REMARK    6  A    between atoms: C_14  and  N_15
REMARK    7  A    between atoms: C_16  and  C_18
REMARK                            x       y       z     vdW  Elec       q    Type
REMARK                         _______ _______ _______ _____ _____    ______ ____
ROOT
ATOM      1  C   UNL     1       4.684   4.501  16.746  0.00  0.00    +0.000 A 
ATOM      2  C   UNL     1       5.264   3.816  15.666  0.00  0.00    +0.000 A 
ATOM      3  C   UNL     1       6.455   4.253  15.089  0.00  0.00    +0.000 A 
ATOM      4  C   UNL     1       7.079   5.407  15.550  0.00  0.00    +0.000 A 
ATOM      5  C   UNL     1       6.527   6.136  16.603  0.00  0.00    +0.000 A 
ATOM      6  C   UNL     1       5.358   5.651  17.225  0.00  0.00    +0.000 A 
ENDROOT
BRANCH   5   7
ATOM      7  N   UNL     1       7.083   7.353  17.060  0.00  0.00    +0.000 N 
ATOM      8  C   UNL     1       7.901   7.531  18.168  0.00  0.00    +0.000 C 
ATOM      9  O   UNL     1       8.289   6.643  18.919  0.00  0.00    +0.000 OA
ATOM     10  H   UNL     1       6.983   8.143  16.438  0.00  0.00    +0.000 HD
BRANCH   8  11
ATOM     11  C   UNL     1       8.353   8.898  18.365  0.00  0.00    +0.000 A 
ATOM     12  C   UNL     1       8.011  10.081  17.742  0.00  0.00    +0.000 A 
ATOM     13  C   UNL     1       8.791  11.137  18.294  0.00  0.00    +0.000 A 
ATOM     14  C   UNL     1       8.903  12.521  18.070  0.00  0.00    +0.000 A 
ATOM     15 CL   UNL     1       7.826  13.202  16.930  0.00  0.00    +0.000 Cl
ATOM     16  C   UNL     1       9.845  13.289  18.750  0.00  0.00    +0.000 A 
ATOM     17  C   UNL     1      10.686  12.679  19.677  0.00  0.00    +0.000 A 
ATOM     18  C   UNL     1      10.579  11.310  19.963  0.00  0.00    +0.000 A 
ATOM     19  C   UNL     1       9.621  10.563  19.259  0.00  0.00    +0.000 A 
ATOM     20  N   UNL     1       9.287   9.230  19.334  0.00  0.00    +0.000 N 
ATOM     21  H   UNL     1       9.689   8.559  19.976  0.00  0.00    +0.000 HD
ENDBRANCH   8  11
ENDBRANCH   5   7
BRANCH   1  23
ATOM     22  C   UNL     1       2.822   5.016  18.454  0.00  0.00    +0.000 C 
ATOM     23  C   UNL     1       3.356   4.051  17.378  0.00  0.00    +0.000 C 
BRANCH  23  24
ATOM     24  S   UNL     1       3.574   2.372  18.117  0.00  0.00    +0.000 S 
BRANCH  24  25
ATOM     25  C   UNL     1       2.921   2.557  19.704  0.00  0.00    +0.000 A 
ATOM     26  N   UNL     1       3.580   2.719  20.826  0.00  0.00    +0.000 NA
ATOM     27  N   UNL     1       2.658   2.732  21.854  0.00  0.00    +0.000 NA
ATOM     28  C   UNL     1       1.466   2.601  21.317  0.00  0.00    +0.000 A 
ATOM     29  N   UNL     1       1.582   2.517  19.963  0.00  0.00    +0.000 N 
ATOM     30  C   UNL     1       0.498   2.395  19.027  0.00  0.00    +0.000 C 
ENDBRANCH  24  25
ENDBRANCH  23  24
ENDBRANCH   1  23
TORSDOF 5
ENDMDL
MODEL 2
REMARK VINA RESULT:      -8.8      0.887      1.287
REMARK  Name = 
REMARK  7 active torsions:
REMARK  status: ('A' for Active; 'I' for Inactive)
REMARK    1  A    between atoms: C_1  and  C_2
REMARK    2  A    between atoms: C_2  and  S_3
REMARK    3  A    between atoms: C_2  and  C_10
REMARK    4  A    between atoms: S_3  and  C_4
REMARK    5  A    between atoms: N_8  and  C_9
REMARK    6  A    between atoms: C_14  and  N_15
REMARK    7  A    between atoms: C_16  and  C_18
REMARK                            x       y       z     vdW  Elec       q    Type
REMARK                         _______ _______ _______ _____ _____    ______ ____
ROOT
ATOM      1  C   UNL     1       4.079   5.355  17.211  0.00  0.00    +0.000 A 
ATOM      2  C   UNL     1       4.644   4.448  16.299  0.00  0.00    +0.000 A 
ATOM      3  C   UNL     1       5.936   4.628  15.808  0.00  0.00    +0.000 A 
ATOM      4  C   UNL     1       6.685   5.737  16.186  0.00  0.00    +0.000 A 
ATOM      5  C   UNL     1       6.157   6.679  17.067  0.00  0.00    +0.000 A 
ATOM      6  C   UNL     1       4.875   6.456  17.612  0.00  0.00    +0.000 A 
ENDROOT
BRANCH   5   7
ATOM      7  N   UNL     1       6.849   7.860  17.425  0.00  0.00    +0.000 N 
ATOM      8  C   UNL     1       7.947   7.958  18.270  0.00  0.00    +0.000 C 
ATOM      9  O   UNL     1       8.506   7.020  18.826  0.00  0.00    +0.000 OA
ATOM     10  H   UNL     1       6.600   8.689  16.906  0.00  0.00    +0.000 HD
BRANCH   8  11
ATOM     11  C   UNL     1       8.471   9.305  18.416  0.00  0.00    +0.000 A 
ATOM     12  C   UNL     1       8.063  10.515  17.892  0.00  0.00    +0.000 A 
ATOM     13  C   UNL     1       8.961  11.532  18.322  0.00  0.00    +0.000 A 
ATOM     14  C   UNL     1       9.077  12.919  18.115  0.00  0.00    +0.000 A 
ATOM     15 CL   UNL     1       7.837  13.662  17.201  0.00  0.00    +0.000 Cl
ATOM     16  C   UNL     1      10.148  13.641  18.636  0.00  0.00    +0.000 A 
ATOM     17  C   UNL     1      11.119  12.981  19.384  0.00  0.00    +0.000 A 
ATOM     18  C   UNL     1      11.020  11.608  19.652  0.00  0.00    +0.000 A 
ATOM     19  C   UNL     1       9.930  10.908  19.110  0.00  0.00    +0.000 A 
ATOM     20  N   UNL     1       9.571   9.583  19.212  0.00  0.00    +0.000 N 
ATOM     21  H   UNL     1      10.058   8.883  19.756  0.00  0.00    +0.000 HD
ENDBRANCH   8  11
ENDBRANCH   5   7
BRANCH   1  23
ATOM     22  C   UNL     1       2.435   5.769  19.154  0.00  0.00    +0.000 C 
ATOM     23  C   UNL     1       2.645   5.190  17.742  0.00  0.00    +0.000 C 
BRANCH  23  24
ATOM     24  S   UNL     1       2.202   3.396  17.743  0.00  0.00    +0.000 S 
BRANCH  24  25
ATOM     25  C   UNL     1       2.006   3.046  19.422  0.00  0.00    +0.000 A 
ATOM     26  N   UNL     1       0.891   3.042  20.114  0.00  0.00    +0.000 NA
ATOM     27  N   UNL     1       1.218   2.798  21.432  0.00  0.00    +0.000 NA
ATOM     28  C   UNL     1       2.521   2.637  21.493  0.00  0.00    +0.000 A 
ATOM     29  N   UNL     1       3.053   2.755  20.246  0.00  0.00    +0.000 N 
ATOM     30  C   UNL     1       4.443   2.615  19.902  0.00  0.00    +0.000 C 
ENDBRANCH  24  25
ENDBRANCH  23  24
ENDBRANCH   1  23
TORSDOF 5
ENDMDL
MODEL 3
REMARK VINA RESULT:      -8.8      1.391      1.745
REMARK  Name = 
REMARK  7 active torsions:
REMARK  status: ('A' for Active; 'I' for Inactive)
REMARK    1  A    between atoms: C_1  and  C_2
REMARK    2  A    between atoms: C_2  and  S_3
REMARK    3  A    between atoms: C_2  and  C_10
REMARK    4  A    between atoms: S_3  and  C_4
REMARK    5  A    between atoms: N_8  and  C_9
REMARK    6  A    between atoms: C_14  and  N_15
REMARK    7  A    between atoms: C_16  and  C_18
REMARK                            x       y       z     vdW  Elec       q    Type
REMARK                         _______ _______ _______ _____ _____    ______ ____
ROOT
ATOM      1  C   UNL     1       4.452   5.192  17.009  0.00  0.00    +0.000 A 
ATOM      2  C   UNL     1       5.083   4.271  16.158  0.00  0.00    +0.000 A 
ATOM      3  C   UNL     1       6.387   4.478  15.709  0.00  0.00    +0.000 A 
ATOM      4  C   UNL     1       7.081   5.628  16.069  0.00  0.00    +0.000 A 
ATOM      5  C   UNL     1       6.486   6.584  16.890  0.00  0.00    +0.000 A 
ATOM      6  C   UNL     1       5.193   6.336  17.395  0.00  0.00    +0.000 A 
ENDROOT
BRANCH   5   7
ATOM      7  N   UNL     1       7.122   7.802  17.225  0.00  0.00    +0.000 N 
ATOM      8  C   UNL     1       8.047   8.008  18.240  0.00  0.00    +0.000 C 
ATOM      9  O   UNL     1       8.477   7.146  18.999  0.00  0.00    +0.000 OA
ATOM     10  H   UNL     1       6.987   8.562  16.573  0.00  0.00    +0.000 HD
BRANCH   8  11
ATOM     11  C   UNL     1       8.559   9.365  18.317  0.00  0.00    +0.000 A 
ATOM     12  C   UNL     1       9.596   9.920  19.041  0.00  0.00    +0.000 A 
ATOM     13  C   UNL     1       9.645  11.319  18.779  0.00  0.00    +0.000 A 
ATOM     14  C   UNL     1      10.445  12.391  19.215  0.00  0.00    +0.000 A 
ATOM     15 CL   UNL     1      11.748  12.002  20.252  0.00  0.00    +0.000 Cl
ATOM     16  C   UNL     1      10.183  13.698  18.813  0.00  0.00    +0.000 A 
ATOM     17  C   UNL     1       9.115  13.950  17.955  0.00  0.00    +0.000 A 
ATOM     18  C   UNL     1       8.319  12.906  17.462  0.00  0.00    +0.000 A 
ATOM     19  C   UNL     1       8.608  11.600  17.888  0.00  0.00    +0.000 A 
ATOM     20  N   UNL     1       8.017  10.397  17.570  0.00  0.00    +0.000 N 
ATOM     21  H   UNL     1       7.259  10.273  16.911  0.00  0.00    +0.000 HD
ENDBRANCH   8  11
ENDBRANCH   5   7
BRANCH   1  23
ATOM     22  C   UNL     1       2.696   5.695  18.830  0.00  0.00    +0.000 C 
ATOM     23  C   UNL     1       3.004   4.996  17.493  0.00  0.00    +0.000 C 
BRANCH  23  24
ATOM     24  S   UNL     1       2.659   3.188  17.653  0.00  0.00    +0.000 S 
BRANCH  24  25
ATOM     25  C   UNL     1       3.117   2.848  19.282  0.00  0.00    +0.000 A 
ATOM     26  N   UNL     1       4.319   2.578  19.735  0.00  0.00    +0.000 NA
ATOM     27  N   UNL     1       4.202   2.283  21.078  0.00  0.00    +0.000 NA
ATOM     28  C   UNL     1       2.934   2.407  21.402  0.00  0.00    +0.000 A 
ATOM     29  N   UNL     1       2.220   2.790  20.308  0.00  0.00    +0.000 N 
ATOM     30  C   UNL     1       0.807   3.054  20.270  0.00  0.00    +0.000 C 
ENDBRANCH  24  25
ENDBRANCH  23  24
ENDBRANCH   1  23
TORSDOF 5
ENDMDL
MODEL 4
REMARK VINA RESULT:      -8.7      0.981      1.284
REMARK  Name = 
REMARK  7 active torsions:
REMARK  status: ('A' for Active; 'I' for Inactive)
REMARK    1  A    between atoms: C_1  and  C_2
REMARK    2  A    between atoms: C_2  and  S_3
REMARK    3  A    between atoms: C_2  and  C_10
REMARK    4  A    between atoms: S_3  and  C_4
REMARK    5  A    between atoms: N_8  and  C_9
REMARK    6  A    between atoms: C_14  and  N_15
REMARK    7  A    between atoms: C_16  and  C_18
REMARK                            x       y       z     vdW  Elec       q    Type
REMARK                         _______ _______ _______ _____ _____    ______ ____
ROOT
ATOM      1  C   UNL     1       5.128   3.928  16.586  0.00  0.00    +0.000 A 
ATOM      2  C   UNL     1       5.510   3.500  15.305  0.00  0.00    +0.000 A 
ATOM      3  C   UNL     1       6.455   4.205  14.559  0.00  0.00    +0.000 A 
ATOM      4  C   UNL     1       7.016   5.375  15.059  0.00  0.00    +0.000 A 
ATOM      5  C   UNL     1       6.648   5.854  16.316  0.00  0.00    +0.000 A 
ATOM      6  C   UNL     1       5.742   5.101  17.091  0.00  0.00    +0.000 A 
ENDROOT
BRANCH   5   7
ATOM      7  N   UNL     1       7.134   7.076  16.837  0.00  0.00    +0.000 N 
ATOM      8  C   UNL     1       7.877   7.249  17.998  0.00  0.00    +0.000 C 
ATOM      9  O   UNL     1       8.248   6.354  18.748  0.00  0.00    +0.000 OA
ATOM     10  H   UNL     1       7.045   7.878  16.231  0.00  0.00    +0.000 HD
BRANCH   8  11
ATOM     11  C   UNL     1       8.270   8.623  18.257  0.00  0.00    +0.000 A 
ATOM     12  C   UNL     1       7.957   9.808  17.621  0.00  0.00    +0.000 A 
ATOM     13  C   UNL     1       8.650  10.874  18.261  0.00  0.00    +0.000 A 
ATOM     14  C   UNL     1       8.745  12.265  18.068  0.00  0.00    +0.000 A 
ATOM     15 CL   UNL     1       7.764  12.936  16.840  0.00  0.00    +0.000 Cl
ATOM     16  C   UNL     1       9.596  13.045  18.847  0.00  0.00    +0.000 A 
ATOM     17  C   UNL     1      10.360  12.442  19.842  0.00  0.00    +0.000 A 
ATOM     18  C   UNL     1      10.264  11.066  20.097  0.00  0.00    +0.000 A 
ATOM     19  C   UNL     1       9.400  10.306  19.293  0.00  0.00    +0.000 A 
ATOM     20  N   UNL     1       9.096   8.963  19.316  0.00  0.00    +0.000 N 
ATOM     21  H   UNL     1       9.453   8.293  19.984  0.00  0.00    +0.000 HD
ENDBRANCH   8  11
ENDBRANCH   5   7
BRANCH   1  23
ATOM     22  C   UNL     1       2.628   3.674  17.167  0.00  0.00    +0.000 C 
ATOM     23  C   UNL     1       4.067   3.182  17.412  0.00  0.00    +0.000 C 
BRANCH  23  24
ATOM     24  S   UNL     1       4.472   3.346  19.208  0.00  0.00    +0.000 S 
BRANCH  24  25
ATOM     25  C   UNL     1       2.916   3.466  19.948  0.00  0.00    +0.000 A 
ATOM     26  N   UNL     1       2.146   2.484  20.353  0.00  0.00    +0.000 NA
ATOM     27  N   UNL     1       0.962   3.038  20.795  0.00  0.00    +0.000 NA
ATOM     28  C   UNL     1       1.063   4.342  20.666  0.00  0.00    +0.000 A 
ATOM     29  N   UNL     1       2.289   4.657  20.164  0.00  0.00    +0.000 N 
ATOM     30  C   UNL     1       2.783   5.983  19.908  0.00  0.00    +0.000 C 
ENDBRANCH  24  25
ENDBRANCH  23  24
ENDBRANCH   1  23
TORSDOF 5
ENDMDL
MODEL 5
REMARK VINA RESULT:      -8.5      1.129      1.180
REMARK  Name = 
REMARK  7 active torsions:
REMARK  status: ('A' for Active; 'I' for Inactive)
REMARK    1  A    between atoms: C_1  and  C_2
REMARK    2  A    between atoms: C_2  and  S_3
REMARK    3  A    between atoms: C_2  and  C_10
REMARK    4  A    between atoms: S_3  and  C_4
REMARK    5  A    between atoms: N_8  and  C_9
REMARK    6  A    between atoms: C_14  and  N_15
REMARK    7  A    between atoms: C_16  and  C_18
REMARK                            x       y       z     vdW  Elec       q    Type
REMARK                         _______ _______ _______ _____ _____    ______ ____
ROOT
ATOM      1  C   UNL     1       5.227   4.100  16.566  0.00  0.00    +0.000 A 
ATOM      2  C   UNL     1       5.671   3.624  15.322  0.00  0.00    +0.000 A 
ATOM      3  C   UNL     1       6.674   4.285  14.613  0.00  0.00    +0.000 A 
ATOM      4  C   UNL     1       7.234   5.457  15.110  0.00  0.00    +0.000 A 
ATOM      5  C   UNL     1       6.805   5.982  16.328  0.00  0.00    +0.000 A 
ATOM      6  C   UNL     1       5.839   5.273  17.071  0.00  0.00    +0.000 A 
ENDROOT
BRANCH   5   7
ATOM      7  N   UNL     1       7.290   7.208  16.841  0.00  0.00    +0.000 N 
ATOM      8  C   UNL     1       7.931   7.407  18.057  0.00  0.00    +0.000 C 
ATOM      9  O   UNL     1       8.198   6.533  18.875  0.00  0.00    +0.000 OA
ATOM     10  H   UNL     1       7.288   7.985  16.197  0.00  0.00    +0.000 HD
BRANCH   8  11
ATOM     11  C   UNL     1       8.353   8.776  18.294  0.00  0.00    +0.000 A 
ATOM     12  C   UNL     1       8.012   9.966  17.682  0.00  0.00    +0.000 A 
ATOM     13  C   UNL     1       8.755  11.023  18.279  0.00  0.00    +0.000 A 
ATOM     14  C   UNL     1       8.850  12.414  18.084  0.00  0.00    +0.000 A 
ATOM     15 CL   UNL     1       7.800  13.098  16.923  0.00  0.00    +0.000 Cl
ATOM     16  C   UNL     1       9.756  13.184  18.810  0.00  0.00    +0.000 A 
ATOM     17  C   UNL     1      10.577  12.570  19.752  0.00  0.00    +0.000 A 
ATOM     18  C   UNL     1      10.483  11.194  20.010  0.00  0.00    +0.000 A 
ATOM     19  C   UNL     1       9.563  10.446  19.260  0.00  0.00    +0.000 A 
ATOM     20  N   UNL     1       9.249   9.105  19.299  0.00  0.00    +0.000 N 
ATOM     21  H   UNL     1       9.641   8.429  19.942  0.00  0.00    +0.000 HD
ENDBRANCH   8  11
ENDBRANCH   5   7
BRANCH   1  23
ATOM     22  C   UNL     1       2.705   3.997  17.093  0.00  0.00    +0.000 C 
ATOM     23  C   UNL     1       4.102   3.403  17.351  0.00  0.00    +0.000 C 
BRANCH  23  24
ATOM     24  S   UNL     1       4.481   3.490  19.157  0.00  0.00    +0.000 S 
BRANCH  24  25
ATOM     25  C   UNL     1       3.078   4.254  19.812  0.00  0.00    +0.000 A 
ATOM     26  N   UNL     1       2.940   5.512  20.156  0.00  0.00    +0.000 NA
ATOM     27  N   UNL     1       1.686   5.657  20.714  0.00  0.00    +0.000 NA
ATOM     28  C   UNL     1       1.094   4.485  20.668  0.00  0.00    +0.000 A 
ATOM     29  N   UNL     1       1.924   3.579  20.081  0.00  0.00    +0.000 N 
ATOM     30  C   UNL     1       1.622   2.196  19.826  0.00  0.00    +0.000 C 
ENDBRANCH  24  25
ENDBRANCH  23  24
ENDBRANCH   1  23
TORSDOF 5
ENDMDL
MODEL 6
REMARK VINA RESULT:      -8.4      2.067      2.538
REMARK  Name = 
REMARK  7 active torsions:
REMARK  status: ('A' for Active; 'I' for Inactive)
REMARK    1  A    between atoms: C_1  and  C_2
REMARK    2  A    between atoms: C_2  and  S_3
REMARK    3  A    between atoms: C_2  and  C_10
REMARK    4  A    between atoms: S_3  and  C_4
REMARK    5  A    between atoms: N_8  and  C_9
REMARK    6  A    between atoms: C_14  and  N_15
REMARK    7  A    between atoms: C_16  and  C_18
REMARK                            x       y       z     vdW  Elec       q    Type
REMARK                         _______ _______ _______ _____ _____    ______ ____
ROOT
ATOM      1  C   UNL     1       5.016   4.275  17.193  0.00  0.00    +0.000 A 
ATOM      2  C   UNL     1       5.394   3.679  15.979  0.00  0.00    +0.000 A 
ATOM      3  C   UNL     1       6.366   4.257  15.163  0.00  0.00    +0.000 A 
ATOM      4  C   UNL     1       6.960   5.462  15.521  0.00  0.00    +0.000 A 
ATOM      5  C   UNL     1       6.598   6.105  16.703  0.00  0.00    +0.000 A 
ATOM      6  C   UNL     1       5.663   5.482  17.555  0.00  0.00    +0.000 A 
ENDROOT
BRANCH   5   7
ATOM      7  N   UNL     1       7.118   7.367  17.075  0.00  0.00    +0.000 N 
ATOM      8  C   UNL     1       7.951   7.639  18.153  0.00  0.00    +0.000 C 
ATOM      9  O   UNL     1       8.386   6.813  18.946  0.00  0.00    +0.000 OA
ATOM     10  H   UNL     1       6.977   8.113  16.410  0.00  0.00    +0.000 HD
BRANCH   8  11
ATOM     11  C   UNL     1       8.357   9.030  18.258  0.00  0.00    +0.000 A 
ATOM     12  C   UNL     1       9.268   9.666  19.077  0.00  0.00    +0.000 A 
ATOM     13  C   UNL     1       9.249  11.061  18.795  0.00  0.00    +0.000 A 
ATOM     14  C   UNL     1       9.921  12.193  19.293  0.00  0.00    +0.000 A 
ATOM     15 CL   UNL     1      11.128  11.909  20.471  0.00  0.00    +0.000 Cl
ATOM     16  C   UNL     1       9.614  13.473  18.840  0.00  0.00    +0.000 A 
ATOM     17  C   UNL     1       8.631  13.639  17.869  0.00  0.00    +0.000 A 
ATOM     18  C   UNL     1       7.967  12.535  17.313  0.00  0.00    +0.000 A 
ATOM     19  C   UNL     1       8.297  11.258  17.794  0.00  0.00    +0.000 A 
ATOM     20  N   UNL     1       7.828  10.013  17.437  0.00  0.00    +0.000 N 
ATOM     21  H   UNL     1       7.156   9.827  16.704  0.00  0.00    +0.000 HD
ENDBRANCH   8  11
ENDBRANCH   5   7
BRANCH   1  23
ATOM     22  C   UNL     1       3.817   2.136  17.992  0.00  0.00    +0.000 C 
ATOM     23  C   UNL     1       3.925   3.670  18.093  0.00  0.00    +0.000 C 
BRANCH  23  24
ATOM     24  S   UNL     1       2.296   4.428  17.663  0.00  0.00    +0.000 S 
BRANCH  24  25
ATOM     25  C   UNL     1       2.142   5.700  18.821  0.00  0.00    +0.000 A 
ATOM     26  N   UNL     1       2.389   6.976  18.644  0.00  0.00    +0.000 NA
ATOM     27  N   UNL     1       2.218   7.607  19.860  0.00  0.00    +0.000 NA
ATOM     28  C   UNL     1       1.849   6.694  20.731  0.00  0.00    +0.000 A 
ATOM     29  N   UNL     1       1.760   5.484  20.112  0.00  0.00    +0.000 N 
ATOM     30  C   UNL     1       1.358   4.247  20.726  0.00  0.00    +0.000 C 
ENDBRANCH  24  25
ENDBRANCH  23  24
ENDBRANCH   1  23
TORSDOF 5
ENDMDL
MODEL 7
REMARK VINA RESULT:      -8.4      1.532      1.864
REMARK  Name = 
REMARK  7 active torsions:
REMARK  status: ('A' for Active; 'I' for Inactive)
REMARK    1  A    between atoms: C_1  and  C_2
REMARK    2  A    between atoms: C_2  and  S_3
REMARK    3  A    between atoms: C_2  and  C_10
REMARK    4  A    between atoms: S_3  and  C_4
REMARK    5  A    between atoms: N_8  and  C_9
REMARK    6  A    between atoms: C_14  and  N_15
REMARK    7  A    between atoms: C_16  and  C_18
REMARK                            x       y       z     vdW  Elec       q    Type
REMARK                         _______ _______ _______ _____ _____    ______ ____
ROOT
ATOM      1  C   UNL     1       5.338   4.297  17.044  0.00  0.00    +0.000 A 
ATOM      2  C   UNL     1       5.686   3.764  15.792  0.00  0.00    +0.000 A 
ATOM      3  C   UNL     1       6.603   4.407  14.963  0.00  0.00    +0.000 A 
ATOM      4  C   UNL     1       7.170   5.618  15.345  0.00  0.00    +0.000 A 
ATOM      5  C   UNL     1       6.835   6.200  16.567  0.00  0.00    +0.000 A 
ATOM      6  C   UNL     1       5.958   5.510  17.430  0.00  0.00    +0.000 A 
ENDROOT
BRANCH   5   7
ATOM      7  N   UNL     1       7.328   7.463  16.970  0.00  0.00    +0.000 N 
ATOM      8  C   UNL     1       8.033   7.751  18.131  0.00  0.00    +0.000 C 
ATOM      9  O   UNL     1       8.360   6.938  18.988  0.00  0.00    +0.000 OA
ATOM     10  H   UNL     1       7.276   8.196  16.276  0.00  0.00    +0.000 HD
BRANCH   8  11
ATOM     11  C   UNL     1       8.444   9.139  18.253  0.00  0.00    +0.000 A 
ATOM     12  C   UNL     1       9.363   9.760  19.075  0.00  0.00    +0.000 A 
ATOM     13  C   UNL     1       9.347  11.160  18.811  0.00  0.00    +0.000 A 
ATOM     14  C   UNL     1      10.027  12.282  19.320  0.00  0.00    +0.000 A 
ATOM     15 CL   UNL     1      11.240  11.978  20.486  0.00  0.00    +0.000 Cl
ATOM     16  C   UNL     1       9.722  13.569  18.886  0.00  0.00    +0.000 A 
ATOM     17  C   UNL     1       8.733  13.751  17.923  0.00  0.00    +0.000 A 
ATOM     18  C   UNL     1       8.061  12.657  17.357  0.00  0.00    +0.000 A 
ATOM     19  C   UNL     1       8.390  11.373  17.819  0.00  0.00    +0.000 A 
ATOM     20  N   UNL     1       7.914  10.135  17.448  0.00  0.00    +0.000 N 
ATOM     21  H   UNL     1       7.237   9.961  16.717  0.00  0.00    +0.000 HD
ENDBRANCH   8  11
ENDBRANCH   5   7
BRANCH   1  23
ATOM     22  C   UNL     1       3.014   3.196  17.237  0.00  0.00    +0.000 C 
ATOM     23  C   UNL     1       4.307   3.617  17.961  0.00  0.00    +0.000 C 
BRANCH  23  24
ATOM     24  S   UNL     1       3.886   4.761  19.350  0.00  0.00    +0.000 S 
BRANCH  24  25
ATOM     25  C   UNL     1       3.001   3.748  20.433  0.00  0.00    +0.000 A 
ATOM     26  N   UNL     1       3.405   2.635  20.997  0.00  0.00    +0.000 NA
ATOM     27  N   UNL     1       2.341   2.117  21.708  0.00  0.00    +0.000 NA
ATOM     28  C   UNL     1       1.331   2.947  21.570  0.00  0.00    +0.000 A 
ATOM     29  N   UNL     1       1.712   4.003  20.799  0.00  0.00    +0.000 N 
ATOM     30  C   UNL     1       0.894   5.132  20.447  0.00  0.00    +0.000 C 
ENDBRANCH  24  25
ENDBRANCH  23  24
ENDBRANCH   1  23
TORSDOF 5
ENDMDL
MODEL 8
REMARK VINA RESULT:      -8.4      1.239      1.416
REMARK  Name = 
REMARK  7 active torsions:
REMARK  status: ('A' for Active; 'I' for Inactive)
REMARK    1  A    between atoms: C_1  and  C_2
REMARK    2  A    between atoms: C_2  and  S_3
REMARK    3  A    between atoms: C_2  and  C_10
REMARK    4  A    between atoms: S_3  and  C_4
REMARK    5  A    between atoms: N_8  and  C_9
REMARK    6  A    between atoms: C_14  and  N_15
REMARK    7  A    between atoms: C_16  and  C_18
REMARK                            x       y       z     vdW  Elec       q    Type
REMARK                         _______ _______ _______ _____ _____    ______ ____
ROOT
ATOM      1  C   UNL     1       4.339   5.716  17.182  0.00  0.00    +0.000 A 
ATOM      2  C   UNL     1       4.824   4.870  16.172  0.00  0.00    +0.000 A 
ATOM      3  C   UNL     1       6.102   5.037  15.641  0.00  0.00    +0.000 A 
ATOM      4  C   UNL     1       6.917   6.075  16.080  0.00  0.00    +0.000 A 
ATOM      5  C   UNL     1       6.469   6.957  17.063  0.00  0.00    +0.000 A 
ATOM      6  C   UNL     1       5.202   6.742  17.642  0.00  0.00    +0.000 A 
ENDROOT
BRANCH   5   7
ATOM      7  N   UNL     1       7.230   8.070  17.490  0.00  0.00    +0.000 N 
ATOM      8  C   UNL     1       8.206   8.082  18.479  0.00  0.00    +0.000 C 
ATOM      9  O   UNL     1       8.578   7.111  19.126  0.00  0.00    +0.000 OA
ATOM     10  H   UNL     1       7.146   8.903  16.925  0.00  0.00    +0.000 HD
BRANCH   8  11
ATOM     11  C   UNL     1       8.847   9.371  18.670  0.00  0.00    +0.000 A 
ATOM     12  C   UNL     1       9.356  10.291  17.774  0.00  0.00    +0.000 A 
ATOM     13  C   UNL     1       9.919  11.380  18.499  0.00  0.00    +0.000 A 
ATOM     14  C   UNL     1      10.577  12.576  18.157  0.00  0.00    +0.000 A 
ATOM     15 CL   UNL     1      10.708  12.928  16.490  0.00  0.00    +0.000 Cl
ATOM     16  C   UNL     1      11.089  13.424  19.137  0.00  0.00    +0.000 A 
ATOM     17  C   UNL     1      10.939  13.089  20.480  0.00  0.00    +0.000 A 
ATOM     18  C   UNL     1      10.251  11.928  20.865  0.00  0.00    +0.000 A 
ATOM     19  C   UNL     1       9.750  11.093  19.855  0.00  0.00    +0.000 A 
ATOM     20  N   UNL     1       9.038   9.916  19.930  0.00  0.00    +0.000 N 
ATOM     21  H   UNL     1       8.725   9.474  20.783  0.00  0.00    +0.000 HD
ENDBRANCH   8  11
ENDBRANCH   5   7
BRANCH   1  23
ATOM     22  C   UNL     1       2.779   6.096  19.200  0.00  0.00    +0.000 C 
ATOM     23  C   UNL     1       2.922   5.568  17.760  0.00  0.00    +0.000 C 
BRANCH  23  24
ATOM     24  S   UNL     1       2.431   3.786  17.710  0.00  0.00    +0.000 S 
BRANCH  24  25
ATOM     25  C   UNL     1       3.217   3.128  19.100  0.00  0.00    +0.000 A 
ATOM     26  N   UNL     1       4.488   2.833  19.234  0.00  0.00    +0.000 NA
ATOM     27  N   UNL     1       4.652   2.250  20.474  0.00  0.00    +0.000 NA
ATOM     28  C   UNL     1       3.477   2.232  21.062  0.00  0.00    +0.000 A 
ATOM     29  N   UNL     1       2.550   2.803  20.243  0.00  0.00    +0.000 N 
ATOM     30  C   UNL     1       1.157   2.993  20.546  0.00  0.00    +0.000 C 
ENDBRANCH  24  25
ENDBRANCH  23  24
ENDBRANCH   1  23
TORSDOF 5
ENDMDL
MODEL 9
REMARK VINA RESULT:      -8.3      4.475      7.348
REMARK  Name = 
REMARK  7 active torsions:
REMARK  status: ('A' for Active; 'I' for Inactive)
REMARK    1  A    between atoms: C_1  and  C_2
REMARK    2  A    between atoms: C_2  and  S_3
REMARK    3  A    between atoms: C_2  and  C_10
REMARK    4  A    between atoms: S_3  and  C_4
REMARK    5  A    between atoms: N_8  and  C_9
REMARK    6  A    between atoms: C_14  and  N_15
REMARK    7  A    between atoms: C_16  and  C_18
REMARK                            x       y       z     vdW  Elec       q    Type
REMARK                         _______ _______ _______ _____ _____    ______ ____
ROOT
ATOM      1  C   UNL     1       4.359   4.404  16.800  0.00  0.00    +0.000 A 
ATOM      2  C   UNL     1       3.813   3.119  16.945  0.00  0.00    +0.000 A 
ATOM      3  C   UNL     1       2.653   2.907  17.689  0.00  0.00    +0.000 A 
ATOM      4  C   UNL     1       2.028   3.966  18.338  0.00  0.00    +0.000 A 
ATOM      5  C   UNL     1       2.549   5.256  18.246  0.00  0.00    +0.000 A 
ATOM      6  C   UNL     1       3.684   5.474  17.438  0.00  0.00    +0.000 A 
ENDROOT
BRANCH   5   7
ATOM      7  N   UNL     1       1.994   6.353  18.945  0.00  0.00    +0.000 N 
ATOM      8  C   UNL     1       2.225   7.701  18.700  0.00  0.00    +0.000 C 
ATOM      9  O   UNL     1       2.940   8.153  17.813  0.00  0.00    +0.000 OA
ATOM     10  H   UNL     1       1.255   6.130  19.596  0.00  0.00    +0.000 HD
BRANCH   8  11
ATOM     11  C   UNL     1       1.479   8.602  19.561  0.00  0.00    +0.000 A 
ATOM     12  C   UNL     1       1.075   9.912  19.396  0.00  0.00    +0.000 A 
ATOM     13  C   UNL     1       0.401  10.340  20.575  0.00  0.00    +0.000 A 
ATOM     14  C   UNL     1      -0.207  11.534  21.003  0.00  0.00    +0.000 A 
ATOM     15 CL   UNL     1      -0.267  12.811  19.868  0.00  0.00    +0.000 Cl
ATOM     16  C   UNL     1      -0.732  11.658  22.287  0.00  0.00    +0.000 A 
ATOM     17  C   UNL     1      -0.665  10.577  23.162  0.00  0.00    +0.000 A 
ATOM     18  C   UNL     1      -0.107   9.354  22.762  0.00  0.00    +0.000 A 
ATOM     19  C   UNL     1       0.417   9.262  21.463  0.00  0.00    +0.000 A 
ATOM     20  N   UNL     1       1.005   8.207  20.802  0.00  0.00    +0.000 N 
ATOM     21  H   UNL     1       1.121   7.273  21.173  0.00  0.00    +0.000 HD
ENDBRANCH   8  11
ENDBRANCH   5   7
BRANCH   1  23
ATOM     22  C   UNL     1       5.850   3.697  14.819  0.00  0.00    +0.000 C 
ATOM     23  C   UNL     1       5.654   4.656  16.009  0.00  0.00    +0.000 C 
BRANCH  23  24
ATOM     24  S   UNL     1       7.099   4.517  17.152  0.00  0.00    +0.000 S 
BRANCH  24  25
ATOM     25  C   UNL     1       7.458   6.164  17.524  0.00  0.00    +0.000 A 
ATOM     26  N   UNL     1       7.326   7.209  16.741  0.00  0.00    +0.000 NA
ATOM     27  N   UNL     1       7.817   8.305  17.421  0.00  0.00    +0.000 NA
ATOM     28  C   UNL     1       8.210   7.893  18.605  0.00  0.00    +0.000 A 
ATOM     29  N   UNL     1       7.975   6.557  18.724  0.00  0.00    +0.000 N 
ATOM     30  C   UNL     1       8.245   5.750  19.884  0.00  0.00    +0.000 C 
ENDBRANCH  24  25
ENDBRANCH  23  24
ENDBRANCH   1  23
TORSDOF 5
ENDMDL
