MODEL 1
REMARK VINA RESULT:      -8.7      0.000      0.000
REMARK  Name = 
REMARK  9 active torsions:
REMARK  status: ('A' for Active; 'I' for Inactive)
REMARK    1  A    between atoms: C_1  and  C_2
REMARK    2  A    between atoms: C_2  and  S_3
REMARK    3  A    between atoms: C_2  and  C_10
REMARK    4  A    between atoms: S_3  and  C_4
REMARK    5  A    between atoms: N_8  and  C_9
REMARK    6  A    between atoms: C_14  and  N_15
REMARK    7  A    between atoms: C_16  and  C_18
REMARK    8  A    between atoms: C_20  and  C_21
REMARK    9  A    between atoms: C_25  and  C_26
REMARK                            x       y       z     vdW  Elec       q    Type
REMARK                         _______ _______ _______ _____ _____    ______ ____
ROOT
ATOM      1  N   UNL     1       2.046   7.860  19.579  0.00  0.00    +0.000 N 
ATOM      2  C   UNL     1       2.041   6.520  19.942  0.00  0.00    +0.000 C 
ATOM      3  O   UNL     1       1.420   6.009  20.867  0.00  0.00    +0.000 OA
ATOM      4  H   UNL     1       2.559   8.074  18.728  0.00  0.00    +0.000 HD
ENDROOT
BRANCH   1   9
ATOM      5  C   UNL     1      -0.152  10.845  19.893  0.00  0.00    +0.000 A 
ATOM      6  C   UNL     1      -0.375  10.840  21.280  0.00  0.00    +0.000 A 
ATOM      7  C   UNL     1       0.283   9.942  22.112  0.00  0.00    +0.000 A 
ATOM      8  C   UNL     1       1.125   8.982  21.566  0.00  0.00    +0.000 A 
ATOM      9  C   UNL     1       1.294   8.889  20.183  0.00  0.00    +0.000 A 
ATOM     10  C   UNL     1       0.683   9.845  19.356  0.00  0.00    +0.000 A 
BRANCH   5  12
ATOM     11  C   UNL     1      -0.573  13.356  19.632  0.00  0.00    +0.000 C 
ATOM     12  C   UNL     1      -0.798  11.948  19.062  0.00  0.00    +0.000 C 
BRANCH  12  13
ATOM     13  S   UNL     1      -2.613  11.754  18.915  0.00  0.00    +0.000 S 
BRANCH  13  14
ATOM     14  C   UNL     1      -2.853  11.129  17.325  0.00  0.00    +0.000 A 
ATOM     15  N   UNL     1      -1.992  10.514  16.548  0.00  0.00    +0.000 NA
ATOM     16  N   UNL     1      -2.662  10.120  15.406  0.00  0.00    +0.000 NA
ATOM     17  C   UNL     1      -3.898  10.554  15.503  0.00  0.00    +0.000 A 
ATOM     18  N   UNL     1      -4.044  11.245  16.667  0.00  0.00    +0.000 N 
ATOM     19  C   UNL     1      -5.216  11.965  17.086  0.00  0.00    +0.000 C 
ENDBRANCH  13  14
ENDBRANCH  12  13
ENDBRANCH   5  12
ENDBRANCH   1   9
BRANCH   2  20
ATOM     20  C   UNL     1       2.856   5.633  19.054  0.00  0.00    +0.000 A 
ATOM     21  C   UNL     1       3.654   6.212  18.074  0.00  0.00    +0.000 A 
ATOM     22  C   UNL     1       4.448   5.402  17.265  0.00  0.00    +0.000 A 
ATOM     23  C   UNL     1       4.388   4.021  17.495  0.00  0.00    +0.000 A 
ATOM     24  C   UNL     1       3.566   3.497  18.503  0.00  0.00    +0.000 A 
ATOM     25  N   UNL     1       2.788   4.296  19.286  0.00  0.00    +0.000 NA
BRANCH  24  26
ATOM     26  C   UNL     1       3.556   1.996  18.764  0.00  0.00    +0.000 C 
ATOM     27  F   UNL     1       3.858   1.249  17.661  0.00  0.00    +0.000 F 
ATOM     28  F   UNL     1       4.458   1.622  19.716  0.00  0.00    +0.000 F 
ATOM     29  F   UNL     1       2.346   1.541  19.195  0.00  0.00    +0.000 F 
ENDBRANCH  24  26
BRANCH  22  30
ATOM     30  C   UNL     1       5.384   6.008  16.247  0.00  0.00    +0.000 C 
ATOM     31  C   UNL     1       6.731   5.393  15.963  0.00  0.00    +0.000 C 
ATOM     32  C   UNL     1       5.641   5.294  14.939  0.00  0.00    +0.000 C 
ENDBRANCH  22  30
ENDBRANCH   2  20
TORSDOF 7
ENDMDL
MODEL 2
REMARK VINA RESULT:      -8.7      1.269      1.554
REMARK  Name = 
REMARK  9 active torsions:
REMARK  status: ('A' for Active; 'I' for Inactive)
REMARK    1  A    between atoms: C_1  and  C_2
REMARK    2  A    between atoms: C_2  and  S_3
REMARK    3  A    between atoms: C_2  and  C_10
REMARK    4  A    between atoms: S_3  and  C_4
REMARK    5  A    between atoms: N_8  and  C_9
REMARK    6  A    between atoms: C_14  and  N_15
REMARK    7  A    between atoms: C_16  and  C_18
REMARK    8  A    between atoms: C_20  and  C_21
REMARK    9  A    between atoms: C_25  and  C_26
REMARK                            x       y       z     vdW  Elec       q    Type
REMARK                         _______ _______ _______ _____ _____    ______ ____
ROOT
ATOM      1  N   UNL     1       1.703   7.594  19.749  0.00  0.00    +0.000 N 
ATOM      2  C   UNL     1       2.452   7.666  18.582  0.00  0.00    +0.000 C 
ATOM      3  O   UNL     1       2.705   8.672  17.929  0.00  0.00    +0.000 OA
ATOM      4  H   UNL     1       1.677   6.678  20.189  0.00  0.00    +0.000 HD
ENDROOT
BRANCH   1   9
ATOM      5  C   UNL     1      -0.103  10.798  20.307  0.00  0.00    +0.000 A 
ATOM      6  C   UNL     1      -0.217  10.774  21.706  0.00  0.00    +0.000 A 
ATOM      7  C   UNL     1       0.394   9.781  22.463  0.00  0.00    +0.000 A 
ATOM      8  C   UNL     1       1.075   8.750  21.828  0.00  0.00    +0.000 A 
ATOM      9  C   UNL     1       1.125   8.682  20.435  0.00  0.00    +0.000 A 
ATOM     10  C   UNL     1       0.566   9.727  19.681  0.00  0.00    +0.000 A 
BRANCH   5  12
ATOM     11  C   UNL     1      -0.307  13.346  20.178  0.00  0.00    +0.000 C 
ATOM     12  C   UNL     1      -0.680  11.992  19.556  0.00  0.00    +0.000 C 
BRANCH  12  13
ATOM     13  S   UNL     1      -2.510  11.967  19.480  0.00  0.00    +0.000 S 
BRANCH  13  14
ATOM     14  C   UNL     1      -2.869  11.547  17.846  0.00  0.00    +0.000 A 
ATOM     15  N   UNL     1      -2.036  11.344  16.850  0.00  0.00    +0.000 NA
ATOM     16  N   UNL     1      -2.779  10.945  15.756  0.00  0.00    +0.000 NA
ATOM     17  C   UNL     1      -4.044  10.968  16.106  0.00  0.00    +0.000 A 
ATOM     18  N   UNL     1      -4.149  11.400  17.394  0.00  0.00    +0.000 N 
ATOM     19  C   UNL     1      -5.370  11.663  18.104  0.00  0.00    +0.000 C 
ENDBRANCH  13  14
ENDBRANCH  12  13
ENDBRANCH   5  12
ENDBRANCH   1   9
BRANCH   2  20
ATOM     20  C   UNL     1       3.033   6.361  18.136  0.00  0.00    +0.000 A 
ATOM     21  C   UNL     1       4.302   6.348  17.569  0.00  0.00    +0.000 A 
ATOM     22  C   UNL     1       4.871   5.137  17.184  0.00  0.00    +0.000 A 
ATOM     23  C   UNL     1       4.109   3.980  17.396  0.00  0.00    +0.000 A 
ATOM     24  C   UNL     1       2.835   4.058  17.976  0.00  0.00    +0.000 A 
ATOM     25  N   UNL     1       2.282   5.248  18.346  0.00  0.00    +0.000 NA
BRANCH  24  26
ATOM     26  C   UNL     1       2.047   2.780  18.240  0.00  0.00    +0.000 C 
ATOM     27  F   UNL     1       0.697   2.976  18.307  0.00  0.00    +0.000 F 
ATOM     28  F   UNL     1       2.232   1.839  17.270  0.00  0.00    +0.000 F 
ATOM     29  F   UNL     1       2.389   2.180  19.415  0.00  0.00    +0.000 F 
ENDBRANCH  24  26
BRANCH  22  30
ATOM     30  C   UNL     1       6.278   5.083  16.639  0.00  0.00    +0.000 C 
ATOM     31  C   UNL     1       7.278   6.169  16.950  0.00  0.00    +0.000 C 
ATOM     32  C   UNL     1       7.439   4.814  17.570  0.00  0.00    +0.000 C 
ENDBRANCH  22  30
ENDBRANCH   2  20
TORSDOF 7
ENDMDL
MODEL 3
REMARK VINA RESULT:      -8.6      3.136      4.659
REMARK  Name = 
REMARK  9 active torsions:
REMARK  status: ('A' for Active; 'I' for Inactive)
REMARK    1  A    between atoms: C_1  and  C_2
REMARK    2  A    between atoms: C_2  and  S_3
REMARK    3  A    between atoms: C_2  and  C_10
REMARK    4  A    between atoms: S_3  and  C_4
REMARK    5  A    between atoms: N_8  and  C_9
REMARK    6  A    between atoms: C_14  and  N_15
REMARK    7  A    between atoms: C_16  and  C_18
REMARK    8  A    between atoms: C_20  and  C_21
REMARK    9  A    between atoms: C_25  and  C_26
REMARK                            x       y       z     vdW  Elec       q    Type
REMARK                         _______ _______ _______ _____ _____    ______ ____
ROOT
ATOM      1  N   UNL     1       1.937   9.029  18.235  0.00  0.00    +0.000 N 
ATOM      2  C   UNL     1       2.111   8.040  19.193  0.00  0.00    +0.000 C 
ATOM      3  O   UNL     1       1.793   8.095  20.376  0.00  0.00    +0.000 OA
ATOM      4  H   UNL     1       2.188   8.761  17.288  0.00  0.00    +0.000 HD
ENDROOT
BRANCH   1   9
ATOM      5  C   UNL     1      -0.703  11.514  19.070  0.00  0.00    +0.000 A 
ATOM      6  C   UNL     1       0.054  12.696  19.039  0.00  0.00    +0.000 A 
ATOM      7  C   UNL     1       1.383  12.690  18.633  0.00  0.00    +0.000 A 
ATOM      8  C   UNL     1       2.004  11.488  18.317  0.00  0.00    +0.000 A 
ATOM      9  C   UNL     1       1.315  10.280  18.433  0.00  0.00    +0.000 A 
ATOM     10  C   UNL     1      -0.048  10.302  18.774  0.00  0.00    +0.000 A 
BRANCH   5  12
ATOM     11  C   UNL     1      -3.094  11.462  18.157  0.00  0.00    +0.000 C 
ATOM     12  C   UNL     1      -2.190  11.618  19.389  0.00  0.00    +0.000 C 
BRANCH  12  13
ATOM     13  S   UNL     1      -2.645  13.227  20.138  0.00  0.00    +0.000 S 
BRANCH  13  14
ATOM     14  C   UNL     1      -3.285  12.816  21.687  0.00  0.00    +0.000 A 
ATOM     15  N   UNL     1      -4.534  12.591  22.023  0.00  0.00    +0.000 NA
ATOM     16  N   UNL     1      -4.550  12.211  23.352  0.00  0.00    +0.000 NA
ATOM     17  C   UNL     1      -3.315  12.267  23.794  0.00  0.00    +0.000 A 
ATOM     18  N   UNL     1      -2.496  12.702  22.796  0.00  0.00    +0.000 N 
ATOM     19  C   UNL     1      -1.095  12.997  22.916  0.00  0.00    +0.000 C 
ENDBRANCH  13  14
ENDBRANCH  12  13
ENDBRANCH   5  12
ENDBRANCH   1   9
BRANCH   2  20
ATOM     20  C   UNL     1       2.708   6.771  18.673  0.00  0.00    +0.000 A 
ATOM     21  C   UNL     1       2.263   5.557  19.184  0.00  0.00    +0.000 A 
ATOM     22  C   UNL     1       2.782   4.367  18.683  0.00  0.00    +0.000 A 
ATOM     23  C   UNL     1       3.747   4.470  17.672  0.00  0.00    +0.000 A 
ATOM     24  C   UNL     1       4.154   5.724  17.195  0.00  0.00    +0.000 A 
ATOM     25  N   UNL     1       3.644   6.885  17.694  0.00  0.00    +0.000 NA
BRANCH  24  26
ATOM     26  C   UNL     1       5.169   5.806  16.061  0.00  0.00    +0.000 C 
ATOM     27  F   UNL     1       6.442   6.055  16.487  0.00  0.00    +0.000 F 
ATOM     28  F   UNL     1       5.244   4.652  15.338  0.00  0.00    +0.000 F 
ATOM     29  F   UNL     1       4.883   6.792  15.165  0.00  0.00    +0.000 F 
ENDBRANCH  24  26
BRANCH  22  30
ATOM     30  C   UNL     1       2.260   3.034  19.162  0.00  0.00    +0.000 C 
ATOM     31  C   UNL     1       1.112   2.949  20.137  0.00  0.00    +0.000 C 
ATOM     32  C   UNL     1       0.902   2.547  18.708  0.00  0.00    +0.000 C 
ENDBRANCH  22  30
ENDBRANCH   2  20
TORSDOF 7
ENDMDL
MODEL 4
REMARK VINA RESULT:      -8.5      1.975      2.811
REMARK  Name = 
REMARK  9 active torsions:
REMARK  status: ('A' for Active; 'I' for Inactive)
REMARK    1  A    between atoms: C_1  and  C_2
REMARK    2  A    between atoms: C_2  and  S_3
REMARK    3  A    between atoms: C_2  and  C_10
REMARK    4  A    between atoms: S_3  and  C_4
REMARK    5  A    between atoms: N_8  and  C_9
REMARK    6  A    between atoms: C_14  and  N_15
REMARK    7  A    between atoms: C_16  and  C_18
REMARK    8  A    between atoms: C_20  and  C_21
REMARK    9  A    between atoms: C_25  and  C_26
REMARK                            x       y       z     vdW  Elec       q    Type
REMARK                         _______ _______ _______ _____ _____    ______ ____
ROOT
ATOM      1  N   UNL     1       1.829   8.463  17.904  0.00  0.00    +0.000 N 
ATOM      2  C   UNL     1       2.251   7.572  18.881  0.00  0.00    +0.000 C 
ATOM      3  O   UNL     1       2.099   7.681  20.093  0.00  0.00    +0.000 OA
ATOM      4  H   UNL     1       1.974   8.153  16.946  0.00  0.00    +0.000 HD
ENDROOT
BRANCH   1   9
ATOM      5  C   UNL     1      -1.086  10.758  18.184  0.00  0.00    +0.000 A 
ATOM      6  C   UNL     1      -0.452  11.895  18.710  0.00  0.00    +0.000 A 
ATOM      7  C   UNL     1       0.929  11.947  18.858  0.00  0.00    +0.000 A 
ATOM      8  C   UNL     1       1.699  10.834  18.548  0.00  0.00    +0.000 A 
ATOM      9  C   UNL     1       1.098   9.650  18.118  0.00  0.00    +0.000 A 
ATOM     10  C   UNL     1      -0.290   9.630  17.903  0.00  0.00    +0.000 A 
BRANCH   5  12
ATOM     11  C   UNL     1      -2.936  11.119  16.452  0.00  0.00    +0.000 C 
ATOM     12  C   UNL     1      -2.585  10.825  17.918  0.00  0.00    +0.000 C 
BRANCH  12  13
ATOM     13  S   UNL     1      -3.422  12.125  18.900  0.00  0.00    +0.000 S 
BRANCH  13  14
ATOM     14  C   UNL     1      -5.076  11.635  18.946  0.00  0.00    +0.000 A 
ATOM     15  N   UNL     1      -5.784  11.053  18.005  0.00  0.00    +0.000 NA
ATOM     16  N   UNL     1      -7.031  10.773  18.530  0.00  0.00    +0.000 NA
ATOM     17  C   UNL     1      -7.057  11.240  19.758  0.00  0.00    +0.000 A 
ATOM     18  N   UNL     1      -5.869  11.843  20.037  0.00  0.00    +0.000 N 
ATOM     19  C   UNL     1      -5.547  12.568  21.236  0.00  0.00    +0.000 C 
ENDBRANCH  13  14
ENDBRANCH  12  13
ENDBRANCH   5  12
ENDBRANCH   1   9
BRANCH   2  20
ATOM     20  C   UNL     1       2.915   6.340  18.354  0.00  0.00    +0.000 A 
ATOM     21  C   UNL     1       4.184   6.444  17.797  0.00  0.00    +0.000 A 
ATOM     22  C   UNL     1       4.830   5.300  17.337  0.00  0.00    +0.000 A 
ATOM     23  C   UNL     1       4.142   4.086  17.465  0.00  0.00    +0.000 A 
ATOM     24  C   UNL     1       2.863   4.044  18.039  0.00  0.00    +0.000 A 
ATOM     25  N   UNL     1       2.235   5.170  18.482  0.00  0.00    +0.000 NA
BRANCH  24  26
ATOM     26  C   UNL     1       2.157   2.705  18.210  0.00  0.00    +0.000 C 
ATOM     27  F   UNL     1       0.799   2.813  18.309  0.00  0.00    +0.000 F 
ATOM     28  F   UNL     1       2.381   1.855  17.167  0.00  0.00    +0.000 F 
ATOM     29  F   UNL     1       2.554   2.036  19.330  0.00  0.00    +0.000 F 
ENDBRANCH  24  26
BRANCH  22  30
ATOM     30  C   UNL     1       6.240   5.371  16.801  0.00  0.00    +0.000 C 
ATOM     31  C   UNL     1       7.148   6.527  17.142  0.00  0.00    +0.000 C 
ATOM     32  C   UNL     1       7.414   5.175  17.734  0.00  0.00    +0.000 C 
ENDBRANCH  22  30
ENDBRANCH   2  20
TORSDOF 7
ENDMDL
MODEL 5
REMARK VINA RESULT:      -8.5      1.637      2.100
REMARK  Name = 
REMARK  9 active torsions:
REMARK  status: ('A' for Active; 'I' for Inactive)
REMARK    1  A    between atoms: C_1  and  C_2
REMARK    2  A    between atoms: C_2  and  S_3
REMARK    3  A    between atoms: C_2  and  C_10
REMARK    4  A    between atoms: S_3  and  C_4
REMARK    5  A    between atoms: N_8  and  C_9
REMARK    6  A    between atoms: C_14  and  N_15
REMARK    7  A    between atoms: C_16  and  C_18
REMARK    8  A    between atoms: C_20  and  C_21
REMARK    9  A    between atoms: C_25  and  C_26
REMARK                            x       y       z     vdW  Elec       q    Type
REMARK                         _______ _______ _______ _____ _____    ______ ____
ROOT
ATOM      1  N   UNL     1       2.326   8.883  17.832  0.00  0.00    +0.000 N 
ATOM      2  C   UNL     1       2.350   7.829  18.736  0.00  0.00    +0.000 C 
ATOM      3  O   UNL     1       1.920   7.833  19.884  0.00  0.00    +0.000 OA
ATOM      4  H   UNL     1       2.657   8.657  16.898  0.00  0.00    +0.000 HD
ENDROOT
BRANCH   1   9
ATOM      5  C   UNL     1      -0.245  11.467  18.576  0.00  0.00    +0.000 A 
ATOM      6  C   UNL     1       0.575  12.602  18.689  0.00  0.00    +0.000 A 
ATOM      7  C   UNL     1       1.934  12.540  18.408  0.00  0.00    +0.000 A 
ATOM      8  C   UNL     1       2.516  11.324  18.076  0.00  0.00    +0.000 A 
ATOM      9  C   UNL     1       1.756  10.154  18.051  0.00  0.00    +0.000 A 
ATOM     10  C   UNL     1       0.370  10.238  18.265  0.00  0.00    +0.000 A 
BRANCH   5  12
ATOM     11  C   UNL     1      -2.149  12.013  20.196  0.00  0.00    +0.000 C 
ATOM     12  C   UNL     1      -1.748  11.640  18.762  0.00  0.00    +0.000 C 
BRANCH  12  13
ATOM     13  S   UNL     1      -2.692  10.122  18.360  0.00  0.00    +0.000 S 
BRANCH  13  14
ATOM     14  C   UNL     1      -2.986  10.232  16.664  0.00  0.00    +0.000 A 
ATOM     15  N   UNL     1      -2.289   9.717  15.676  0.00  0.00    +0.000 NA
ATOM     16  N   UNL     1      -2.958   9.996  14.500  0.00  0.00    +0.000 NA
ATOM     17  C   UNL     1      -4.013  10.716  14.806  0.00  0.00    +0.000 A 
ATOM     18  N   UNL     1      -4.035  10.938  16.149  0.00  0.00    +0.000 N 
ATOM     19  C   UNL     1      -4.968  11.772  16.856  0.00  0.00    +0.000 C 
ENDBRANCH  13  14
ENDBRANCH  12  13
ENDBRANCH   5  12
ENDBRANCH   1   9
BRANCH   2  20
ATOM     20  C   UNL     1       2.928   6.560  18.194  0.00  0.00    +0.000 A 
ATOM     21  C   UNL     1       4.141   6.607  17.518  0.00  0.00    +0.000 A 
ATOM     22  C   UNL     1       4.710   5.428  17.042  0.00  0.00    +0.000 A 
ATOM     23  C   UNL     1       4.004   4.241  17.278  0.00  0.00    +0.000 A 
ATOM     24  C   UNL     1       2.785   4.257  17.971  0.00  0.00    +0.000 A 
ATOM     25  N   UNL     1       2.232   5.416  18.429  0.00  0.00    +0.000 NA
BRANCH  24  26
ATOM     26  C   UNL     1       2.062   2.947  18.257  0.00  0.00    +0.000 C 
ATOM     27  F   UNL     1       2.479   2.333  19.403  0.00  0.00    +0.000 F 
ATOM     28  F   UNL     1       0.716   3.109  18.399  0.00  0.00    +0.000 F 
ATOM     29  F   UNL     1       2.226   2.025  17.266  0.00  0.00    +0.000 F 
ENDBRANCH  24  26
BRANCH  22  30
ATOM     30  C   UNL     1       6.064   5.439  16.374  0.00  0.00    +0.000 C 
ATOM     31  C   UNL     1       7.199   6.267  16.923  0.00  0.00    +0.000 C 
ATOM     32  C   UNL     1       7.244   4.774  17.048  0.00  0.00    +0.000 C 
ENDBRANCH  22  30
ENDBRANCH   2  20
TORSDOF 7
ENDMDL
MODEL 6
REMARK VINA RESULT:      -8.5      2.689      3.388
REMARK  Name = 
REMARK  9 active torsions:
REMARK  status: ('A' for Active; 'I' for Inactive)
REMARK    1  A    between atoms: C_1  and  C_2
REMARK    2  A    between atoms: C_2  and  S_3
REMARK    3  A    between atoms: C_2  and  C_10
REMARK    4  A    between atoms: S_3  and  C_4
REMARK    5  A    between atoms: N_8  and  C_9
REMARK    6  A    between atoms: C_14  and  N_15
REMARK    7  A    between atoms: C_16  and  C_18
REMARK    8  A    between atoms: C_20  and  C_21
REMARK    9  A    between atoms: C_25  and  C_26
REMARK                            x       y       z     vdW  Elec       q    Type
REMARK                         _______ _______ _______ _____ _____    ______ ____
ROOT
ATOM      1  N   UNL     1       1.930   8.332  18.031  0.00  0.00    +0.000 N 
ATOM      2  C   UNL     1       2.226   7.407  19.023  0.00  0.00    +0.000 C 
ATOM      3  O   UNL     1       2.221   7.598  20.234  0.00  0.00    +0.000 OA
ATOM      4  H   UNL     1       1.907   7.959  17.087  0.00  0.00    +0.000 HD
ENDROOT
BRANCH   1   9
ATOM      5  C   UNL     1      -0.237  11.207  18.970  0.00  0.00    +0.000 A 
ATOM      6  C   UNL     1       0.686  12.259  18.849  0.00  0.00    +0.000 A 
ATOM      7  C   UNL     1       1.966  12.041  18.351  0.00  0.00    +0.000 A 
ATOM      8  C   UNL     1       2.373  10.753  18.031  0.00  0.00    +0.000 A 
ATOM      9  C   UNL     1       1.520   9.667  18.233  0.00  0.00    +0.000 A 
ATOM     10  C   UNL     1       0.205   9.904  18.667  0.00  0.00    +0.000 A 
BRANCH   5  12
ATOM     11  C   UNL     1      -2.637  11.662  18.207  0.00  0.00    +0.000 C 
ATOM     12  C   UNL     1      -1.663  11.543  19.388  0.00  0.00    +0.000 C 
BRANCH  12  13
ATOM     13  S   UNL     1      -1.782  13.132  20.292  0.00  0.00    +0.000 S 
BRANCH  13  14
ATOM     14  C   UNL     1      -2.858  12.805  21.600  0.00  0.00    +0.000 A 
ATOM     15  N   UNL     1      -2.614  12.169  22.723  0.00  0.00    +0.000 NA
ATOM     16  N   UNL     1      -3.754  12.233  23.500  0.00  0.00    +0.000 NA
ATOM     17  C   UNL     1      -4.673  12.862  22.803  0.00  0.00    +0.000 A 
ATOM     18  N   UNL     1      -4.169  13.185  21.579  0.00  0.00    +0.000 N 
ATOM     19  C   UNL     1      -4.897  13.782  20.493  0.00  0.00    +0.000 C 
ENDBRANCH  13  14
ENDBRANCH  12  13
ENDBRANCH   5  12
ENDBRANCH   1   9
BRANCH   2  20
ATOM     20  C   UNL     1       2.531   6.032  18.519  0.00  0.00    +0.000 A 
ATOM     21  C   UNL     1       3.533   5.870  17.569  0.00  0.00    +0.000 A 
ATOM     22  C   UNL     1       3.854   4.592  17.119  0.00  0.00    +0.000 A 
ATOM     23  C   UNL     1       3.127   3.525  17.663  0.00  0.00    +0.000 A 
ATOM     24  C   UNL     1       2.129   3.752  18.622  0.00  0.00    +0.000 A 
ATOM     25  N   UNL     1       1.817   5.006  19.054  0.00  0.00    +0.000 NA
BRANCH  24  26
ATOM     26  C   UNL     1       1.388   2.570  19.233  0.00  0.00    +0.000 C 
ATOM     27  F   UNL     1       0.503   1.979  18.377  0.00  0.00    +0.000 F 
ATOM     28  F   UNL     1       2.227   1.573  19.636  0.00  0.00    +0.000 F 
ATOM     29  F   UNL     1       0.659   2.913  20.333  0.00  0.00    +0.000 F 
ENDBRANCH  24  26
BRANCH  22  30
ATOM     30  C   UNL     1       4.990   4.378  16.148  0.00  0.00    +0.000 C 
ATOM     31  C   UNL     1       5.877   5.520  15.719  0.00  0.00    +0.000 C 
ATOM     32  C   UNL     1       6.421   4.462  16.630  0.00  0.00    +0.000 C 
ENDBRANCH  22  30
ENDBRANCH   2  20
TORSDOF 7
ENDMDL
MODEL 7
REMARK VINA RESULT:      -8.4      1.178      1.529
REMARK  Name = 
REMARK  9 active torsions:
REMARK  status: ('A' for Active; 'I' for Inactive)
REMARK    1  A    between atoms: C_1  and  C_2
REMARK    2  A    between atoms: C_2  and  S_3
REMARK    3  A    between atoms: C_2  and  C_10
REMARK    4  A    between atoms: S_3  and  C_4
REMARK    5  A    between atoms: N_8  and  C_9
REMARK    6  A    between atoms: C_14  and  N_15
REMARK    7  A    between atoms: C_16  and  C_18
REMARK    8  A    between atoms: C_20  and  C_21
REMARK    9  A    between atoms: C_25  and  C_26
REMARK                            x       y       z     vdW  Elec       q    Type
REMARK                         _______ _______ _______ _____ _____    ______ ____
ROOT
ATOM      1  N   UNL     1       1.365   7.683  20.132  0.00  0.00    +0.000 N 
ATOM      2  C   UNL     1       2.199   7.553  19.030  0.00  0.00    +0.000 C 
ATOM      3  O   UNL     1       2.592   8.451  18.294  0.00  0.00    +0.000 OA
ATOM      4  H   UNL     1       1.220   6.830  20.666  0.00  0.00    +0.000 HD
ENDROOT
BRANCH   1   9
ATOM      5  C   UNL     1      -0.344  10.986  20.213  0.00  0.00    +0.000 A 
ATOM      6  C   UNL     1      -0.383  11.208  21.599  0.00  0.00    +0.000 A 
ATOM      7  C   UNL     1       0.248  10.343  22.485  0.00  0.00    +0.000 A 
ATOM      8  C   UNL     1       0.872   9.198  22.007  0.00  0.00    +0.000 A 
ATOM      9  C   UNL     1       0.846   8.889  20.647  0.00  0.00    +0.000 A 
ATOM     10  C   UNL     1       0.269   9.805  19.751  0.00  0.00    +0.000 A 
BRANCH   5  12
ATOM     11  C   UNL     1      -0.736  13.483  19.808  0.00  0.00    +0.000 C 
ATOM     12  C   UNL     1      -0.935  12.050  19.294  0.00  0.00    +0.000 C 
BRANCH  12  13
ATOM     13  S   UNL     1      -2.741  11.854  19.053  0.00  0.00    +0.000 S 
BRANCH  13  14
ATOM     14  C   UNL     1      -2.896  11.214  17.459  0.00  0.00    +0.000 A 
ATOM     15  N   UNL     1      -1.997  10.587  16.736  0.00  0.00    +0.000 NA
ATOM     16  N   UNL     1      -2.606  10.184  15.563  0.00  0.00    +0.000 NA
ATOM     17  C   UNL     1      -3.843  10.624  15.588  0.00  0.00    +0.000 A 
ATOM     18  N   UNL     1      -4.049  11.329  16.736  0.00  0.00    +0.000 N 
ATOM     19  C   UNL     1      -5.238  12.058  17.081  0.00  0.00    +0.000 C 
ENDBRANCH  13  14
ENDBRANCH  12  13
ENDBRANCH   5  12
ENDBRANCH   1   9
BRANCH   2  20
ATOM     20  C   UNL     1       2.682   6.160  18.777  0.00  0.00    +0.000 A 
ATOM     21  C   UNL     1       3.566   5.934  17.728  0.00  0.00    +0.000 A 
ATOM     22  C   UNL     1       4.054   4.649  17.505  0.00  0.00    +0.000 A 
ATOM     23  C   UNL     1       3.610   3.641  18.371  0.00  0.00    +0.000 A 
ATOM     24  C   UNL     1       2.720   3.932  19.414  0.00  0.00    +0.000 A 
ATOM     25  N   UNL     1       2.242   5.192  19.623  0.00  0.00    +0.000 NA
BRANCH  24  26
ATOM     26  C   UNL     1       2.291   2.827  20.370  0.00  0.00    +0.000 C 
ATOM     27  F   UNL     1       1.233   3.170  21.163  0.00  0.00    +0.000 F 
ATOM     28  F   UNL     1       1.907   1.690  19.722  0.00  0.00    +0.000 F 
ATOM     29  F   UNL     1       3.284   2.452  21.226  0.00  0.00    +0.000 F 
ENDBRANCH  24  26
BRANCH  22  30
ATOM     30  C   UNL     1       5.076   4.388  16.425  0.00  0.00    +0.000 C 
ATOM     31  C   UNL     1       5.534   5.489  15.500  0.00  0.00    +0.000 C 
ATOM     32  C   UNL     1       6.469   4.964  16.547  0.00  0.00    +0.000 C 
ENDBRANCH  22  30
ENDBRANCH   2  20
TORSDOF 7
ENDMDL
MODEL 8
REMARK VINA RESULT:      -8.4      2.809      3.894
REMARK  Name = 
REMARK  9 active torsions:
REMARK  status: ('A' for Active; 'I' for Inactive)
REMARK    1  A    between atoms: C_1  and  C_2
REMARK    2  A    between atoms: C_2  and  S_3
REMARK    3  A    between atoms: C_2  and  C_10
REMARK    4  A    between atoms: S_3  and  C_4
REMARK    5  A    between atoms: N_8  and  C_9
REMARK    6  A    between atoms: C_14  and  N_15
REMARK    7  A    between atoms: C_16  and  C_18
REMARK    8  A    between atoms: C_20  and  C_21
REMARK    9  A    between atoms: C_25  and  C_26
REMARK                            x       y       z     vdW  Elec       q    Type
REMARK                         _______ _______ _______ _____ _____    ______ ____
ROOT
ATOM      1  N   UNL     1       1.443   8.993  18.795  0.00  0.00    +0.000 N 
ATOM      2  C   UNL     1       1.747   8.176  19.875  0.00  0.00    +0.000 C 
ATOM      3  O   UNL     1       1.585   8.433  21.063  0.00  0.00    +0.000 OA
ATOM      4  H   UNL     1       1.572   8.566  17.882  0.00  0.00    +0.000 HD
ENDROOT
BRANCH   1   9
ATOM      5  C   UNL     1      -1.166  11.594  19.316  0.00  0.00    +0.000 A 
ATOM      6  C   UNL     1      -0.381  12.753  19.201  0.00  0.00    +0.000 A 
ATOM      7  C   UNL     1       0.959  12.684  18.841  0.00  0.00    +0.000 A 
ATOM      8  C   UNL     1       1.562  11.447  18.655  0.00  0.00    +0.000 A 
ATOM      9  C   UNL     1       0.843  10.268  18.859  0.00  0.00    +0.000 A 
ATOM     10  C   UNL     1      -0.528  10.348  19.152  0.00  0.00    +0.000 A 
BRANCH   5  12
ATOM     11  C   UNL     1      -3.511  11.710  18.299  0.00  0.00    +0.000 C 
ATOM     12  C   UNL     1      -2.659  11.755  19.576  0.00  0.00    +0.000 C 
BRANCH  12  13
ATOM     13  S   UNL     1      -3.070  13.342  20.393  0.00  0.00    +0.000 S 
BRANCH  13  14
ATOM     14  C   UNL     1      -3.629  12.888  21.961  0.00  0.00    +0.000 A 
ATOM     15  N   UNL     1      -4.856  12.622  22.348  0.00  0.00    +0.000 NA
ATOM     16  N   UNL     1      -4.802  12.220  23.668  0.00  0.00    +0.000 NA
ATOM     17  C   UNL     1      -3.551  12.303  24.057  0.00  0.00    +0.000 A 
ATOM     18  N   UNL     1      -2.789  12.777  23.032  0.00  0.00    +0.000 N 
ATOM     19  C   UNL     1      -1.392  13.110  23.095  0.00  0.00    +0.000 C 
ENDBRANCH  13  14
ENDBRANCH  12  13
ENDBRANCH   5  12
ENDBRANCH   1   9
BRANCH   2  20
ATOM     20  C   UNL     1       2.282   6.829  19.504  0.00  0.00    +0.000 A 
ATOM     21  C   UNL     1       3.105   6.715  18.390  0.00  0.00    +0.000 A 
ATOM     22  C   UNL     1       3.642   5.475  18.054  0.00  0.00    +0.000 A 
ATOM     23  C   UNL     1       3.307   4.393  18.879  0.00  0.00    +0.000 A 
ATOM     24  C   UNL     1       2.473   4.571  19.992  0.00  0.00    +0.000 A 
ATOM     25  N   UNL     1       1.948   5.788  20.311  0.00  0.00    +0.000 NA
BRANCH  24  26
ATOM     26  C   UNL     1       2.164   3.388  20.900  0.00  0.00    +0.000 C 
ATOM     27  F   UNL     1       2.902   2.275  20.616  0.00  0.00    +0.000 F 
ATOM     28  F   UNL     1       2.402   3.658  22.216  0.00  0.00    +0.000 F 
ATOM     29  F   UNL     1       0.861   2.992  20.829  0.00  0.00    +0.000 F 
ENDBRANCH  24  26
BRANCH  22  30
ATOM     30  C   UNL     1       4.602   5.336  16.897  0.00  0.00    +0.000 C 
ATOM     31  C   UNL     1       5.074   6.543  16.125  0.00  0.00    +0.000 C 
ATOM     32  C   UNL     1       6.026   5.827  17.035  0.00  0.00    +0.000 C 
ENDBRANCH  22  30
ENDBRANCH   2  20
TORSDOF 7
ENDMDL
MODEL 9
REMARK VINA RESULT:      -8.4      3.160      4.361
REMARK  Name = 
REMARK  9 active torsions:
REMARK  status: ('A' for Active; 'I' for Inactive)
REMARK    1  A    between atoms: C_1  and  C_2
REMARK    2  A    between atoms: C_2  and  S_3
REMARK    3  A    between atoms: C_2  and  C_10
REMARK    4  A    between atoms: S_3  and  C_4
REMARK    5  A    between atoms: N_8  and  C_9
REMARK    6  A    between atoms: C_14  and  N_15
REMARK    7  A    between atoms: C_16  and  C_18
REMARK    8  A    between atoms: C_20  and  C_21
REMARK    9  A    between atoms: C_25  and  C_26
REMARK                            x       y       z     vdW  Elec       q    Type
REMARK                         _______ _______ _______ _____ _____    ______ ____
ROOT
ATOM      1  N   UNL     1       2.132   8.894  18.117  0.00  0.00    +0.000 N 
ATOM      2  C   UNL     1       2.239   7.891  19.071  0.00  0.00    +0.000 C 
ATOM      3  O   UNL     1       1.891   7.951  20.246  0.00  0.00    +0.000 OA
ATOM      4  H   UNL     1       2.399   8.623  17.175  0.00  0.00    +0.000 HD
ENDROOT
BRANCH   1   9
ATOM      5  C   UNL     1      -0.382  11.480  19.029  0.00  0.00    +0.000 A 
ATOM      6  C   UNL     1       0.402  12.638  18.905  0.00  0.00    +0.000 A 
ATOM      7  C   UNL     1       1.701  12.580  18.414  0.00  0.00    +0.000 A 
ATOM      8  C   UNL     1       2.268  11.351  18.104  0.00  0.00    +0.000 A 
ATOM      9  C   UNL     1       1.557  10.168  18.309  0.00  0.00    +0.000 A 
ATOM     10  C   UNL     1       0.221  10.241  18.736  0.00  0.00    +0.000 A 
BRANCH   5  12
ATOM     11  C   UNL     1      -2.824  11.525  18.264  0.00  0.00    +0.000 C 
ATOM     12  C   UNL     1      -1.842  11.637  19.439  0.00  0.00    +0.000 C 
BRANCH  12  13
ATOM     13  S   UNL     1      -2.188  13.256  20.224  0.00  0.00    +0.000 S 
BRANCH  13  14
ATOM     14  C   UNL     1      -3.341  12.900  21.457  0.00  0.00    +0.000 A 
ATOM     15  N   UNL     1      -3.142  12.341  22.628  0.00  0.00    +0.000 NA
ATOM     16  N   UNL     1      -4.346  12.343  23.305  0.00  0.00    +0.000 NA
ATOM     17  C   UNL     1      -5.251  12.856  22.503  0.00  0.00    +0.000 A 
ATOM     18  N   UNL     1      -4.673  13.164  21.309  0.00  0.00    +0.000 N 
ATOM     19  C   UNL     1      -5.352  13.644  20.136  0.00  0.00    +0.000 C 
ENDBRANCH  13  14
ENDBRANCH  12  13
ENDBRANCH   5  12
ENDBRANCH   1   9
BRANCH   2  20
ATOM     20  C   UNL     1       2.798   6.602  18.558  0.00  0.00    +0.000 A 
ATOM     21  C   UNL     1       2.316   5.406  19.075  0.00  0.00    +0.000 A 
ATOM     22  C   UNL     1       2.799   4.197  18.579  0.00  0.00    +0.000 A 
ATOM     23  C   UNL     1       3.766   4.267  17.567  0.00  0.00    +0.000 A 
ATOM     24  C   UNL     1       4.211   5.506  17.084  0.00  0.00    +0.000 A 
ATOM     25  N   UNL     1       3.736   6.684  17.578  0.00  0.00    +0.000 NA
BRANCH  24  26
ATOM     26  C   UNL     1       5.227   5.552  15.950  0.00  0.00    +0.000 C 
ATOM     27  F   UNL     1       5.018   6.575  15.071  0.00  0.00    +0.000 F 
ATOM     28  F   UNL     1       6.506   5.711  16.397  0.00  0.00    +0.000 F 
ATOM     29  F   UNL     1       5.232   4.416  15.196  0.00  0.00    +0.000 F 
ENDBRANCH  24  26
BRANCH  22  30
ATOM     30  C   UNL     1       2.237   2.883  19.065  0.00  0.00    +0.000 C 
ATOM     31  C   UNL     1       1.198   2.834  20.157  0.00  0.00    +0.000 C 
ATOM     32  C   UNL     1       0.806   2.509  18.747  0.00  0.00    +0.000 C 
ENDBRANCH  22  30
ENDBRANCH   2  20
TORSDOF 7
ENDMDL
