MODEL 1
REMARK VINA RESULT:      -8.7      0.000      0.000
REMARK  Name = 
REMARK  7 active torsions:
REMARK  status: ('A' for Active; 'I' for Inactive)
REMARK    1  A    between atoms: C_1  and  N_2
REMARK    2  A    between atoms: C_6  and  C_7
REMARK    3  A    between atoms: C_7  and  C_8
REMARK    4  A    between atoms: C_8  and  C_9
REMARK    5  A    between atoms: C_13  and  N_14
REMARK    6  A    between atoms: C_15  and  C_17
REMARK    7  A    between atoms: C_20  and  C_21
REMARK                            x       y       z     vdW  Elec       q    Type
REMARK                         _______ _______ _______ _____ _____    ______ ____
ROOT
ATOM      1  C   UNL     1       4.566   4.975  17.262  0.00  0.00    +0.000 A 
ATOM      2  C   UNL     1       3.728   3.859  17.063  0.00  0.00    +0.000 A 
ATOM      3  C   UNL     1       2.389   3.875  17.441  0.00  0.00    +0.000 A 
ATOM      4  C   UNL     1       1.849   5.012  18.036  0.00  0.00    +0.000 A 
ATOM      5  C   UNL     1       2.637   6.139  18.265  0.00  0.00    +0.000 A 
ATOM      6  C   UNL     1       3.977   6.113  17.861  0.00  0.00    +0.000 A 
ENDROOT
BRANCH   1   7
ATOM      7  C   UNL     1       6.108   4.953  16.817  0.00  0.00    +0.000 C 
ATOM      8  C   UNL     1       7.141   4.703  17.956  0.00  0.00    +0.000 C 
ATOM      9  O   UNL     1       7.784   5.972  17.741  0.00  0.00    +0.000 OA
ATOM     10  C   UNL     1       6.849   6.314  16.697  0.00  0.00    +0.000 C 
BRANCH   7  11
ATOM     11  C   UNL     1       6.308   3.982  15.638  0.00  0.00    +0.000 C 
BRANCH  11  17
ATOM     12  C   UNL     1       5.735   3.346  12.553  0.00  0.00    +0.000 C 
ATOM     13  N   UNL     1       6.687   4.269  13.106  0.00  0.00    +0.000 N 
ATOM     14  C   UNL     1       7.570   5.003  12.371  0.00  0.00    +0.000 A 
ATOM     15  N   UNL     1       8.285   5.760  13.167  0.00  0.00    +0.000 NA
ATOM     16  N   UNL     1       7.876   5.510  14.451  0.00  0.00    +0.000 NA
ATOM     17  C   UNL     1       6.926   4.592  14.421  0.00  0.00    +0.000 A 
ENDBRANCH  11  17
ENDBRANCH   7  11
ENDBRANCH   1   7
BRANCH   5  18
ATOM     18  N   UNL     1       2.152   7.316  18.869  0.00  0.00    +0.000 N 
ATOM     19  C   UNL     1       1.934   8.529  18.240  0.00  0.00    +0.000 C 
ATOM     20  O   UNL     1       2.107   8.757  17.048  0.00  0.00    +0.000 OA
ATOM     21  H   UNL     1       1.852   7.279  19.840  0.00  0.00    +0.000 HD
BRANCH  19  22
ATOM     22  C   UNL     1       1.442   9.582  19.135  0.00  0.00    +0.000 A 
ATOM     23  C   UNL     1       1.387  10.908  18.736  0.00  0.00    +0.000 A 
ATOM     24  S   UNL     1       0.803  11.890  19.996  0.00  0.00    +0.000 S 
ATOM     25  C   UNL     1       0.694  10.504  21.002  0.00  0.00    +0.000 A 
ATOM     26  N   UNL     1       1.016   9.351  20.448  0.00  0.00    +0.000 NA
BRANCH  25  27
ATOM     27  C   UNL     1       0.283  10.661  22.468  0.00  0.00    +0.000 C 
ATOM     28  C   UNL     1      -1.110  10.278  22.913  0.00  0.00    +0.000 C 
ATOM     29  C   UNL     1       0.040   9.400  23.271  0.00  0.00    +0.000 C 
ENDBRANCH  25  27
ENDBRANCH  19  22
ENDBRANCH   5  18
TORSDOF 6
ENDMDL
MODEL 2
REMARK VINA RESULT:      -8.6      1.099      1.226
REMARK  Name = 
REMARK  7 active torsions:
REMARK  status: ('A' for Active; 'I' for Inactive)
REMARK    1  A    between atoms: C_1  and  N_2
REMARK    2  A    between atoms: C_6  and  C_7
REMARK    3  A    between atoms: C_7  and  C_8
REMARK    4  A    between atoms: C_8  and  C_9
REMARK    5  A    between atoms: C_13  and  N_14
REMARK    6  A    between atoms: C_15  and  C_17
REMARK    7  A    between atoms: C_20  and  C_21
REMARK                            x       y       z     vdW  Elec       q    Type
REMARK                         _______ _______ _______ _____ _____    ______ ____
ROOT
ATOM      1  C   UNL     1       4.592   5.015  17.271  0.00  0.00    +0.000 A 
ATOM      2  C   UNL     1       3.820   3.839  17.372  0.00  0.00    +0.000 A 
ATOM      3  C   UNL     1       2.483   3.875  17.754  0.00  0.00    +0.000 A 
ATOM      4  C   UNL     1       1.878   5.093  18.052  0.00  0.00    +0.000 A 
ATOM      5  C   UNL     1       2.599   6.284  17.978  0.00  0.00    +0.000 A 
ATOM      6  C   UNL     1       3.938   6.232  17.574  0.00  0.00    +0.000 A 
ENDROOT
BRANCH   1   7
ATOM      7  C   UNL     1       6.133   4.967  16.822  0.00  0.00    +0.000 C 
ATOM      8  C   UNL     1       7.163   4.690  17.958  0.00  0.00    +0.000 C 
ATOM      9  O   UNL     1       7.829   5.949  17.750  0.00  0.00    +0.000 OA
ATOM     10  C   UNL     1       6.898   6.315  16.710  0.00  0.00    +0.000 C 
BRANCH   7  11
ATOM     11  C   UNL     1       6.312   4.001  15.636  0.00  0.00    +0.000 C 
BRANCH  11  17
ATOM     12  C   UNL     1       5.764   3.348  12.551  0.00  0.00    +0.000 C 
ATOM     13  N   UNL     1       6.706   4.279  13.105  0.00  0.00    +0.000 N 
ATOM     14  C   UNL     1       7.590   5.015  12.373  0.00  0.00    +0.000 A 
ATOM     15  N   UNL     1       8.295   5.779  13.170  0.00  0.00    +0.000 NA
ATOM     16  N   UNL     1       7.880   5.533  14.453  0.00  0.00    +0.000 NA
ATOM     17  C   UNL     1       6.935   4.609  14.421  0.00  0.00    +0.000 A 
ENDBRANCH  11  17
ENDBRANCH   7  11
ENDBRANCH   1   7
BRANCH   5  18
ATOM     18  N   UNL     1       2.047   7.546  18.275  0.00  0.00    +0.000 N 
ATOM     19  C   UNL     1       1.716   8.019  19.532  0.00  0.00    +0.000 C 
ATOM     20  O   UNL     1       1.878   7.416  20.588  0.00  0.00    +0.000 OA
ATOM     21  H   UNL     1       1.944   8.224  17.523  0.00  0.00    +0.000 HD
BRANCH  19  22
ATOM     22  C   UNL     1       1.139   9.368  19.527  0.00  0.00    +0.000 A 
ATOM     23  C   UNL     1       1.541  10.326  18.609  0.00  0.00    +0.000 A 
ATOM     24  S   UNL     1       0.718  11.791  18.874  0.00  0.00    +0.000 S 
ATOM     25  C   UNL     1      -0.090  11.076  20.207  0.00  0.00    +0.000 A 
ATOM     26  N   UNL     1       0.173   9.805  20.441  0.00  0.00    +0.000 NA
BRANCH  25  27
ATOM     27  C   UNL     1      -1.022  11.927  21.075  0.00  0.00    +0.000 C 
ATOM     28  C   UNL     1      -1.172  11.628  22.549  0.00  0.00    +0.000 C 
ATOM     29  C   UNL     1      -0.391  12.823  22.119  0.00  0.00    +0.000 C 
ENDBRANCH  25  27
ENDBRANCH  19  22
ENDBRANCH   5  18
TORSDOF 6
ENDMDL
MODEL 3
REMARK VINA RESULT:      -8.6      3.968      7.078
REMARK  Name = 
REMARK  7 active torsions:
REMARK  status: ('A' for Active; 'I' for Inactive)
REMARK    1  A    between atoms: C_1  and  N_2
REMARK    2  A    between atoms: C_6  and  C_7
REMARK    3  A    between atoms: C_7  and  C_8
REMARK    4  A    between atoms: C_8  and  C_9
REMARK    5  A    between atoms: C_13  and  N_14
REMARK    6  A    between atoms: C_15  and  C_17
REMARK    7  A    between atoms: C_20  and  C_21
REMARK                            x       y       z     vdW  Elec       q    Type
REMARK                         _______ _______ _______ _____ _____    ______ ____
ROOT
ATOM      1  C   UNL     1       5.001   4.399  17.034  0.00  0.00    +0.000 A 
ATOM      2  C   UNL     1       5.455   3.755  15.866  0.00  0.00    +0.000 A 
ATOM      3  C   UNL     1       6.479   4.288  15.089  0.00  0.00    +0.000 A 
ATOM      4  C   UNL     1       7.077   5.490  15.459  0.00  0.00    +0.000 A 
ATOM      5  C   UNL     1       6.659   6.173  16.600  0.00  0.00    +0.000 A 
ATOM      6  C   UNL     1       5.641   5.612  17.380  0.00  0.00    +0.000 A 
ENDROOT
BRANCH   1   7
ATOM      7  C   UNL     1       3.825   3.774  17.931  0.00  0.00    +0.000 C 
ATOM      8  C   UNL     1       4.162   3.554  19.436  0.00  0.00    +0.000 C 
ATOM      9  O   UNL     1       3.945   2.134  19.343  0.00  0.00    +0.000 OA
ATOM     10  C   UNL     1       3.656   2.229  17.933  0.00  0.00    +0.000 C 
BRANCH   7  11
ATOM     11  C   UNL     1       2.527   4.583  17.745  0.00  0.00    +0.000 C 
BRANCH  11  17
ATOM     12  C   UNL     1       2.936   7.752  17.939  0.00  0.00    +0.000 C 
ATOM     13  N   UNL     1       2.421   6.862  18.942  0.00  0.00    +0.000 N 
ATOM     14  C   UNL     1       2.070   7.238  20.205  0.00  0.00    +0.000 A 
ATOM     15  N   UNL     1       1.621   6.200  20.866  0.00  0.00    +0.000 NA
ATOM     16  N   UNL     1       1.692   5.115  20.030  0.00  0.00    +0.000 NA
ATOM     17  C   UNL     1       2.197   5.506  18.873  0.00  0.00    +0.000 A 
ENDBRANCH  11  17
ENDBRANCH   7  11
ENDBRANCH   1   7
BRANCH   5  18
ATOM     18  N   UNL     1       7.218   7.396  17.022  0.00  0.00    +0.000 N 
ATOM     19  C   UNL     1       7.980   7.598  18.158  0.00  0.00    +0.000 C 
ATOM     20  O   UNL     1       8.309   6.732  18.962  0.00  0.00    +0.000 OA
ATOM     21  H   UNL     1       7.135   8.207  16.413  0.00  0.00    +0.000 HD
BRANCH  19  22
ATOM     22  C   UNL     1       8.408   8.988  18.346  0.00  0.00    +0.000 A 
ATOM     23  C   UNL     1       8.027   9.991  17.469  0.00  0.00    +0.000 A 
ATOM     24  S   UNL     1       8.703  11.482  17.933  0.00  0.00    +0.000 S 
ATOM     25  C   UNL     1       9.486  10.699  19.243  0.00  0.00    +0.000 A 
ATOM     26  N   UNL     1       9.241   9.412  19.390  0.00  0.00    +0.000 NA
BRANCH  25  27
ATOM     27  C   UNL     1      10.445  11.491  20.137  0.00  0.00    +0.000 C 
ATOM     28  C   UNL     1      10.419  13.002  20.129  0.00  0.00    +0.000 C 
ATOM     29  C   UNL     1       9.853  12.265  21.295  0.00  0.00    +0.000 C 
ENDBRANCH  25  27
ENDBRANCH  19  22
ENDBRANCH   5  18
TORSDOF 6
ENDMDL
MODEL 4
REMARK VINA RESULT:      -8.5      4.473      7.449
REMARK  Name = 
REMARK  7 active torsions:
REMARK  status: ('A' for Active; 'I' for Inactive)
REMARK    1  A    between atoms: C_1  and  N_2
REMARK    2  A    between atoms: C_6  and  C_7
REMARK    3  A    between atoms: C_7  and  C_8
REMARK    4  A    between atoms: C_8  and  C_9
REMARK    5  A    between atoms: C_13  and  N_14
REMARK    6  A    between atoms: C_15  and  C_17
REMARK    7  A    between atoms: C_20  and  C_21
REMARK                            x       y       z     vdW  Elec       q    Type
REMARK                         _______ _______ _______ _____ _____    ______ ____
ROOT
ATOM      1  C   UNL     1       4.918   4.835  17.077  0.00  0.00    +0.000 A 
ATOM      2  C   UNL     1       5.366   4.173  15.916  0.00  0.00    +0.000 A 
ATOM      3  C   UNL     1       6.420   4.668  15.155  0.00  0.00    +0.000 A 
ATOM      4  C   UNL     1       7.055   5.848  15.531  0.00  0.00    +0.000 A 
ATOM      5  C   UNL     1       6.644   6.548  16.665  0.00  0.00    +0.000 A 
ATOM      6  C   UNL     1       5.595   6.025  17.431  0.00  0.00    +0.000 A 
ENDROOT
BRANCH   1   7
ATOM      7  C   UNL     1       3.707   4.254  17.956  0.00  0.00    +0.000 C 
ATOM      8  C   UNL     1       3.177   2.849  17.539  0.00  0.00    +0.000 C 
ATOM      9  O   UNL     1       1.859   3.356  17.263  0.00  0.00    +0.000 OA
ATOM     10  C   UNL     1       2.264   4.701  17.590  0.00  0.00    +0.000 C 
BRANCH   7  11
ATOM     11  C   UNL     1       4.060   4.313  19.454  0.00  0.00    +0.000 C 
BRANCH  11  17
ATOM     12  C   UNL     1       1.362   5.478  20.721  0.00  0.00    +0.000 C 
ATOM     13  N   UNL     1       1.944   4.180  20.918  0.00  0.00    +0.000 N 
ATOM     14  C   UNL     1       1.447   3.227  21.756  0.00  0.00    +0.000 A 
ATOM     15  N   UNL     1       2.194   2.152  21.695  0.00  0.00    +0.000 NA
ATOM     16  N   UNL     1       3.211   2.405  20.812  0.00  0.00    +0.000 NA
ATOM     17  C   UNL     1       3.078   3.639  20.357  0.00  0.00    +0.000 A 
ENDBRANCH  11  17
ENDBRANCH   7  11
ENDBRANCH   1   7
BRANCH   5  18
ATOM     18  N   UNL     1       7.240   7.751  17.094  0.00  0.00    +0.000 N 
ATOM     19  C   UNL     1       8.097   7.901  18.169  0.00  0.00    +0.000 C 
ATOM     20  O   UNL     1       8.492   6.999  18.900  0.00  0.00    +0.000 OA
ATOM     21  H   UNL     1       7.107   8.589  16.534  0.00  0.00    +0.000 HD
BRANCH  19  22
ATOM     22  C   UNL     1       8.543   9.282  18.385  0.00  0.00    +0.000 A 
ATOM     23  C   UNL     1       8.225  10.295  17.495  0.00  0.00    +0.000 A 
ATOM     24  S   UNL     1       8.907  11.770  17.998  0.00  0.00    +0.000 S 
ATOM     25  C   UNL     1       9.610  10.968  19.341  0.00  0.00    +0.000 A 
ATOM     26  N   UNL     1       9.332   9.684  19.469  0.00  0.00    +0.000 NA
BRANCH  25  27
ATOM     27  C   UNL     1      10.539  11.737  20.284  0.00  0.00    +0.000 C 
ATOM     28  C   UNL     1      10.540  13.248  20.286  0.00  0.00    +0.000 C 
ATOM     29  C   UNL     1       9.906  12.515  21.418  0.00  0.00    +0.000 C 
ENDBRANCH  25  27
ENDBRANCH  19  22
ENDBRANCH   5  18
TORSDOF 6
ENDMDL
MODEL 5
REMARK VINA RESULT:      -8.5      1.311      2.169
REMARK  Name = 
REMARK  7 active torsions:
REMARK  status: ('A' for Active; 'I' for Inactive)
REMARK    1  A    between atoms: C_1  and  N_2
REMARK    2  A    between atoms: C_6  and  C_7
REMARK    3  A    between atoms: C_7  and  C_8
REMARK    4  A    between atoms: C_8  and  C_9
REMARK    5  A    between atoms: C_13  and  N_14
REMARK    6  A    between atoms: C_15  and  C_17
REMARK    7  A    between atoms: C_20  and  C_21
REMARK                            x       y       z     vdW  Elec       q    Type
REMARK                         _______ _______ _______ _____ _____    ______ ____
ROOT
ATOM      1  C   UNL     1       4.535   5.034  17.223  0.00  0.00    +0.000 A 
ATOM      2  C   UNL     1       3.687   3.908  17.193  0.00  0.00    +0.000 A 
ATOM      3  C   UNL     1       2.355   3.987  17.586  0.00  0.00    +0.000 A 
ATOM      4  C   UNL     1       1.831   5.200  18.026  0.00  0.00    +0.000 A 
ATOM      5  C   UNL     1       2.629   6.341  18.085  0.00  0.00    +0.000 A 
ATOM      6  C   UNL     1       3.962   6.248  17.668  0.00  0.00    +0.000 A 
ENDROOT
BRANCH   1   7
ATOM      7  C   UNL     1       6.069   4.938  16.761  0.00  0.00    +0.000 C 
ATOM      8  C   UNL     1       7.095   4.588  17.880  0.00  0.00    +0.000 C 
ATOM      9  O   UNL     1       7.809   5.825  17.702  0.00  0.00    +0.000 OA
ATOM     10  C   UNL     1       6.887   6.257  16.680  0.00  0.00    +0.000 C 
BRANCH   7  11
ATOM     11  C   UNL     1       6.201   3.998  15.547  0.00  0.00    +0.000 C 
BRANCH  11  17
ATOM     12  C   UNL     1       5.760   3.359  12.442  0.00  0.00    +0.000 C 
ATOM     13  N   UNL     1       6.692   4.279  13.033  0.00  0.00    +0.000 N 
ATOM     14  C   UNL     1       7.611   5.006  12.337  0.00  0.00    +0.000 A 
ATOM     15  N   UNL     1       8.294   5.761  13.161  0.00  0.00    +0.000 NA
ATOM     16  N   UNL     1       7.829   5.516  14.428  0.00  0.00    +0.000 NA
ATOM     17  C   UNL     1       6.876   4.603  14.358  0.00  0.00    +0.000 A 
ENDBRANCH  11  17
ENDBRANCH   7  11
ENDBRANCH   1   7
BRANCH   5  18
ATOM     18  N   UNL     1       2.162   7.594  18.529  0.00  0.00    +0.000 N 
ATOM     19  C   UNL     1       1.683   7.887  19.793  0.00  0.00    +0.000 C 
ATOM     20  O   UNL     1       1.618   7.102  20.733  0.00  0.00    +0.000 OA
ATOM     21  H   UNL     1       2.244   8.395  17.907  0.00  0.00    +0.000 HD
BRANCH  19  22
ATOM     22  C   UNL     1       1.247   9.279  19.956  0.00  0.00    +0.000 A 
ATOM     23  C   UNL     1       0.657   9.724  21.128  0.00  0.00    +0.000 A 
ATOM     24  S   UNL     1       0.236  11.367  21.001  0.00  0.00    +0.000 S 
ATOM     25  C   UNL     1       0.828  11.377  19.391  0.00  0.00    +0.000 A 
ATOM     26  N   UNL     1       1.363  10.252  18.956  0.00  0.00    +0.000 NA
BRANCH  25  27
ATOM     27  C   UNL     1       0.676  12.636  18.534  0.00  0.00    +0.000 C 
ATOM     28  C   UNL     1       0.722  14.003  19.176  0.00  0.00    +0.000 C 
ATOM     29  C   UNL     1       1.886  13.531  18.375  0.00  0.00    +0.000 C 
ENDBRANCH  25  27
ENDBRANCH  19  22
ENDBRANCH   5  18
TORSDOF 6
ENDMDL
MODEL 6
REMARK VINA RESULT:      -8.5      2.091      2.741
REMARK  Name = 
REMARK  7 active torsions:
REMARK  status: ('A' for Active; 'I' for Inactive)
REMARK    1  A    between atoms: C_1  and  N_2
REMARK    2  A    between atoms: C_6  and  C_7
REMARK    3  A    between atoms: C_7  and  C_8
REMARK    4  A    between atoms: C_8  and  C_9
REMARK    5  A    between atoms: C_13  and  N_14
REMARK    6  A    between atoms: C_15  and  C_17
REMARK    7  A    between atoms: C_20  and  C_21
REMARK                            x       y       z     vdW  Elec       q    Type
REMARK                         _______ _______ _______ _____ _____    ______ ____
ROOT
ATOM      1  C   UNL     1       5.356   5.625  18.386  0.00  0.00    +0.000 A 
ATOM      2  C   UNL     1       4.835   4.381  18.796  0.00  0.00    +0.000 A 
ATOM      3  C   UNL     1       3.490   4.221  19.113  0.00  0.00    +0.000 A 
ATOM      4  C   UNL     1       2.624   5.309  19.033  0.00  0.00    +0.000 A 
ATOM      5  C   UNL     1       3.090   6.563  18.643  0.00  0.00    +0.000 A 
ATOM      6  C   UNL     1       4.442   6.702  18.310  0.00  0.00    +0.000 A 
ENDROOT
BRANCH   1   7
ATOM      7  C   UNL     1       6.908   5.801  18.014  0.00  0.00    +0.000 C 
ATOM      8  C   UNL     1       7.864   6.098  19.209  0.00  0.00    +0.000 C 
ATOM      9  O   UNL     1       8.270   7.362  18.653  0.00  0.00    +0.000 OA
ATOM     10  C   UNL     1       7.384   7.198  17.526  0.00  0.00    +0.000 C 
BRANCH   7  11
ATOM     11  C   UNL     1       7.393   4.604  17.175  0.00  0.00    +0.000 C 
BRANCH  11  17
ATOM     12  C   UNL     1       4.966   3.194  15.637  0.00  0.00    +0.000 C 
ATOM     13  N   UNL     1       6.004   4.019  15.085  0.00  0.00    +0.000 N 
ATOM     14  C   UNL     1       6.155   4.289  13.757  0.00  0.00    +0.000 A 
ATOM     15  N   UNL     1       7.183   5.084  13.583  0.00  0.00    +0.000 NA
ATOM     16  N   UNL     1       7.729   5.330  14.816  0.00  0.00    +0.000 NA
ATOM     17  C   UNL     1       7.034   4.669  15.725  0.00  0.00    +0.000 A 
ENDBRANCH  11  17
ENDBRANCH   7  11
ENDBRANCH   1   7
BRANCH   5  18
ATOM     18  N   UNL     1       2.266   7.703  18.551  0.00  0.00    +0.000 N 
ATOM     19  C   UNL     1       1.681   8.377  19.609  0.00  0.00    +0.000 C 
ATOM     20  O   UNL     1       1.812   8.097  20.795  0.00  0.00    +0.000 OA
ATOM     21  H   UNL     1       2.136   8.140  17.642  0.00  0.00    +0.000 HD
BRANCH  19  22
ATOM     22  C   UNL     1       0.857   9.521  19.201  0.00  0.00    +0.000 A 
ATOM     23  C   UNL     1       0.958  10.750  19.833  0.00  0.00    +0.000 A 
ATOM     24  S   UNL     1      -0.140  11.861  19.160  0.00  0.00    +0.000 S 
ATOM     25  C   UNL     1      -0.705  10.636  18.100  0.00  0.00    +0.000 A 
ATOM     26  N   UNL     1      -0.097   9.467  18.178  0.00  0.00    +0.000 NA
BRANCH  25  27
ATOM     27  C   UNL     1      -1.883  10.923  17.166  0.00  0.00    +0.000 C 
ATOM     28  C   UNL     1      -2.576   9.790  16.446  0.00  0.00    +0.000 C 
ATOM     29  C   UNL     1      -3.255  10.450  17.597  0.00  0.00    +0.000 C 
ENDBRANCH  25  27
ENDBRANCH  19  22
ENDBRANCH   5  18
TORSDOF 6
ENDMDL
MODEL 7
REMARK VINA RESULT:      -8.3      1.409      1.952
REMARK  Name = 
REMARK  7 active torsions:
REMARK  status: ('A' for Active; 'I' for Inactive)
REMARK    1  A    between atoms: C_1  and  N_2
REMARK    2  A    between atoms: C_6  and  C_7
REMARK    3  A    between atoms: C_7  and  C_8
REMARK    4  A    between atoms: C_8  and  C_9
REMARK    5  A    between atoms: C_13  and  N_14
REMARK    6  A    between atoms: C_15  and  C_17
REMARK    7  A    between atoms: C_20  and  C_21
REMARK                            x       y       z     vdW  Elec       q    Type
REMARK                         _______ _______ _______ _____ _____    ______ ____
ROOT
ATOM      1  C   UNL     1       4.966   5.366  17.601  0.00  0.00    +0.000 A 
ATOM      2  C   UNL     1       4.278   4.190  17.240  0.00  0.00    +0.000 A 
ATOM      3  C   UNL     1       2.906   4.059  17.429  0.00  0.00    +0.000 A 
ATOM      4  C   UNL     1       2.180   5.105  17.993  0.00  0.00    +0.000 A 
ATOM      5  C   UNL     1       2.814   6.286  18.378  0.00  0.00    +0.000 A 
ATOM      6  C   UNL     1       4.192   6.407  18.162  0.00  0.00    +0.000 A 
ENDROOT
BRANCH   1   7
ATOM      7  C   UNL     1       6.548   5.513  17.373  0.00  0.00    +0.000 C 
ATOM      8  C   UNL     1       7.416   5.612  18.663  0.00  0.00    +0.000 C 
ATOM      9  O   UNL     1       7.912   6.915  18.307  0.00  0.00    +0.000 OA
ATOM     10  C   UNL     1       7.114   6.936  17.106  0.00  0.00    +0.000 C 
BRANCH   7  11
ATOM     11  C   UNL     1       7.054   4.408  16.424  0.00  0.00    +0.000 C 
BRANCH  11  17
ATOM     12  C   UNL     1       5.372   3.629  13.815  0.00  0.00    +0.000 C 
ATOM     13  N   UNL     1       6.541   4.459  13.900  0.00  0.00    +0.000 N 
ATOM     14  C   UNL     1       7.175   5.017  12.830  0.00  0.00    +0.000 A 
ATOM     15  N   UNL     1       8.193   5.731  13.242  0.00  0.00    +0.000 NA
ATOM     16  N   UNL     1       8.242   5.631  14.608  0.00  0.00    +0.000 NA
ATOM     17  C   UNL     1       7.259   4.844  15.009  0.00  0.00    +0.000 A 
ENDBRANCH  11  17
ENDBRANCH   7  11
ENDBRANCH   1   7
BRANCH   5  18
ATOM     18  N   UNL     1       2.137   7.376  18.962  0.00  0.00    +0.000 N 
ATOM     19  C   UNL     1       1.887   8.598  18.363  0.00  0.00    +0.000 C 
ATOM     20  O   UNL     1       2.194   8.910  17.218  0.00  0.00    +0.000 OA
ATOM     21  H   UNL     1       1.715   7.255  19.879  0.00  0.00    +0.000 HD
BRANCH  19  22
ATOM     22  C   UNL     1       1.176   9.547  19.227  0.00  0.00    +0.000 A 
ATOM     23  C   UNL     1       0.907   9.260  20.556  0.00  0.00    +0.000 A 
ATOM     24  S   UNL     1       0.049  10.536  21.283  0.00  0.00    +0.000 S 
ATOM     25  C   UNL     1       0.055  11.371  19.785  0.00  0.00    +0.000 A 
ATOM     26  N   UNL     1       0.696  10.788  18.790  0.00  0.00    +0.000 NA
BRANCH  25  27
ATOM     27  C   UNL     1      -0.697  12.698  19.652  0.00  0.00    +0.000 C 
ATOM     28  C   UNL     1       0.023  14.007  19.880  0.00  0.00    +0.000 C 
ATOM     29  C   UNL     1      -0.336  13.600  18.491  0.00  0.00    +0.000 C 
ENDBRANCH  25  27
ENDBRANCH  19  22
ENDBRANCH   5  18
TORSDOF 6
ENDMDL
MODEL 8
REMARK VINA RESULT:      -8.3      1.425      1.733
REMARK  Name = 
REMARK  7 active torsions:
REMARK  status: ('A' for Active; 'I' for Inactive)
REMARK    1  A    between atoms: C_1  and  N_2
REMARK    2  A    between atoms: C_6  and  C_7
REMARK    3  A    between atoms: C_7  and  C_8
REMARK    4  A    between atoms: C_8  and  C_9
REMARK    5  A    between atoms: C_13  and  N_14
REMARK    6  A    between atoms: C_15  and  C_17
REMARK    7  A    between atoms: C_20  and  C_21
REMARK                            x       y       z     vdW  Elec       q    Type
REMARK                         _______ _______ _______ _____ _____    ______ ____
ROOT
ATOM      1  C   UNL     1       5.444   5.326  18.825  0.00  0.00    +0.000 A 
ATOM      2  C   UNL     1       5.013   4.006  19.071  0.00  0.00    +0.000 A 
ATOM      3  C   UNL     1       3.745   3.735  19.576  0.00  0.00    +0.000 A 
ATOM      4  C   UNL     1       2.870   4.782  19.856  0.00  0.00    +0.000 A 
ATOM      5  C   UNL     1       3.251   6.106  19.640  0.00  0.00    +0.000 A 
ATOM      6  C   UNL     1       4.523   6.359  19.113  0.00  0.00    +0.000 A 
ENDROOT
BRANCH   1   7
ATOM      7  C   UNL     1       6.905   5.631  18.234  0.00  0.00    +0.000 C 
ATOM      8  C   UNL     1       7.997   6.008  19.281  0.00  0.00    +0.000 C 
ATOM      9  O   UNL     1       8.211   7.302  18.688  0.00  0.00    +0.000 OA
ATOM     10  C   UNL     1       7.188   7.063  17.699  0.00  0.00    +0.000 C 
BRANCH   7  11
ATOM     11  C   UNL     1       7.361   4.479  17.319  0.00  0.00    +0.000 C 
BRANCH  11  17
ATOM     12  C   UNL     1       4.727   3.413  15.846  0.00  0.00    +0.000 C 
ATOM     13  N   UNL     1       5.839   4.118  15.272  0.00  0.00    +0.000 N 
ATOM     14  C   UNL     1       5.976   4.400  13.945  0.00  0.00    +0.000 A 
ATOM     15  N   UNL     1       7.087   5.067  13.748  0.00  0.00    +0.000 NA
ATOM     16  N   UNL     1       7.701   5.215  14.964  0.00  0.00    +0.000 NA
ATOM     17  C   UNL     1       6.963   4.622  15.885  0.00  0.00    +0.000 A 
ENDBRANCH  11  17
ENDBRANCH   7  11
ENDBRANCH   1   7
BRANCH   5  18
ATOM     18  N   UNL     1       2.416   7.208  19.910  0.00  0.00    +0.000 N 
ATOM     19  C   UNL     1       1.935   8.117  18.984  0.00  0.00    +0.000 C 
ATOM     20  O   UNL     1       2.144   8.084  17.776  0.00  0.00    +0.000 OA
ATOM     21  H   UNL     1       2.053   7.327  20.853  0.00  0.00    +0.000 HD
BRANCH  19  22
ATOM     22  C   UNL     1       1.101   9.173  19.567  0.00  0.00    +0.000 A 
ATOM     23  C   UNL     1       0.424  10.086  18.773  0.00  0.00    +0.000 A 
ATOM     24  S   UNL     1      -0.429  11.200  19.735  0.00  0.00    +0.000 S 
ATOM     25  C   UNL     1       0.180  10.427  21.140  0.00  0.00    +0.000 A 
ATOM     26  N   UNL     1       0.937   9.365  20.944  0.00  0.00    +0.000 NA
BRANCH  25  27
ATOM     27  C   UNL     1      -0.132  11.009  22.521  0.00  0.00    +0.000 C 
ATOM     28  C   UNL     1      -1.008  12.234  22.651  0.00  0.00    +0.000 C 
ATOM     29  C   UNL     1      -1.554  10.900  23.028  0.00  0.00    +0.000 C 
ENDBRANCH  25  27
ENDBRANCH  19  22
ENDBRANCH   5  18
TORSDOF 6
ENDMDL
MODEL 9
REMARK VINA RESULT:      -8.2      1.473      2.022
REMARK  Name = 
REMARK  7 active torsions:
REMARK  status: ('A' for Active; 'I' for Inactive)
REMARK    1  A    between atoms: C_1  and  N_2
REMARK    2  A    between atoms: C_6  and  C_7
REMARK    3  A    between atoms: C_7  and  C_8
REMARK    4  A    between atoms: C_8  and  C_9
REMARK    5  A    between atoms: C_13  and  N_14
REMARK    6  A    between atoms: C_15  and  C_17
REMARK    7  A    between atoms: C_20  and  C_21
REMARK                            x       y       z     vdW  Elec       q    Type
REMARK                         _______ _______ _______ _____ _____    ______ ____
ROOT
ATOM      1  C   UNL     1       4.598   4.858  17.229  0.00  0.00    +0.000 A 
ATOM      2  C   UNL     1       3.795   3.723  16.999  0.00  0.00    +0.000 A 
ATOM      3  C   UNL     1       2.460   3.683  17.386  0.00  0.00    +0.000 A 
ATOM      4  C   UNL     1       1.887   4.782  18.022  0.00  0.00    +0.000 A 
ATOM      5  C   UNL     1       2.640   5.926  18.281  0.00  0.00    +0.000 A 
ATOM      6  C   UNL     1       3.977   5.956  17.868  0.00  0.00    +0.000 A 
ENDROOT
BRANCH   1   7
ATOM      7  C   UNL     1       6.137   4.901  16.773  0.00  0.00    +0.000 C 
ATOM      8  C   UNL     1       7.187   4.682  17.903  0.00  0.00    +0.000 C 
ATOM      9  O   UNL     1       7.778   5.977  17.695  0.00  0.00    +0.000 OA
ATOM     10  C   UNL     1       6.823   6.291  16.660  0.00  0.00    +0.000 C 
BRANCH   7  11
ATOM     11  C   UNL     1       6.366   3.949  15.583  0.00  0.00    +0.000 C 
BRANCH  11  17
ATOM     12  C   UNL     1       5.762   3.370  12.494  0.00  0.00    +0.000 C 
ATOM     13  N   UNL     1       6.709   4.294  13.053  0.00  0.00    +0.000 N 
ATOM     14  C   UNL     1       7.574   5.053  12.323  0.00  0.00    +0.000 A 
ATOM     15  N   UNL     1       8.290   5.802  13.125  0.00  0.00    +0.000 NA
ATOM     16  N   UNL     1       7.900   5.521  14.410  0.00  0.00    +0.000 NA
ATOM     17  C   UNL     1       6.961   4.592  14.372  0.00  0.00    +0.000 A 
ENDBRANCH  11  17
ENDBRANCH   7  11
ENDBRANCH   1   7
BRANCH   5  18
ATOM     18  N   UNL     1       2.121   7.067  18.927  0.00  0.00    +0.000 N 
ATOM     19  C   UNL     1       1.643   7.125  20.224  0.00  0.00    +0.000 C 
ATOM     20  O   UNL     1       1.621   6.193  21.021  0.00  0.00    +0.000 OA
ATOM     21  H   UNL     1       2.163   7.962  18.446  0.00  0.00    +0.000 HD
BRANCH  19  22
ATOM     22  C   UNL     1       1.147   8.450  20.615  0.00  0.00    +0.000 A 
ATOM     23  C   UNL     1       1.325   8.943  21.898  0.00  0.00    +0.000 A 
ATOM     24  S   UNL     1       0.619  10.482  22.051  0.00  0.00    +0.000 S 
ATOM     25  C   UNL     1       0.091  10.384  20.422  0.00  0.00    +0.000 A 
ATOM     26  N   UNL     1       0.447   9.304  19.754  0.00  0.00    +0.000 NA
BRANCH  25  27
ATOM     27  C   UNL     1      -0.783  11.498  19.839  0.00  0.00    +0.000 C 
ATOM     28  C   UNL     1      -0.185  12.519  18.898  0.00  0.00    +0.000 C 
ATOM     29  C   UNL     1      -1.079  11.457  18.354  0.00  0.00    +0.000 C 
ENDBRANCH  25  27
ENDBRANCH  19  22
ENDBRANCH   5  18
TORSDOF 6
ENDMDL
