MODEL 1
REMARK VINA RESULT:     -10.1      0.000      0.000
REMARK  Name = 
REMARK  9 active torsions:
REMARK  status: ('A' for Active; 'I' for Inactive)
REMARK    1  A    between atoms: C_1  and  C_2
REMARK    2  A    between atoms: C_2  and  C_3
REMARK    3  A    between atoms: C_2  and  C_10
REMARK    4  A    between atoms: C_3  and  C_4
REMARK    5  A    between atoms: N_8  and  C_9
REMARK    6  A    between atoms: C_12  and  N_13
REMARK    7  A    between atoms: C_20  and  C_21
REMARK    8  A    between atoms: C_28  and  C_29
REMARK    9  A    between atoms: C_29  and  C_30
REMARK                            x       y       z     vdW  Elec       q    Type
REMARK                         _______ _______ _______ _____ _____    ______ ____
ROOT
ATOM      1  C   UNL     1       4.172   5.231  17.454  0.00  0.00    +0.000 A 
ATOM      2  C   UNL     1       3.472   6.403  17.752  0.00  0.00    +0.000 A 
ATOM      3  C   UNL     1       2.752   6.520  18.937  0.00  0.00    +0.000 A 
ATOM      4  N   UNL     1       2.673   5.499  19.805  0.00  0.00    +0.000 NA
ATOM      5  C   UNL     1       3.293   4.328  19.530  0.00  0.00    +0.000 A 
ATOM      6  C   UNL     1       4.083   4.187  18.383  0.00  0.00    +0.000 A 
ENDROOT
BRANCH   3   7
ATOM      7  N   UNL     1       2.043   7.705  19.210  0.00  0.00    +0.000 N 
ATOM      8  C   UNL     1       1.379   7.935  20.477  0.00  0.00    +0.000 C 
ATOM      9  C   UNL     1       0.927   9.354  20.379  0.00  0.00    +0.000 A 
ATOM     10  C   UNL     1       1.266   9.855  19.124  0.00  0.00    +0.000 A 
ATOM     11  C   UNL     1       0.971  11.148  18.729  0.00  0.00    +0.000 A 
ATOM     12  C   UNL     1       0.311  11.962  19.651  0.00  0.00    +0.000 A 
ATOM     13  C   UNL     1      -0.025  11.473  20.927  0.00  0.00    +0.000 A 
ATOM     14  C   UNL     1       0.277  10.154  21.315  0.00  0.00    +0.000 A 
ATOM     15  C   UNL     1       1.978   8.811  18.369  0.00  0.00    +0.000 C 
ATOM     16  O   UNL     1       2.370   8.998  17.234  0.00  0.00    +0.000 OA
BRANCH  14  17
ATOM     17  C   UNL     1      -0.086   9.668  22.693  0.00  0.00    +0.000 C 
ATOM     18  F   UNL     1       0.990   9.316  23.450  0.00  0.00    +0.000 F 
ATOM     19  F   UNL     1      -0.756  10.607  23.415  0.00  0.00    +0.000 F 
ATOM     20  F   UNL     1      -0.890   8.571  22.663  0.00  0.00    +0.000 F 
ENDBRANCH  14  17
ENDBRANCH   3   7
BRANCH   5  21
ATOM     21  C   UNL     1       2.965   3.152  20.439  0.00  0.00    +0.000 C 
ATOM     22  C   UNL     1       4.095   2.157  20.557  0.00  0.00    +0.000 C 
ATOM     23  C   UNL     1       2.011   3.294  21.608  0.00  0.00    +0.000 C 
ATOM     24  C   UNL     1       1.559   2.581  20.369  0.00  0.00    +0.000 C 
ENDBRANCH   5  21
BRANCH   1  26
ATOM     25  C   UNL     1       5.264   3.651  15.718  0.00  0.00    +0.000 C 
ATOM     26  C   UNL     1       5.009   5.100  16.183  0.00  0.00    +0.000 C 
BRANCH  26  27
ATOM     27  C   UNL     1       6.332   5.899  16.217  0.00  0.00    +0.000 C 
BRANCH  27  28
ATOM     28  C   UNL     1       7.058   5.847  17.519  0.00  0.00    +0.000 A 
ATOM     29  N   UNL     1       7.303   4.767  18.236  0.00  0.00    +0.000 NA
ATOM     30  N   UNL     1       8.071   5.130  19.316  0.00  0.00    +0.000 NA
ATOM     31  C   UNL     1       8.293   6.419  19.230  0.00  0.00    +0.000 A 
ATOM     32  N   UNL     1       7.658   6.916  18.134  0.00  0.00    +0.000 N 
ATOM     33  C   UNL     1       7.657   8.289  17.711  0.00  0.00    +0.000 C 
ENDBRANCH  27  28
ENDBRANCH  26  27
ENDBRANCH   1  26
TORSDOF 6
ENDMDL
MODEL 2
REMARK VINA RESULT:     -10.1      0.805      1.420
REMARK  Name = 
REMARK  9 active torsions:
REMARK  status: ('A' for Active; 'I' for Inactive)
REMARK    1  A    between atoms: C_1  and  C_2
REMARK    2  A    between atoms: C_2  and  C_3
REMARK    3  A    between atoms: C_2  and  C_10
REMARK    4  A    between atoms: C_3  and  C_4
REMARK    5  A    between atoms: N_8  and  C_9
REMARK    6  A    between atoms: C_12  and  N_13
REMARK    7  A    between atoms: C_20  and  C_21
REMARK    8  A    between atoms: C_28  and  C_29
REMARK    9  A    between atoms: C_29  and  C_30
REMARK                            x       y       z     vdW  Elec       q    Type
REMARK                         _______ _______ _______ _____ _____    ______ ____
ROOT
ATOM      1  C   UNL     1       4.245   5.418  17.332  0.00  0.00    +0.000 A 
ATOM      2  C   UNL     1       3.590   6.592  17.711  0.00  0.00    +0.000 A 
ATOM      3  C   UNL     1       2.608   6.572  18.698  0.00  0.00    +0.000 A 
ATOM      4  N   UNL     1       2.234   5.422  19.280  0.00  0.00    +0.000 NA
ATOM      5  C   UNL     1       2.807   4.255  18.904  0.00  0.00    +0.000 A 
ATOM      6  C   UNL     1       3.843   4.235  17.965  0.00  0.00    +0.000 A 
ENDROOT
BRANCH   3   7
ATOM      7  N   UNL     1       1.951   7.764  19.055  0.00  0.00    +0.000 N 
ATOM      8  C   UNL     1       1.306   7.937  20.341  0.00  0.00    +0.000 C 
ATOM      9  C   UNL     1       0.913   9.377  20.341  0.00  0.00    +0.000 A 
ATOM     10  C   UNL     1       1.265   9.946  19.118  0.00  0.00    +0.000 A 
ATOM     11  C   UNL     1       1.021  11.273  18.812  0.00  0.00    +0.000 A 
ATOM     12  C   UNL     1       0.402  12.050  19.791  0.00  0.00    +0.000 A 
ATOM     13  C   UNL     1       0.054  11.493  21.036  0.00  0.00    +0.000 A 
ATOM     14  C   UNL     1       0.303  10.139  21.332  0.00  0.00    +0.000 A 
ATOM     15  C   UNL     1       1.928   8.926  18.290  0.00  0.00    +0.000 C 
ATOM     16  O   UNL     1       2.319   9.171  17.166  0.00  0.00    +0.000 OA
BRANCH  14  17
ATOM     17  C   UNL     1      -0.071   9.578  22.679  0.00  0.00    +0.000 C 
ATOM     18  F   UNL     1      -0.742  10.459  23.472  0.00  0.00    +0.000 F 
ATOM     19  F   UNL     1      -0.873   8.483  22.581  0.00  0.00    +0.000 F 
ATOM     20  F   UNL     1       1.014   9.186  23.399  0.00  0.00    +0.000 F 
ENDBRANCH  14  17
ENDBRANCH   3   7
BRANCH   5  21
ATOM     21  C   UNL     1       2.168   2.979  19.435  0.00  0.00    +0.000 C 
ATOM     22  C   UNL     1       2.968   1.737  19.119  0.00  0.00    +0.000 C 
ATOM     23  C   UNL     1       1.311   2.980  20.685  0.00  0.00    +0.000 C 
ATOM     24  C   UNL     1       0.657   2.858  19.341  0.00  0.00    +0.000 C 
ENDBRANCH   5  21
BRANCH   1  26
ATOM     25  C   UNL     1       5.142   4.473  15.094  0.00  0.00    +0.000 C 
ATOM     26  C   UNL     1       5.360   5.425  16.287  0.00  0.00    +0.000 C 
BRANCH  26  27
ATOM     27  C   UNL     1       6.776   5.239  16.878  0.00  0.00    +0.000 C 
BRANCH  27  28
ATOM     28  C   UNL     1       7.406   6.489  17.392  0.00  0.00    +0.000 A 
ATOM     29  N   UNL     1       7.465   7.650  16.767  0.00  0.00    +0.000 NA
ATOM     30  N   UNL     1       8.044   8.567  17.610  0.00  0.00    +0.000 NA
ATOM     31  C   UNL     1       8.315   7.954  18.737  0.00  0.00    +0.000 A 
ATOM     32  N   UNL     1       7.955   6.646  18.639  0.00  0.00    +0.000 N 
ATOM     33  C   UNL     1       8.104   5.652  19.666  0.00  0.00    +0.000 C 
ENDBRANCH  27  28
ENDBRANCH  26  27
ENDBRANCH   1  26
TORSDOF 6
ENDMDL
MODEL 3
REMARK VINA RESULT:      -9.9      1.442      2.496
REMARK  Name = 
REMARK  9 active torsions:
REMARK  status: ('A' for Active; 'I' for Inactive)
REMARK    1  A    between atoms: C_1  and  C_2
REMARK    2  A    between atoms: C_2  and  C_3
REMARK    3  A    between atoms: C_2  and  C_10
REMARK    4  A    between atoms: C_3  and  C_4
REMARK    5  A    between atoms: N_8  and  C_9
REMARK    6  A    between atoms: C_12  and  N_13
REMARK    7  A    between atoms: C_20  and  C_21
REMARK    8  A    between atoms: C_28  and  C_29
REMARK    9  A    between atoms: C_29  and  C_30
REMARK                            x       y       z     vdW  Elec       q    Type
REMARK                         _______ _______ _______ _____ _____    ______ ____
ROOT
ATOM      1  C   UNL     1       5.293   5.558  18.803  0.00  0.00    +0.000 A 
ATOM      2  C   UNL     1       4.405   6.631  18.901  0.00  0.00    +0.000 A 
ATOM      3  C   UNL     1       3.119   6.448  19.400  0.00  0.00    +0.000 A 
ATOM      4  N   UNL     1       2.682   5.230  19.760  0.00  0.00    +0.000 NA
ATOM      5  C   UNL     1       3.493   4.155  19.632  0.00  0.00    +0.000 A 
ATOM      6  C   UNL     1       4.815   4.302  19.198  0.00  0.00    +0.000 A 
ENDROOT
BRANCH   3   7
ATOM      7  N   UNL     1       2.235   7.541  19.476  0.00  0.00    +0.000 N 
ATOM      8  C   UNL     1       1.498   7.857  20.683  0.00  0.00    +0.000 C 
ATOM      9  C   UNL     1       0.850   9.162  20.361  0.00  0.00    +0.000 A 
ATOM     10  C   UNL     1       1.159   9.513  19.048  0.00  0.00    +0.000 A 
ATOM     11  C   UNL     1       0.693  10.673  18.454  0.00  0.00    +0.000 A 
ATOM     12  C   UNL     1      -0.111  11.508  19.229  0.00  0.00    +0.000 A 
ATOM     13  C   UNL     1      -0.421  11.173  20.561  0.00  0.00    +0.000 A 
ATOM     14  C   UNL     1       0.055   9.987  21.152  0.00  0.00    +0.000 A 
ATOM     15  C   UNL     1       2.042   8.486  18.474  0.00  0.00    +0.000 C 
ATOM     16  O   UNL     1       2.444   8.555  17.330  0.00  0.00    +0.000 OA
BRANCH  14  17
ATOM     17  C   UNL     1      -0.284   9.665  22.584  0.00  0.00    +0.000 C 
ATOM     18  F   UNL     1      -0.993   8.512  22.732  0.00  0.00    +0.000 F 
ATOM     19  F   UNL     1       0.824   9.522  23.360  0.00  0.00    +0.000 F 
ATOM     20  F   UNL     1      -1.033  10.637  23.171  0.00  0.00    +0.000 F 
ENDBRANCH  14  17
ENDBRANCH   3   7
BRANCH   5  21
ATOM     21  C   UNL     1       2.854   2.789  19.836  0.00  0.00    +0.000 C 
ATOM     22  C   UNL     1       2.753   2.388  21.288  0.00  0.00    +0.000 C 
ATOM     23  C   UNL     1       1.821   2.244  18.869  0.00  0.00    +0.000 C 
ATOM     24  C   UNL     1       3.214   1.690  18.850  0.00  0.00    +0.000 C 
ENDBRANCH   5  21
BRANCH   1  26
ATOM     25  C   UNL     1       7.004   7.100  17.620  0.00  0.00    +0.000 C 
ATOM     26  C   UNL     1       6.725   5.746  18.306  0.00  0.00    +0.000 C 
BRANCH  26  27
ATOM     27  C   UNL     1       7.246   4.580  17.436  0.00  0.00    +0.000 C 
BRANCH  27  28
ATOM     28  C   UNL     1       6.917   4.690  15.985  0.00  0.00    +0.000 A 
ATOM     29  N   UNL     1       7.673   5.232  15.049  0.00  0.00    +0.000 NA
ATOM     30  N   UNL     1       7.055   5.053  13.836  0.00  0.00    +0.000 NA
ATOM     31  C   UNL     1       5.942   4.393  14.050  0.00  0.00    +0.000 A 
ATOM     32  N   UNL     1       5.802   4.164  15.384  0.00  0.00    +0.000 N 
ATOM     33  C   UNL     1       4.705   3.478  16.010  0.00  0.00    +0.000 C 
ENDBRANCH  27  28
ENDBRANCH  26  27
ENDBRANCH   1  26
TORSDOF 6
ENDMDL
MODEL 4
REMARK VINA RESULT:      -9.7      1.468      2.316
REMARK  Name = 
REMARK  9 active torsions:
REMARK  status: ('A' for Active; 'I' for Inactive)
REMARK    1  A    between atoms: C_1  and  C_2
REMARK    2  A    between atoms: C_2  and  C_3
REMARK    3  A    between atoms: C_2  and  C_10
REMARK    4  A    between atoms: C_3  and  C_4
REMARK    5  A    between atoms: N_8  and  C_9
REMARK    6  A    between atoms: C_12  and  N_13
REMARK    7  A    between atoms: C_20  and  C_21
REMARK    8  A    between atoms: C_28  and  C_29
REMARK    9  A    between atoms: C_29  and  C_30
REMARK                            x       y       z     vdW  Elec       q    Type
REMARK                         _______ _______ _______ _____ _____    ______ ____
ROOT
ATOM      1  C   UNL     1       5.301   5.187  18.883  0.00  0.00    +0.000 A 
ATOM      2  C   UNL     1       4.487   6.314  19.009  0.00  0.00    +0.000 A 
ATOM      3  C   UNL     1       3.127   6.185  19.272  0.00  0.00    +0.000 A 
ATOM      4  N   UNL     1       2.552   4.976  19.369  0.00  0.00    +0.000 NA
ATOM      5  C   UNL     1       3.295   3.857  19.201  0.00  0.00    +0.000 A 
ATOM      6  C   UNL     1       4.677   3.938  19.000  0.00  0.00    +0.000 A 
ENDROOT
BRANCH   3   7
ATOM      7  N   UNL     1       2.323   7.335  19.383  0.00  0.00    +0.000 N 
ATOM      8  C   UNL     1       1.610   7.667  20.600  0.00  0.00    +0.000 C 
ATOM      9  C   UNL     1       1.055   9.023  20.317  0.00  0.00    +0.000 A 
ATOM     10  C   UNL     1       1.388   9.390  19.015  0.00  0.00    +0.000 A 
ATOM     11  C   UNL     1       1.006  10.596  18.456  0.00  0.00    +0.000 A 
ATOM     12  C   UNL     1       0.262  11.464  19.257  0.00  0.00    +0.000 A 
ATOM     13  C   UNL     1      -0.071  11.112  20.579  0.00  0.00    +0.000 A 
ATOM     14  C   UNL     1       0.320   9.878  21.134  0.00  0.00    +0.000 A 
ATOM     15  C   UNL     1       2.197   8.320  18.409  0.00  0.00    +0.000 C 
ATOM     16  O   UNL     1       2.603   8.395  17.267  0.00  0.00    +0.000 OA
BRANCH  14  17
ATOM     17  C   UNL     1      -0.041   9.539  22.556  0.00  0.00    +0.000 C 
ATOM     18  F   UNL     1      -0.833   8.438  22.671  0.00  0.00    +0.000 F 
ATOM     19  F   UNL     1       1.054   9.291  23.324  0.00  0.00    +0.000 F 
ATOM     20  F   UNL     1      -0.715  10.546  23.174  0.00  0.00    +0.000 F 
ENDBRANCH  14  17
ENDBRANCH   3   7
BRANCH   5  21
ATOM     21  C   UNL     1       2.535   2.543  19.090  0.00  0.00    +0.000 C 
ATOM     22  C   UNL     1       3.380   1.409  18.560  0.00  0.00    +0.000 C 
ATOM     23  C   UNL     1       1.389   2.207  20.024  0.00  0.00    +0.000 C 
ATOM     24  C   UNL     1       1.095   2.602  18.607  0.00  0.00    +0.000 C 
ENDBRANCH   5  21
BRANCH   1  26
ATOM     25  C   UNL     1       7.615   5.846  19.841  0.00  0.00    +0.000 C 
ATOM     26  C   UNL     1       6.805   5.307  18.644  0.00  0.00    +0.000 C 
BRANCH  26  27
ATOM     27  C   UNL     1       7.177   6.069  17.352  0.00  0.00    +0.000 C 
BRANCH  27  28
ATOM     28  C   UNL     1       6.785   5.380  16.088  0.00  0.00    +0.000 A 
ATOM     29  N   UNL     1       7.345   4.298  15.580  0.00  0.00    +0.000 NA
ATOM     30  N   UNL     1       6.639   3.930  14.461  0.00  0.00    +0.000 NA
ATOM     31  C   UNL     1       5.654   4.783  14.315  0.00  0.00    +0.000 A 
ATOM     32  N   UNL     1       5.720   5.723  15.296  0.00  0.00    +0.000 N 
ATOM     33  C   UNL     1       4.819   6.830  15.463  0.00  0.00    +0.000 C 
ENDBRANCH  27  28
ENDBRANCH  26  27
ENDBRANCH   1  26
TORSDOF 6
ENDMDL
MODEL 5
REMARK VINA RESULT:      -9.7      0.786      1.066
REMARK  Name = 
REMARK  9 active torsions:
REMARK  status: ('A' for Active; 'I' for Inactive)
REMARK    1  A    between atoms: C_1  and  C_2
REMARK    2  A    between atoms: C_2  and  C_3
REMARK    3  A    between atoms: C_2  and  C_10
REMARK    4  A    between atoms: C_3  and  C_4
REMARK    5  A    between atoms: N_8  and  C_9
REMARK    6  A    between atoms: C_12  and  N_13
REMARK    7  A    between atoms: C_20  and  C_21
REMARK    8  A    between atoms: C_28  and  C_29
REMARK    9  A    between atoms: C_29  and  C_30
REMARK                            x       y       z     vdW  Elec       q    Type
REMARK                         _______ _______ _______ _____ _____    ______ ____
ROOT
ATOM      1  C   UNL     1       4.363   5.937  17.157  0.00  0.00    +0.000 A 
ATOM      2  C   UNL     1       3.645   7.053  17.591  0.00  0.00    +0.000 A 
ATOM      3  C   UNL     1       2.682   6.935  18.589  0.00  0.00    +0.000 A 
ATOM      4  N   UNL     1       2.386   5.743  19.130  0.00  0.00    +0.000 NA
ATOM      5  C   UNL     1       3.022   4.628  18.700  0.00  0.00    +0.000 A 
ATOM      6  C   UNL     1       4.043   4.708  17.747  0.00  0.00    +0.000 A 
ENDROOT
BRANCH   3   7
ATOM      7  N   UNL     1       1.960   8.071  19.002  0.00  0.00    +0.000 N 
ATOM      8  C   UNL     1       1.320   8.151  20.300  0.00  0.00    +0.000 C 
ATOM      9  C   UNL     1       0.844   9.564  20.364  0.00  0.00    +0.000 A 
ATOM     10  C   UNL     1       1.149  10.204  19.164  0.00  0.00    +0.000 A 
ATOM     11  C   UNL     1       0.824  11.525  18.917  0.00  0.00    +0.000 A 
ATOM     12  C   UNL     1       0.172  12.223  19.934  0.00  0.00    +0.000 A 
ATOM     13  C   UNL     1      -0.130  11.594  21.156  0.00  0.00    +0.000 A 
ATOM     14  C   UNL     1       0.200  10.246  21.393  0.00  0.00    +0.000 A 
ATOM     15  C   UNL     1       1.860   9.260  18.288  0.00  0.00    +0.000 C 
ATOM     16  O   UNL     1       2.225   9.575  17.172  0.00  0.00    +0.000 OA
BRANCH  14  17
ATOM     17  C   UNL     1      -0.126   9.608  22.718  0.00  0.00    +0.000 C 
ATOM     18  F   UNL     1      -0.817   8.440  22.607  0.00  0.00    +0.000 F 
ATOM     19  F   UNL     1       0.990   9.313  23.439  0.00  0.00    +0.000 F 
ATOM     20  F   UNL     1      -0.884  10.413  23.509  0.00  0.00    +0.000 F 
ENDBRANCH  14  17
ENDBRANCH   3   7
BRANCH   5  21
ATOM     21  C   UNL     1       2.470   3.296  19.188  0.00  0.00    +0.000 C 
ATOM     22  C   UNL     1       3.547   2.292  19.523  0.00  0.00    +0.000 C 
ATOM     23  C   UNL     1       1.152   3.207  19.931  0.00  0.00    +0.000 C 
ATOM     24  C   UNL     1       1.226   2.757  18.502  0.00  0.00    +0.000 C 
ENDBRANCH   5  21
BRANCH   1  26
ATOM     25  C   UNL     1       5.001   5.771  14.652  0.00  0.00    +0.000 C 
ATOM     26  C   UNL     1       5.459   6.052  16.098  0.00  0.00    +0.000 C 
BRANCH  26  27
ATOM     27  C   UNL     1       6.738   5.250  16.428  0.00  0.00    +0.000 C 
BRANCH  27  28
ATOM     28  C   UNL     1       7.305   5.511  17.783  0.00  0.00    +0.000 A 
ATOM     29  N   UNL     1       7.532   4.613  18.723  0.00  0.00    +0.000 NA
ATOM     30  N   UNL     1       8.140   5.240  19.782  0.00  0.00    +0.000 NA
ATOM     31  C   UNL     1       8.288   6.503  19.465  0.00  0.00    +0.000 A 
ATOM     32  N   UNL     1       7.757   6.725  18.232  0.00  0.00    +0.000 N 
ATOM     33  C   UNL     1       7.719   7.987  17.546  0.00  0.00    +0.000 C 
ENDBRANCH  27  28
ENDBRANCH  26  27
ENDBRANCH   1  26
TORSDOF 6
ENDMDL
MODEL 6
REMARK VINA RESULT:      -9.6      1.828      2.727
REMARK  Name = 
REMARK  9 active torsions:
REMARK  status: ('A' for Active; 'I' for Inactive)
REMARK    1  A    between atoms: C_1  and  C_2
REMARK    2  A    between atoms: C_2  and  C_3
REMARK    3  A    between atoms: C_2  and  C_10
REMARK    4  A    between atoms: C_3  and  C_4
REMARK    5  A    between atoms: N_8  and  C_9
REMARK    6  A    between atoms: C_12  and  N_13
REMARK    7  A    between atoms: C_20  and  C_21
REMARK    8  A    between atoms: C_28  and  C_29
REMARK    9  A    between atoms: C_29  and  C_30
REMARK                            x       y       z     vdW  Elec       q    Type
REMARK                         _______ _______ _______ _____ _____    ______ ____
ROOT
ATOM      1  C   UNL     1       4.255   6.035  17.425  0.00  0.00    +0.000 A 
ATOM      2  C   UNL     1       3.499   7.138  17.827  0.00  0.00    +0.000 A 
ATOM      3  C   UNL     1       2.557   7.022  18.845  0.00  0.00    +0.000 A 
ATOM      4  N   UNL     1       2.319   5.842  19.439  0.00  0.00    +0.000 NA
ATOM      5  C   UNL     1       2.993   4.737  19.043  0.00  0.00    +0.000 A 
ATOM      6  C   UNL     1       3.995   4.819  18.069  0.00  0.00    +0.000 A 
ENDROOT
BRANCH   3   7
ATOM      7  N   UNL     1       1.796   8.144  19.225  0.00  0.00    +0.000 N 
ATOM      8  C   UNL     1       1.148   8.238  20.518  0.00  0.00    +0.000 C 
ATOM      9  C   UNL     1       0.625   9.635  20.543  0.00  0.00    +0.000 A 
ATOM     10  C   UNL     1       0.913  10.252  19.327  0.00  0.00    +0.000 A 
ATOM     11  C   UNL     1       0.545  11.555  19.042  0.00  0.00    +0.000 A 
ATOM     12  C   UNL     1      -0.134  12.258  20.038  0.00  0.00    +0.000 A 
ATOM     13  C   UNL     1      -0.420  11.652  21.276  0.00  0.00    +0.000 A 
ATOM     14  C   UNL     1      -0.045  10.323  21.550  0.00  0.00    +0.000 A 
ATOM     15  C   UNL     1       1.659   9.309  18.478  0.00  0.00    +0.000 C 
ATOM     16  O   UNL     1       2.018   9.606  17.355  0.00  0.00    +0.000 OA
BRANCH  14  17
ATOM     17  C   UNL     1      -0.354   9.710  22.891  0.00  0.00    +0.000 C 
ATOM     18  F   UNL     1      -1.138  10.494  23.683  0.00  0.00    +0.000 F 
ATOM     19  F   UNL     1      -1.009   8.523  22.780  0.00  0.00    +0.000 F 
ATOM     20  F   UNL     1       0.767   9.456  23.617  0.00  0.00    +0.000 F 
ENDBRANCH  14  17
ENDBRANCH   3   7
BRANCH   5  21
ATOM     21  C   UNL     1       2.503   3.405  19.593  0.00  0.00    +0.000 C 
ATOM     22  C   UNL     1       1.479   2.735  18.708  0.00  0.00    +0.000 C 
ATOM     23  C   UNL     1       3.391   2.527  20.452  0.00  0.00    +0.000 C 
ATOM     24  C   UNL     1       2.279   3.304  21.092  0.00  0.00    +0.000 C 
ENDBRANCH   5  21
BRANCH   1  26
ATOM     25  C   UNL     1       5.008   7.148  15.212  0.00  0.00    +0.000 C 
ATOM     26  C   UNL     1       5.329   6.152  16.344  0.00  0.00    +0.000 C 
BRANCH  26  27
ATOM     27  C   UNL     1       5.783   4.795  15.761  0.00  0.00    +0.000 C 
BRANCH  27  28
ATOM     28  C   UNL     1       6.671   4.896  14.567  0.00  0.00    +0.000 A 
ATOM     29  N   UNL     1       7.831   5.522  14.505  0.00  0.00    +0.000 NA
ATOM     30  N   UNL     1       8.374   5.305  13.262  0.00  0.00    +0.000 NA
ATOM     31  C   UNL     1       7.546   4.539  12.595  0.00  0.00    +0.000 A 
ATOM     32  N   UNL     1       6.454   4.277  13.363  0.00  0.00    +0.000 N 
ATOM     33  C   UNL     1       5.323   3.480  12.974  0.00  0.00    +0.000 C 
ENDBRANCH  27  28
ENDBRANCH  26  27
ENDBRANCH   1  26
TORSDOF 6
ENDMDL
MODEL 7
REMARK VINA RESULT:      -9.5      1.661      2.587
REMARK  Name = 
REMARK  9 active torsions:
REMARK  status: ('A' for Active; 'I' for Inactive)
REMARK    1  A    between atoms: C_1  and  C_2
REMARK    2  A    between atoms: C_2  and  C_3
REMARK    3  A    between atoms: C_2  and  C_10
REMARK    4  A    between atoms: C_3  and  C_4
REMARK    5  A    between atoms: N_8  and  C_9
REMARK    6  A    between atoms: C_12  and  N_13
REMARK    7  A    between atoms: C_20  and  C_21
REMARK    8  A    between atoms: C_28  and  C_29
REMARK    9  A    between atoms: C_29  and  C_30
REMARK                            x       y       z     vdW  Elec       q    Type
REMARK                         _______ _______ _______ _____ _____    ______ ____
ROOT
ATOM      1  C   UNL     1       4.337   5.402  18.058  0.00  0.00    +0.000 A 
ATOM      2  C   UNL     1       3.641   6.586  18.310  0.00  0.00    +0.000 A 
ATOM      3  C   UNL     1       2.562   6.605  19.189  0.00  0.00    +0.000 A 
ATOM      4  N   UNL     1       2.135   5.481  19.786  0.00  0.00    +0.000 NA
ATOM      5  C   UNL     1       2.748   4.302  19.528  0.00  0.00    +0.000 A 
ATOM      6  C   UNL     1       3.877   4.247  18.704  0.00  0.00    +0.000 A 
ENDROOT
BRANCH   3   7
ATOM      7  N   UNL     1       1.866   7.807  19.417  0.00  0.00    +0.000 N 
ATOM      8  C   UNL     1       1.180   8.079  20.664  0.00  0.00    +0.000 C 
ATOM      9  C   UNL     1       0.753   9.502  20.521  0.00  0.00    +0.000 A 
ATOM     10  C   UNL     1       1.126   9.965  19.261  0.00  0.00    +0.000 A 
ATOM     11  C   UNL     1       0.858  11.252  18.827  0.00  0.00    +0.000 A 
ATOM     12  C   UNL     1       0.193  12.099  19.714  0.00  0.00    +0.000 A 
ATOM     13  C   UNL     1      -0.177  11.648  20.995  0.00  0.00    +0.000 A 
ATOM     14  C   UNL     1       0.096  10.335  21.422  0.00  0.00    +0.000 A 
ATOM     15  C   UNL     1       1.836   8.892  18.548  0.00  0.00    +0.000 C 
ATOM     16  O   UNL     1       2.254   9.043  17.417  0.00  0.00    +0.000 OA
BRANCH  14  17
ATOM     17  C   UNL     1      -0.302   9.890  22.805  0.00  0.00    +0.000 C 
ATOM     18  F   UNL     1      -0.982  10.836  23.509  0.00  0.00    +0.000 F 
ATOM     19  F   UNL     1      -1.106   8.792  22.785  0.00  0.00    +0.000 F 
ATOM     20  F   UNL     1       0.770   9.557  23.572  0.00  0.00    +0.000 F 
ENDBRANCH  14  17
ENDBRANCH   3   7
BRANCH   5  21
ATOM     21  C   UNL     1       2.064   3.047  20.052  0.00  0.00    +0.000 C 
ATOM     22  C   UNL     1       2.385   2.753  21.498  0.00  0.00    +0.000 C 
ATOM     23  C   UNL     1       0.727   2.586  19.507  0.00  0.00    +0.000 C 
ATOM     24  C   UNL     1       1.976   1.853  19.117  0.00  0.00    +0.000 C 
ENDBRANCH   5  21
BRANCH   1  26
ATOM     25  C   UNL     1       6.301   6.712  16.993  0.00  0.00    +0.000 C 
ATOM     26  C   UNL     1       5.555   5.369  17.136  0.00  0.00    +0.000 C 
BRANCH  26  27
ATOM     27  C   UNL     1       5.274   4.755  15.746  0.00  0.00    +0.000 C 
BRANCH  27  28
ATOM     28  C   UNL     1       6.370   4.937  14.751  0.00  0.00    +0.000 A 
ATOM     29  N   UNL     1       7.494   5.603  14.938  0.00  0.00    +0.000 NA
ATOM     30  N   UNL     1       8.273   5.459  13.816  0.00  0.00    +0.000 NA
ATOM     31  C   UNL     1       7.620   4.696  12.974  0.00  0.00    +0.000 A 
ATOM     32  N   UNL     1       6.413   4.365  13.505  0.00  0.00    +0.000 N 
ATOM     33  C   UNL     1       5.410   3.550  12.877  0.00  0.00    +0.000 C 
ENDBRANCH  27  28
ENDBRANCH  26  27
ENDBRANCH   1  26
TORSDOF 6
ENDMDL
MODEL 8
REMARK VINA RESULT:      -9.2      1.795      2.511
REMARK  Name = 
REMARK  9 active torsions:
REMARK  status: ('A' for Active; 'I' for Inactive)
REMARK    1  A    between atoms: C_1  and  C_2
REMARK    2  A    between atoms: C_2  and  C_3
REMARK    3  A    between atoms: C_2  and  C_10
REMARK    4  A    between atoms: C_3  and  C_4
REMARK    5  A    between atoms: N_8  and  C_9
REMARK    6  A    between atoms: C_12  and  N_13
REMARK    7  A    between atoms: C_20  and  C_21
REMARK    8  A    between atoms: C_28  and  C_29
REMARK    9  A    between atoms: C_29  and  C_30
REMARK                            x       y       z     vdW  Elec       q    Type
REMARK                         _______ _______ _______ _____ _____    ______ ____
ROOT
ATOM      1  C   UNL     1       4.903   5.532  17.866  0.00  0.00    +0.000 A 
ATOM      2  C   UNL     1       4.126   6.652  18.167  0.00  0.00    +0.000 A 
ATOM      3  C   UNL     1       2.917   6.519  18.844  0.00  0.00    +0.000 A 
ATOM      4  N   UNL     1       2.445   5.311  19.189  0.00  0.00    +0.000 NA
ATOM      5  C   UNL     1       3.142   4.196  18.869  0.00  0.00    +0.000 A 
ATOM      6  C   UNL     1       4.392   4.285  18.248  0.00  0.00    +0.000 A 
ENDROOT
BRANCH   3   7
ATOM      7  N   UNL     1       2.144   7.661  19.125  0.00  0.00    +0.000 N 
ATOM      8  C   UNL     1       1.499   7.863  20.407  0.00  0.00    +0.000 C 
ATOM      9  C   UNL     1       0.958   9.250  20.308  0.00  0.00    +0.000 A 
ATOM     10  C   UNL     1       1.234   9.758  19.041  0.00  0.00    +0.000 A 
ATOM     11  C   UNL     1       0.848  11.026  18.642  0.00  0.00    +0.000 A 
ATOM     12  C   UNL     1       0.164  11.807  19.573  0.00  0.00    +0.000 A 
ATOM     13  C   UNL     1      -0.110  11.312  20.862  0.00  0.00    +0.000 A 
ATOM     14  C   UNL     1       0.283  10.018  21.253  0.00  0.00    +0.000 A 
ATOM     15  C   UNL     1       1.989   8.752  18.277  0.00  0.00    +0.000 C 
ATOM     16  O   UNL     1       2.339   8.950  17.130  0.00  0.00    +0.000 OA
BRANCH  14  17
ATOM     17  C   UNL     1      -0.013   9.525  22.645  0.00  0.00    +0.000 C 
ATOM     18  F   UNL     1       1.098   9.174  23.350  0.00  0.00    +0.000 F 
ATOM     19  F   UNL     1      -0.653  10.458  23.401  0.00  0.00    +0.000 F 
ATOM     20  F   UNL     1      -0.814   8.425  22.647  0.00  0.00    +0.000 F 
ENDBRANCH  14  17
ENDBRANCH   3   7
BRANCH   5  21
ATOM     21  C   UNL     1       2.434   2.864  19.080  0.00  0.00    +0.000 C 
ATOM     22  C   UNL     1       3.264   1.675  18.658  0.00  0.00    +0.000 C 
ATOM     23  C   UNL     1       1.418   2.672  20.188  0.00  0.00    +0.000 C 
ATOM     24  C   UNL     1       0.948   2.802  18.770  0.00  0.00    +0.000 C 
ENDBRANCH   5  21
BRANCH   1  26
ATOM     25  C   UNL     1       7.315   6.472  17.942  0.00  0.00    +0.000 C 
ATOM     26  C   UNL     1       6.256   5.660  17.168  0.00  0.00    +0.000 C 
BRANCH  26  27
ATOM     27  C   UNL     1       6.164   6.145  15.704  0.00  0.00    +0.000 C 
BRANCH  27  28
ATOM     28  C   UNL     1       6.111   5.053  14.688  0.00  0.00    +0.000 A 
ATOM     29  N   UNL     1       5.169   4.137  14.572  0.00  0.00    +0.000 NA
ATOM     30  N   UNL     1       5.440   3.376  13.461  0.00  0.00    +0.000 NA
ATOM     31  C   UNL     1       6.532   3.850  12.912  0.00  0.00    +0.000 A 
ATOM     32  N   UNL     1       7.002   4.885  13.659  0.00  0.00    +0.000 N 
ATOM     33  C   UNL     1       8.185   5.654  13.384  0.00  0.00    +0.000 C 
ENDBRANCH  27  28
ENDBRANCH  26  27
ENDBRANCH   1  26
TORSDOF 6
ENDMDL
MODEL 9
REMARK VINA RESULT:      -9.2      1.491      2.395
REMARK  Name = 
REMARK  9 active torsions:
REMARK  status: ('A' for Active; 'I' for Inactive)
REMARK    1  A    between atoms: C_1  and  C_2
REMARK    2  A    between atoms: C_2  and  C_3
REMARK    3  A    between atoms: C_2  and  C_10
REMARK    4  A    between atoms: C_3  and  C_4
REMARK    5  A    between atoms: N_8  and  C_9
REMARK    6  A    between atoms: C_12  and  N_13
REMARK    7  A    between atoms: C_20  and  C_21
REMARK    8  A    between atoms: C_28  and  C_29
REMARK    9  A    between atoms: C_29  and  C_30
REMARK                            x       y       z     vdW  Elec       q    Type
REMARK                         _______ _______ _______ _____ _____    ______ ____
ROOT
ATOM      1  C   UNL     1       4.812   5.455  18.704  0.00  0.00    +0.000 A 
ATOM      2  C   UNL     1       4.005   6.588  18.829  0.00  0.00    +0.000 A 
ATOM      3  C   UNL     1       2.808   6.535  19.537  0.00  0.00    +0.000 A 
ATOM      4  N   UNL     1       2.375   5.388  20.082  0.00  0.00    +0.000 NA
ATOM      5  C   UNL     1       3.101   4.254  19.939  0.00  0.00    +0.000 A 
ATOM      6  C   UNL     1       4.341   4.274  19.293  0.00  0.00    +0.000 A 
ENDROOT
BRANCH   3   7
ATOM      7  N   UNL     1       2.004   7.686  19.639  0.00  0.00    +0.000 N 
ATOM      8  C   UNL     1       1.273   8.015  20.846  0.00  0.00    +0.000 C 
ATOM      9  C   UNL     1       0.725   9.373  20.559  0.00  0.00    +0.000 A 
ATOM     10  C   UNL     1       1.079   9.744  19.264  0.00  0.00    +0.000 A 
ATOM     11  C   UNL     1       0.707  10.953  18.703  0.00  0.00    +0.000 A 
ATOM     12  C   UNL     1      -0.048  11.819  19.495  0.00  0.00    +0.000 A 
ATOM     13  C   UNL     1      -0.401  11.463  20.810  0.00  0.00    +0.000 A 
ATOM     14  C   UNL     1      -0.021  10.227  21.367  0.00  0.00    +0.000 A 
ATOM     15  C   UNL     1       1.895   8.675  18.667  0.00  0.00    +0.000 C 
ATOM     16  O   UNL     1       2.319   8.753  17.531  0.00  0.00    +0.000 OA
BRANCH  14  17
ATOM     17  C   UNL     1      -0.405   9.884  22.782  0.00  0.00    +0.000 C 
ATOM     18  F   UNL     1       0.660   9.637  23.594  0.00  0.00    +0.000 F 
ATOM     19  F   UNL     1      -1.108  10.881  23.385  0.00  0.00    +0.000 F 
ATOM     20  F   UNL     1      -1.189   8.774  22.854  0.00  0.00    +0.000 F 
ENDBRANCH  14  17
ENDBRANCH   3   7
BRANCH   5  21
ATOM     21  C   UNL     1       2.434   2.957  20.377  0.00  0.00    +0.000 C 
ATOM     22  C   UNL     1       1.626   2.304  19.281  0.00  0.00    +0.000 C 
ATOM     23  C   UNL     1       3.048   2.069  21.441  0.00  0.00    +0.000 C 
ATOM     24  C   UNL     1       1.849   2.906  21.778  0.00  0.00    +0.000 C 
ENDBRANCH   5  21
BRANCH   1  26
ATOM     25  C   UNL     1       7.346   5.968  18.832  0.00  0.00    +0.000 C 
ATOM     26  C   UNL     1       6.153   5.503  17.973  0.00  0.00    +0.000 C 
BRANCH  26  27
ATOM     27  C   UNL     1       6.112   6.276  16.636  0.00  0.00    +0.000 C 
BRANCH  27  28
ATOM     28  C   UNL     1       6.379   5.444  15.427  0.00  0.00    +0.000 A 
ATOM     29  N   UNL     1       7.410   5.557  14.611  0.00  0.00    +0.000 NA
ATOM     30  N   UNL     1       7.336   4.552  13.678  0.00  0.00    +0.000 NA
ATOM     31  C   UNL     1       6.272   3.835  13.951  0.00  0.00    +0.000 A 
ATOM     32  N   UNL     1       5.628   4.371  15.023  0.00  0.00    +0.000 N 
ATOM     33  C   UNL     1       4.416   3.872  15.613  0.00  0.00    +0.000 C 
ENDBRANCH  27  28
ENDBRANCH  26  27
ENDBRANCH   1  26
TORSDOF 6
ENDMDL
