MODEL 1
REMARK VINA RESULT:      -9.5      0.000      0.000
REMARK  Name = 
REMARK  7 active torsions:
REMARK  status: ('A' for Active; 'I' for Inactive)
REMARK    1  A    between atoms: C_1  and  C_2
REMARK    2  A    between atoms: C_2  and  S_3
REMARK    3  A    between atoms: C_2  and  C_10
REMARK    4  A    between atoms: S_3  and  C_4
REMARK    5  A    between atoms: N_8  and  C_9
REMARK    6  A    between atoms: C_14  and  N_15
REMARK    7  A    between atoms: C_22  and  C_23
REMARK                            x       y       z     vdW  Elec       q    Type
REMARK                         _______ _______ _______ _____ _____    ______ ____
ROOT
ATOM      1  C   UNL     1       4.956   5.035  18.214  0.00  0.00    +0.000 A 
ATOM      2  C   UNL     1       4.593   3.882  18.916  0.00  0.00    +0.000 A 
ATOM      3  C   UNL     1       3.480   3.884  19.769  0.00  0.00    +0.000 A 
ATOM      4  C   UNL     1       2.691   5.031  19.925  0.00  0.00    +0.000 A 
ATOM      5  C   UNL     1       3.025   6.200  19.249  0.00  0.00    +0.000 A 
ATOM      6  C   UNL     1       4.184   6.188  18.446  0.00  0.00    +0.000 A 
ENDROOT
BRANCH   5   7
ATOM      7  N   UNL     1       2.225   7.373  19.282  0.00  0.00    +0.000 N 
ATOM      8  C   UNL     1       1.499   7.704  20.490  0.00  0.00    +0.000 C 
ATOM      9  C   UNL     1       0.992   9.075  20.249  0.00  0.00    +0.000 A 
ATOM     10  C   UNL     1       1.292   9.460  18.946  0.00  0.00    +0.000 A 
ATOM     11  C   UNL     1       0.877  10.677  18.445  0.00  0.00    +0.000 A 
ATOM     12  C   UNL     1       0.141  11.513  19.294  0.00  0.00    +0.000 A 
ATOM     13  C   UNL     1      -0.125  11.141  20.627  0.00  0.00    +0.000 A 
ATOM     14  C   UNL     1       0.313   9.908  21.133  0.00  0.00    +0.000 A 
ATOM     15  C   UNL     1       2.117   8.392  18.326  0.00  0.00    +0.000 C 
ATOM     16  O   UNL     1       2.575   8.478  17.199  0.00  0.00    +0.000 OA
BRANCH  14  17
ATOM     17  C   UNL     1       0.092   9.535  22.579  0.00  0.00    +0.000 C 
ATOM     18  F   UNL     1      -0.492  10.520  23.319  0.00  0.00    +0.000 F 
ATOM     19  F   UNL     1      -0.721   8.451  22.714  0.00  0.00    +0.000 F 
ATOM     20  F   UNL     1       1.248   9.228  23.226  0.00  0.00    +0.000 F 
ENDBRANCH  14  17
ENDBRANCH   5   7
BRANCH   1  22
ATOM     21  C   UNL     1       7.453   4.649  17.750  0.00  0.00    +0.000 C 
ATOM     22  C   UNL     1       6.103   5.112  17.200  0.00  0.00    +0.000 C 
BRANCH  22  23
ATOM     23  S   UNL     1       5.681   4.067  15.731  0.00  0.00    +0.000 S 
BRANCH  23  24
ATOM     24  C   UNL     1       6.734   4.670  14.503  0.00  0.00    +0.000 A 
ATOM     25  N   UNL     1       7.710   5.539  14.636  0.00  0.00    +0.000 NA
ATOM     26  N   UNL     1       8.293   5.702  13.395  0.00  0.00    +0.000 NA
ATOM     27  C   UNL     1       7.647   4.937  12.545  0.00  0.00    +0.000 A 
ATOM     28  N   UNL     1       6.654   4.271  13.199  0.00  0.00    +0.000 N 
ATOM     29  C   UNL     1       5.744   3.322  12.616  0.00  0.00    +0.000 C 
ENDBRANCH  23  24
ENDBRANCH  22  23
ENDBRANCH   1  22
TORSDOF 5
ENDMDL
MODEL 2
REMARK VINA RESULT:      -8.9      4.410      9.510
REMARK  Name = 
REMARK  7 active torsions:
REMARK  status: ('A' for Active; 'I' for Inactive)
REMARK    1  A    between atoms: C_1  and  C_2
REMARK    2  A    between atoms: C_2  and  S_3
REMARK    3  A    between atoms: C_2  and  C_10
REMARK    4  A    between atoms: S_3  and  C_4
REMARK    5  A    between atoms: N_8  and  C_9
REMARK    6  A    between atoms: C_14  and  N_15
REMARK    7  A    between atoms: C_22  and  C_23
REMARK                            x       y       z     vdW  Elec       q    Type
REMARK                         _______ _______ _______ _____ _____    ______ ____
ROOT
ATOM      1  C   UNL     1      -0.003  10.045  20.770  0.00  0.00    +0.000 A 
ATOM      2  C   UNL     1      -0.249  10.884  19.680  0.00  0.00    +0.000 A 
ATOM      3  C   UNL     1       0.353  10.640  18.438  0.00  0.00    +0.000 A 
ATOM      4  C   UNL     1       1.199   9.540  18.249  0.00  0.00    +0.000 A 
ATOM      5  C   UNL     1       1.475   8.685  19.312  0.00  0.00    +0.000 A 
ATOM      6  C   UNL     1       0.904   8.990  20.566  0.00  0.00    +0.000 A 
ENDROOT
BRANCH   5   7
ATOM      7  N   UNL     1       2.245   7.500  19.179  0.00  0.00    +0.000 N 
ATOM      8  C   UNL     1       2.000   6.390  20.075  0.00  0.00    +0.000 C 
ATOM      9  C   UNL     1       2.787   5.274  19.501  0.00  0.00    +0.000 A 
ATOM     10  C   UNL     1       3.536   5.739  18.424  0.00  0.00    +0.000 A 
ATOM     11  C   UNL     1       4.405   4.909  17.745  0.00  0.00    +0.000 A 
ATOM     12  C   UNL     1       4.509   3.581  18.178  0.00  0.00    +0.000 A 
ATOM     13  C   UNL     1       3.718   3.100  19.241  0.00  0.00    +0.000 A 
ATOM     14  C   UNL     1       2.826   3.947  19.917  0.00  0.00    +0.000 A 
ATOM     15  C   UNL     1       3.168   7.157  18.182  0.00  0.00    +0.000 C 
ATOM     16  O   UNL     1       3.627   7.814  17.262  0.00  0.00    +0.000 OA
BRANCH  14  17
ATOM     17  C   UNL     1       1.927   3.420  21.008  0.00  0.00    +0.000 C 
ATOM     18  F   UNL     1       2.236   3.887  22.251  0.00  0.00    +0.000 F 
ATOM     19  F   UNL     1       0.622   3.757  20.810  0.00  0.00    +0.000 F 
ATOM     20  F   UNL     1       1.959   2.064  21.108  0.00  0.00    +0.000 F 
ENDBRANCH  14  17
ENDBRANCH   5   7
BRANCH   1  22
ATOM     21  C   UNL     1       0.076   9.478  23.275  0.00  0.00    +0.000 C 
ATOM     22  C   UNL     1      -0.674  10.181  22.142  0.00  0.00    +0.000 C 
BRANCH  22  23
ATOM     23  S   UNL     1      -0.826  11.976  22.566  0.00  0.00    +0.000 S 
BRANCH  23  24
ATOM     24  C   UNL     1      -2.531  12.205  22.710  0.00  0.00    +0.000 A 
ATOM     25  N   UNL     1      -3.300  11.897  23.729  0.00  0.00    +0.000 NA
ATOM     26  N   UNL     1      -4.587  12.282  23.410  0.00  0.00    +0.000 NA
ATOM     27  C   UNL     1      -4.561  12.801  22.203  0.00  0.00    +0.000 A 
ATOM     28  N   UNL     1      -3.287  12.770  21.722  0.00  0.00    +0.000 N 
ATOM     29  C   UNL     1      -2.850  13.268  20.446  0.00  0.00    +0.000 C 
ENDBRANCH  23  24
ENDBRANCH  22  23
ENDBRANCH   1  22
TORSDOF 5
ENDMDL
MODEL 3
REMARK VINA RESULT:      -8.9      1.795      2.721
REMARK  Name = 
REMARK  7 active torsions:
REMARK  status: ('A' for Active; 'I' for Inactive)
REMARK    1  A    between atoms: C_1  and  C_2
REMARK    2  A    between atoms: C_2  and  S_3
REMARK    3  A    between atoms: C_2  and  C_10
REMARK    4  A    between atoms: S_3  and  C_4
REMARK    5  A    between atoms: N_8  and  C_9
REMARK    6  A    between atoms: C_14  and  N_15
REMARK    7  A    between atoms: C_22  and  C_23
REMARK                            x       y       z     vdW  Elec       q    Type
REMARK                         _______ _______ _______ _____ _____    ______ ____
ROOT
ATOM      1  C   UNL     1       4.266   5.103  17.756  0.00  0.00    +0.000 A 
ATOM      2  C   UNL     1       4.156   4.083  18.706  0.00  0.00    +0.000 A 
ATOM      3  C   UNL     1       3.379   4.261  19.860  0.00  0.00    +0.000 A 
ATOM      4  C   UNL     1       2.677   5.452  20.082  0.00  0.00    +0.000 A 
ATOM      5  C   UNL     1       2.768   6.493  19.164  0.00  0.00    +0.000 A 
ATOM      6  C   UNL     1       3.605   6.310  18.043  0.00  0.00    +0.000 A 
ENDROOT
BRANCH   5   7
ATOM      7  N   UNL     1       2.015   7.693  19.270  0.00  0.00    +0.000 N 
ATOM      8  C   UNL     1       1.272   7.959  20.483  0.00  0.00    +0.000 C 
ATOM      9  C   UNL     1       0.827   9.365  20.340  0.00  0.00    +0.000 A 
ATOM     10  C   UNL     1       1.177   9.837  19.078  0.00  0.00    +0.000 A 
ATOM     11  C   UNL     1       0.824  11.106  18.665  0.00  0.00    +0.000 A 
ATOM     12  C   UNL     1       0.101  11.904  19.561  0.00  0.00    +0.000 A 
ATOM     13  C   UNL     1      -0.215  11.441  20.854  0.00  0.00    +0.000 A 
ATOM     14  C   UNL     1       0.160  10.154  21.271  0.00  0.00    +0.000 A 
ATOM     15  C   UNL     1       1.974   8.786  18.395  0.00  0.00    +0.000 C 
ATOM     16  O   UNL     1       2.465   8.940  17.289  0.00  0.00    +0.000 OA
BRANCH  14  17
ATOM     17  C   UNL     1      -0.114   9.680  22.677  0.00  0.00    +0.000 C 
ATOM     18  F   UNL     1      -0.908   8.574  22.741  0.00  0.00    +0.000 F 
ATOM     19  F   UNL     1       1.027   9.345  23.341  0.00  0.00    +0.000 F 
ATOM     20  F   UNL     1      -0.734  10.620  23.439  0.00  0.00    +0.000 F 
ENDBRANCH  14  17
ENDBRANCH   5   7
BRANCH   1  22
ATOM     21  C   UNL     1       4.946   6.225  15.547  0.00  0.00    +0.000 C 
ATOM     22  C   UNL     1       5.022   4.977  16.428  0.00  0.00    +0.000 C 
BRANCH  22  23
ATOM     23  S   UNL     1       6.803   4.616  16.779  0.00  0.00    +0.000 S 
BRANCH  23  24
ATOM     24  C   UNL     1       7.419   6.142  17.301  0.00  0.00    +0.000 A 
ATOM     25  N   UNL     1       7.649   7.209  16.570  0.00  0.00    +0.000 NA
ATOM     26  N   UNL     1       8.114   8.199  17.414  0.00  0.00    +0.000 NA
ATOM     27  C   UNL     1       8.161   7.699  18.628  0.00  0.00    +0.000 A 
ATOM     28  N   UNL     1       7.737   6.404  18.604  0.00  0.00    +0.000 N 
ATOM     29  C   UNL     1       7.624   5.528  19.738  0.00  0.00    +0.000 C 
ENDBRANCH  23  24
ENDBRANCH  22  23
ENDBRANCH   1  22
TORSDOF 5
ENDMDL
MODEL 4
REMARK VINA RESULT:      -8.8      4.507      8.646
REMARK  Name = 
REMARK  7 active torsions:
REMARK  status: ('A' for Active; 'I' for Inactive)
REMARK    1  A    between atoms: C_1  and  C_2
REMARK    2  A    between atoms: C_2  and  S_3
REMARK    3  A    between atoms: C_2  and  C_10
REMARK    4  A    between atoms: S_3  and  C_4
REMARK    5  A    between atoms: N_8  and  C_9
REMARK    6  A    between atoms: C_14  and  N_15
REMARK    7  A    between atoms: C_22  and  C_23
REMARK                            x       y       z     vdW  Elec       q    Type
REMARK                         _______ _______ _______ _____ _____    ______ ____
ROOT
ATOM      1  C   UNL     1      -0.236  10.635  20.505  0.00  0.00    +0.000 A 
ATOM      2  C   UNL     1      -0.218  10.755  21.897  0.00  0.00    +0.000 A 
ATOM      3  C   UNL     1       0.434   9.801  22.690  0.00  0.00    +0.000 A 
ATOM      4  C   UNL     1       1.102   8.715  22.111  0.00  0.00    +0.000 A 
ATOM      5  C   UNL     1       1.101   8.556  20.729  0.00  0.00    +0.000 A 
ATOM      6  C   UNL     1       0.385   9.497  19.959  0.00  0.00    +0.000 A 
ENDROOT
BRANCH   5   7
ATOM      7  N   UNL     1       1.831   7.536  20.062  0.00  0.00    +0.000 N 
ATOM      8  C   UNL     1       1.790   6.183  20.574  0.00  0.00    +0.000 C 
ATOM      9  C   UNL     1       2.441   5.372  19.520  0.00  0.00    +0.000 A 
ATOM     10  C   UNL     1       2.939   6.212  18.528  0.00  0.00    +0.000 A 
ATOM     11  C   UNL     1       3.647   5.711  17.454  0.00  0.00    +0.000 A 
ATOM     12  C   UNL     1       3.849   4.326  17.397  0.00  0.00    +0.000 A 
ATOM     13  C   UNL     1       3.308   3.472  18.379  0.00  0.00    +0.000 A 
ATOM     14  C   UNL     1       2.576   3.989  19.460  0.00  0.00    +0.000 A 
ATOM     15  C   UNL     1       2.520   7.601  18.844  0.00  0.00    +0.000 C 
ATOM     16  O   UNL     1       2.768   8.550  18.119  0.00  0.00    +0.000 OA
BRANCH  14  17
ATOM     17  C   UNL     1       1.935   3.074  20.475  0.00  0.00    +0.000 C 
ATOM     18  F   UNL     1       2.608   3.007  21.659  0.00  0.00    +0.000 F 
ATOM     19  F   UNL     1       0.672   3.467  20.799  0.00  0.00    +0.000 F 
ATOM     20  F   UNL     1       1.834   1.791  20.039  0.00  0.00    +0.000 F 
ENDBRANCH  14  17
ENDBRANCH   5   7
BRANCH   1  22
ATOM     21  C   UNL     1       0.106  12.790  19.148  0.00  0.00    +0.000 C 
ATOM     22  C   UNL     1      -0.850  11.665  19.550  0.00  0.00    +0.000 C 
BRANCH  22  23
ATOM     23  S   UNL     1      -1.417  10.802  18.013  0.00  0.00    +0.000 S 
BRANCH  23  24
ATOM     24  C   UNL     1      -3.060  11.308  17.860  0.00  0.00    +0.000 A 
ATOM     25  N   UNL     1      -3.826  11.845  18.783  0.00  0.00    +0.000 NA
ATOM     26  N   UNL     1      -5.051  12.110  18.204  0.00  0.00    +0.000 NA
ATOM     27  C   UNL     1      -4.995  11.718  16.952  0.00  0.00    +0.000 A 
ATOM     28  N   UNL     1      -3.760  11.202  16.692  0.00  0.00    +0.000 N 
ATOM     29  C   UNL     1      -3.305  10.690  15.428  0.00  0.00    +0.000 C 
ENDBRANCH  23  24
ENDBRANCH  22  23
ENDBRANCH   1  22
TORSDOF 5
ENDMDL
MODEL 5
REMARK VINA RESULT:      -8.7      2.909      4.288
REMARK  Name = 
REMARK  7 active torsions:
REMARK  status: ('A' for Active; 'I' for Inactive)
REMARK    1  A    between atoms: C_1  and  C_2
REMARK    2  A    between atoms: C_2  and  S_3
REMARK    3  A    between atoms: C_2  and  C_10
REMARK    4  A    between atoms: S_3  and  C_4
REMARK    5  A    between atoms: N_8  and  C_9
REMARK    6  A    between atoms: C_14  and  N_15
REMARK    7  A    between atoms: C_22  and  C_23
REMARK                            x       y       z     vdW  Elec       q    Type
REMARK                         _______ _______ _______ _____ _____    ______ ____
ROOT
ATOM      1  C   UNL     1       2.912   6.431  19.186  0.00  0.00    +0.000 A 
ATOM      2  C   UNL     1       3.358   6.821  17.920  0.00  0.00    +0.000 A 
ATOM      3  C   UNL     1       2.967   8.050  17.371  0.00  0.00    +0.000 A 
ATOM      4  C   UNL     1       2.139   8.928  18.082  0.00  0.00    +0.000 A 
ATOM      5  C   UNL     1       1.669   8.573  19.342  0.00  0.00    +0.000 A 
ATOM      6  C   UNL     1       2.028   7.304  19.844  0.00  0.00    +0.000 A 
ENDROOT
BRANCH   5   7
ATOM      7  N   UNL     1       0.905   9.444  20.162  0.00  0.00    +0.000 N 
ATOM      8  C   UNL     1      -0.029  10.362  19.546  0.00  0.00    +0.000 C 
ATOM      9  C   UNL     1      -0.802  10.917  20.681  0.00  0.00    +0.000 A 
ATOM     10  C   UNL     1      -0.268  10.452  21.879  0.00  0.00    +0.000 A 
ATOM     11  C   UNL     1      -0.769  10.868  23.096  0.00  0.00    +0.000 A 
ATOM     12  C   UNL     1      -1.836  11.776  23.085  0.00  0.00    +0.000 A 
ATOM     13  C   UNL     1      -2.404  12.213  21.871  0.00  0.00    +0.000 A 
ATOM     14  C   UNL     1      -1.897  11.774  20.638  0.00  0.00    +0.000 A 
ATOM     15  C   UNL     1       0.804   9.476  21.560  0.00  0.00    +0.000 C 
ATOM     16  O   UNL     1       1.418   8.860  22.416  0.00  0.00    +0.000 OA
BRANCH  14  17
ATOM     17  C   UNL     1      -2.547  12.183  19.338  0.00  0.00    +0.000 C 
ATOM     18  F   UNL     1      -2.959  11.133  18.573  0.00  0.00    +0.000 F 
ATOM     19  F   UNL     1      -3.657  12.946  19.534  0.00  0.00    +0.000 F 
ATOM     20  F   UNL     1      -1.719  12.912  18.543  0.00  0.00    +0.000 F 
ENDBRANCH  14  17
ENDBRANCH   5   7
BRANCH   1  22
ATOM     21  C   UNL     1       2.250   4.512  20.761  0.00  0.00    +0.000 C 
ATOM     22  C   UNL     1       3.347   5.148  19.905  0.00  0.00    +0.000 C 
BRANCH  22  23
ATOM     23  S   UNL     1       3.899   3.908  18.646  0.00  0.00    +0.000 S 
BRANCH  23  24
ATOM     24  C   UNL     1       5.561   4.306  18.404  0.00  0.00    +0.000 A 
ATOM     25  N   UNL     1       6.450   4.636  19.312  0.00  0.00    +0.000 NA
ATOM     26  N   UNL     1       7.651   4.844  18.663  0.00  0.00    +0.000 NA
ATOM     27  C   UNL     1       7.452   4.643  17.380  0.00  0.00    +0.000 A 
ATOM     28  N   UNL     1       6.149   4.306  17.170  0.00  0.00    +0.000 N 
ATOM     29  C   UNL     1       5.550   3.988  15.902  0.00  0.00    +0.000 C 
ENDBRANCH  23  24
ENDBRANCH  22  23
ENDBRANCH   1  22
TORSDOF 5
ENDMDL
MODEL 6
REMARK VINA RESULT:      -8.7      3.025      4.546
REMARK  Name = 
REMARK  7 active torsions:
REMARK  status: ('A' for Active; 'I' for Inactive)
REMARK    1  A    between atoms: C_1  and  C_2
REMARK    2  A    between atoms: C_2  and  S_3
REMARK    3  A    between atoms: C_2  and  C_10
REMARK    4  A    between atoms: S_3  and  C_4
REMARK    5  A    between atoms: N_8  and  C_9
REMARK    6  A    between atoms: C_14  and  N_15
REMARK    7  A    between atoms: C_22  and  C_23
REMARK                            x       y       z     vdW  Elec       q    Type
REMARK                         _______ _______ _______ _____ _____    ______ ____
ROOT
ATOM      1  C   UNL     1       2.637   6.667  19.400  0.00  0.00    +0.000 A 
ATOM      2  C   UNL     1       2.861   7.009  18.063  0.00  0.00    +0.000 A 
ATOM      3  C   UNL     1       2.389   8.223  17.546  0.00  0.00    +0.000 A 
ATOM      4  C   UNL     1       1.700   9.135  18.356  0.00  0.00    +0.000 A 
ATOM      5  C   UNL     1       1.450   8.828  19.689  0.00  0.00    +0.000 A 
ATOM      6  C   UNL     1       1.883   7.573  20.167  0.00  0.00    +0.000 A 
ENDROOT
BRANCH   5   7
ATOM      7  N   UNL     1       0.843   9.735  20.597  0.00  0.00    +0.000 N 
ATOM      8  C   UNL     1       1.133  11.149  20.488  0.00  0.00    +0.000 C 
ATOM      9  C   UNL     1       0.164  11.795  21.404  0.00  0.00    +0.000 A 
ATOM     10  C   UNL     1      -0.549  10.817  22.091  0.00  0.00    +0.000 A 
ATOM     11  C   UNL     1      -1.479  11.152  23.053  0.00  0.00    +0.000 A 
ATOM     12  C   UNL     1      -1.681  12.513  23.317  0.00  0.00    +0.000 A 
ATOM     13  C   UNL     1      -0.989  13.504  22.591  0.00  0.00    +0.000 A 
ATOM     14  C   UNL     1      -0.056  13.154  21.603  0.00  0.00    +0.000 A 
ATOM     15  C   UNL     1      -0.150   9.491  21.554  0.00  0.00    +0.000 C 
ATOM     16  O   UNL     1      -0.653   8.444  21.931  0.00  0.00    +0.000 OA
BRANCH  14  17
ATOM     17  C   UNL     1       0.635  14.209  20.774  0.00  0.00    +0.000 C 
ATOM     18  F   UNL     1       0.437  14.074  19.432  0.00  0.00    +0.000 F 
ATOM     19  F   UNL     1       0.206  15.466  21.078  0.00  0.00    +0.000 F 
ATOM     20  F   UNL     1       1.983  14.215  20.946  0.00  0.00    +0.000 F 
ENDBRANCH  14  17
ENDBRANCH   5   7
BRANCH   1  22
ATOM     21  C   UNL     1       2.148   4.659  20.925  0.00  0.00    +0.000 C 
ATOM     22  C   UNL     1       3.181   5.405  20.078  0.00  0.00    +0.000 C 
BRANCH  22  23
ATOM     23  S   UNL     1       3.819   4.248  18.781  0.00  0.00    +0.000 S 
BRANCH  23  24
ATOM     24  C   UNL     1       5.499   4.638  18.698  0.00  0.00    +0.000 A 
ATOM     25  N   UNL     1       6.272   5.074  19.665  0.00  0.00    +0.000 NA
ATOM     26  N   UNL     1       7.543   5.226  19.146  0.00  0.00    +0.000 NA
ATOM     27  C   UNL     1       7.499   4.887  17.877  0.00  0.00    +0.000 A 
ATOM     28  N   UNL     1       6.230   4.514  17.550  0.00  0.00    +0.000 N 
ATOM     29  C   UNL     1       5.787   4.056  16.262  0.00  0.00    +0.000 C 
ENDBRANCH  23  24
ENDBRANCH  22  23
ENDBRANCH   1  22
TORSDOF 5
ENDMDL
MODEL 7
REMARK VINA RESULT:      -8.7      4.928      9.935
REMARK  Name = 
REMARK  7 active torsions:
REMARK  status: ('A' for Active; 'I' for Inactive)
REMARK    1  A    between atoms: C_1  and  C_2
REMARK    2  A    between atoms: C_2  and  S_3
REMARK    3  A    between atoms: C_2  and  C_10
REMARK    4  A    between atoms: S_3  and  C_4
REMARK    5  A    between atoms: N_8  and  C_9
REMARK    6  A    between atoms: C_14  and  N_15
REMARK    7  A    between atoms: C_22  and  C_23
REMARK                            x       y       z     vdW  Elec       q    Type
REMARK                         _______ _______ _______ _____ _____    ______ ____
ROOT
ATOM      1  C   UNL     1       0.132  10.231  20.707  0.00  0.00    +0.000 A 
ATOM      2  C   UNL     1       0.116  11.224  19.723  0.00  0.00    +0.000 A 
ATOM      3  C   UNL     1       0.829  11.059  18.528  0.00  0.00    +0.000 A 
ATOM      4  C   UNL     1       1.561   9.891  18.278  0.00  0.00    +0.000 A 
ATOM      5  C   UNL     1       1.608   8.883  19.237  0.00  0.00    +0.000 A 
ATOM      6  C   UNL     1       0.931   9.102  20.455  0.00  0.00    +0.000 A 
ENDROOT
BRANCH   5   7
ATOM      7  N   UNL     1       2.248   7.634  19.022  0.00  0.00    +0.000 N 
ATOM      8  C   UNL     1       3.193   7.499  17.934  0.00  0.00    +0.000 C 
ATOM      9  C   UNL     1       3.826   6.179  18.159  0.00  0.00    +0.000 A 
ATOM     10  C   UNL     1       3.201   5.539  19.226  0.00  0.00    +0.000 A 
ATOM     11  C   UNL     1       3.563   4.264  19.608  0.00  0.00    +0.000 A 
ATOM     12  C   UNL     1       4.582   3.631  18.884  0.00  0.00    +0.000 A 
ATOM     13  C   UNL     1       5.243   4.296  17.832  0.00  0.00    +0.000 A 
ATOM     14  C   UNL     1       4.879   5.599  17.459  0.00  0.00    +0.000 A 
ATOM     15  C   UNL     1       2.212   6.479  19.813  0.00  0.00    +0.000 C 
ATOM     16  O   UNL     1       1.547   6.211  20.801  0.00  0.00    +0.000 OA
BRANCH  14  17
ATOM     17  C   UNL     1       5.631   6.341  16.381  0.00  0.00    +0.000 C 
ATOM     18  F   UNL     1       4.837   6.807  15.376  0.00  0.00    +0.000 F 
ATOM     19  F   UNL     1       6.282   7.435  16.864  0.00  0.00    +0.000 F 
ATOM     20  F   UNL     1       6.576   5.573  15.775  0.00  0.00    +0.000 F 
ENDBRANCH  14  17
ENDBRANCH   5   7
BRANCH   1  22
ATOM     21  C   UNL     1      -0.052   9.497  23.162  0.00  0.00    +0.000 C 
ATOM     22  C   UNL     1      -0.678  10.282  22.008  0.00  0.00    +0.000 C 
BRANCH  22  23
ATOM     23  S   UNL     1      -0.866  12.047  22.535  0.00  0.00    +0.000 S 
BRANCH  23  24
ATOM     24  C   UNL     1      -2.576  12.236  22.675  0.00  0.00    +0.000 A 
ATOM     25  N   UNL     1      -3.331  11.976  23.718  0.00  0.00    +0.000 NA
ATOM     26  N   UNL     1      -4.630  12.302  23.382  0.00  0.00    +0.000 NA
ATOM     27  C   UNL     1      -4.625  12.740  22.143  0.00  0.00    +0.000 A 
ATOM     28  N   UNL     1      -3.353  12.712  21.657  0.00  0.00    +0.000 N 
ATOM     29  C   UNL     1      -2.937  13.135  20.347  0.00  0.00    +0.000 C 
ENDBRANCH  23  24
ENDBRANCH  22  23
ENDBRANCH   1  22
TORSDOF 5
ENDMDL
MODEL 8
REMARK VINA RESULT:      -8.7      0.918      1.241
REMARK  Name = 
REMARK  7 active torsions:
REMARK  status: ('A' for Active; 'I' for Inactive)
REMARK    1  A    between atoms: C_1  and  C_2
REMARK    2  A    between atoms: C_2  and  S_3
REMARK    3  A    between atoms: C_2  and  C_10
REMARK    4  A    between atoms: S_3  and  C_4
REMARK    5  A    between atoms: N_8  and  C_9
REMARK    6  A    between atoms: C_14  and  N_15
REMARK    7  A    between atoms: C_22  and  C_23
REMARK                            x       y       z     vdW  Elec       q    Type
REMARK                         _______ _______ _______ _____ _____    ______ ____
ROOT
ATOM      1  C   UNL     1       4.062   5.469  17.461  0.00  0.00    +0.000 A 
ATOM      2  C   UNL     1       4.140   4.468  18.433  0.00  0.00    +0.000 A 
ATOM      3  C   UNL     1       3.522   4.632  19.680  0.00  0.00    +0.000 A 
ATOM      4  C   UNL     1       2.793   5.789  19.979  0.00  0.00    +0.000 A 
ATOM      5  C   UNL     1       2.697   6.812  19.041  0.00  0.00    +0.000 A 
ATOM      6  C   UNL     1       3.381   6.647  17.817  0.00  0.00    +0.000 A 
ENDROOT
BRANCH   5   7
ATOM      7  N   UNL     1       1.902   7.972  19.231  0.00  0.00    +0.000 N 
ATOM      8  C   UNL     1       1.175   8.138  20.472  0.00  0.00    +0.000 C 
ATOM      9  C   UNL     1       0.673   9.531  20.420  0.00  0.00    +0.000 A 
ATOM     10  C   UNL     1       0.977  10.088  19.181  0.00  0.00    +0.000 A 
ATOM     11  C   UNL     1       0.567  11.364  18.851  0.00  0.00    +0.000 A 
ATOM     12  C   UNL     1      -0.168  12.080  19.805  0.00  0.00    +0.000 A 
ATOM     13  C   UNL     1      -0.438  11.530  21.074  0.00  0.00    +0.000 A 
ATOM     14  C   UNL     1      -0.005  10.238  21.408  0.00  0.00    +0.000 A 
ATOM     15  C   UNL     1       1.799   9.112  18.423  0.00  0.00    +0.000 C 
ATOM     16  O   UNL     1       2.261   9.349  17.319  0.00  0.00    +0.000 OA
BRANCH  14  17
ATOM     17  C   UNL     1      -0.230   9.672  22.789  0.00  0.00    +0.000 C 
ATOM     18  F   UNL     1       0.920   9.396  23.466  0.00  0.00    +0.000 F 
ATOM     19  F   UNL     1      -0.924  10.528  23.590  0.00  0.00    +0.000 F 
ATOM     20  F   UNL     1      -0.934   8.510  22.774  0.00  0.00    +0.000 F 
ENDBRANCH  14  17
ENDBRANCH   5   7
BRANCH   1  22
ATOM     21  C   UNL     1       5.020   6.692  15.415  0.00  0.00    +0.000 C 
ATOM     22  C   UNL     1       4.633   5.352  16.043  0.00  0.00    +0.000 C 
BRANCH  22  23
ATOM     23  S   UNL     1       6.134   4.270  16.083  0.00  0.00    +0.000 S 
BRANCH  23  24
ATOM     24  C   UNL     1       7.033   4.791  14.705  0.00  0.00    +0.000 A 
ATOM     25  N   UNL     1       8.064   5.603  14.677  0.00  0.00    +0.000 NA
ATOM     26  N   UNL     1       8.473   5.712  13.363  0.00  0.00    +0.000 NA
ATOM     27  C   UNL     1       7.671   4.971  12.632  0.00  0.00    +0.000 A 
ATOM     28  N   UNL     1       6.746   4.375  13.435  0.00  0.00    +0.000 N 
ATOM     29  C   UNL     1       5.712   3.471  13.010  0.00  0.00    +0.000 C 
ENDBRANCH  23  24
ENDBRANCH  22  23
ENDBRANCH   1  22
TORSDOF 5
ENDMDL
MODEL 9
REMARK VINA RESULT:      -8.6      4.286      9.271
REMARK  Name = 
REMARK  7 active torsions:
REMARK  status: ('A' for Active; 'I' for Inactive)
REMARK    1  A    between atoms: C_1  and  C_2
REMARK    2  A    between atoms: C_2  and  S_3
REMARK    3  A    between atoms: C_2  and  C_10
REMARK    4  A    between atoms: S_3  and  C_4
REMARK    5  A    between atoms: N_8  and  C_9
REMARK    6  A    between atoms: C_14  and  N_15
REMARK    7  A    between atoms: C_22  and  C_23
REMARK                            x       y       z     vdW  Elec       q    Type
REMARK                         _______ _______ _______ _____ _____    ______ ____
ROOT
ATOM      1  C   UNL     1       0.482  10.011  20.318  0.00  0.00    +0.000 A 
ATOM      2  C   UNL     1       0.589  10.954  19.292  0.00  0.00    +0.000 A 
ATOM      3  C   UNL     1       1.378  10.697  18.163  0.00  0.00    +0.000 A 
ATOM      4  C   UNL     1       2.062   9.484  18.020  0.00  0.00    +0.000 A 
ATOM      5  C   UNL     1       1.987   8.522  19.023  0.00  0.00    +0.000 A 
ATOM      6  C   UNL     1       1.235   8.832  20.176  0.00  0.00    +0.000 A 
ENDROOT
BRANCH   5   7
ATOM      7  N   UNL     1       2.573   7.234  18.912  0.00  0.00    +0.000 N 
ATOM      8  C   UNL     1       2.200   6.201  19.855  0.00  0.00    +0.000 C 
ATOM      9  C   UNL     1       2.799   4.964  19.301  0.00  0.00    +0.000 A 
ATOM     10  C   UNL     1       3.573   5.281  18.188  0.00  0.00    +0.000 A 
ATOM     11  C   UNL     1       4.291   4.313  17.516  0.00  0.00    +0.000 A 
ATOM     12  C   UNL     1       4.217   2.998  17.995  0.00  0.00    +0.000 A 
ATOM     13  C   UNL     1       3.400   2.671  19.096  0.00  0.00    +0.000 A 
ATOM     14  C   UNL     1       2.661   3.660  19.764  0.00  0.00    +0.000 A 
ATOM     15  C   UNL     1       3.405   6.729  17.904  0.00  0.00    +0.000 C 
ATOM     16  O   UNL     1       3.924   7.282  16.949  0.00  0.00    +0.000 OA
BRANCH  14  17
ATOM     17  C   UNL     1       1.731   3.304  20.898  0.00  0.00    +0.000 C 
ATOM     18  F   UNL     1       0.469   3.800  20.753  0.00  0.00    +0.000 F 
ATOM     19  F   UNL     1       1.576   1.958  21.037  0.00  0.00    +0.000 F 
ATOM     20  F   UNL     1       2.168   3.763  22.101  0.00  0.00    +0.000 F 
ENDBRANCH  14  17
ENDBRANCH   5   7
BRANCH   1  22
ATOM     21  C   UNL     1       0.095   9.427  22.790  0.00  0.00    +0.000 C 
ATOM     22  C   UNL     1      -0.417  10.164  21.551  0.00  0.00    +0.000 C 
BRANCH  22  23
ATOM     23  S   UNL     1      -0.576  11.962  21.963  0.00  0.00    +0.000 S 
BRANCH  23  24
ATOM     24  C   UNL     1      -2.166  12.352  21.416  0.00  0.00    +0.000 A 
ATOM     25  N   UNL     1      -2.564  12.559  20.182  0.00  0.00    +0.000 NA
ATOM     26  N   UNL     1      -3.921  12.815  20.219  0.00  0.00    +0.000 NA
ATOM     27  C   UNL     1      -4.302  12.766  21.476  0.00  0.00    +0.000 A 
ATOM     28  N   UNL     1      -3.229  12.481  22.265  0.00  0.00    +0.000 N 
ATOM     29  C   UNL     1      -3.247  12.321  23.694  0.00  0.00    +0.000 C 
ENDBRANCH  23  24
ENDBRANCH  22  23
ENDBRANCH   1  22
TORSDOF 5
ENDMDL
