MODEL 1
REMARK VINA RESULT:      -9.1      0.000      0.000
REMARK  Name = 
REMARK  7 active torsions:
REMARK  status: ('A' for Active; 'I' for Inactive)
REMARK    1  A    between atoms: C_1  and  C_2
REMARK    2  A    between atoms: C_2  and  C_3
REMARK    3  A    between atoms: C_2  and  C_23
REMARK    4  A    between atoms: C_7  and  N_8
REMARK    5  A    between atoms: C_15  and  C_16
REMARK    6  A    between atoms: C_23  and  C_25
REMARK    7  A    between atoms: N_29  and  C_30
REMARK                            x       y       z     vdW  Elec       q    Type
REMARK                         _______ _______ _______ _____ _____    ______ ____
ROOT
ATOM      1  C   UNL     1       3.510   4.991  18.475  0.00  0.00    +0.000 A 
ATOM      2  C   UNL     1       2.983   3.953  19.253  0.00  0.00    +0.000 A 
ATOM      3  C   UNL     1       2.091   4.234  20.305  0.00  0.00    +0.000 A 
ATOM      4  C   UNL     1       1.671   5.539  20.557  0.00  0.00    +0.000 A 
ATOM      5  C   UNL     1       2.194   6.589  19.811  0.00  0.00    +0.000 A 
ATOM      6  C   UNL     1       3.185   6.300  18.849  0.00  0.00    +0.000 A 
ENDROOT
BRANCH   5   7
ATOM      7  N   UNL     1       1.729   7.917  19.931  0.00  0.00    +0.000 N 
ATOM      8  C   UNL     1       1.583   8.522  21.230  0.00  0.00    +0.000 C 
ATOM      9  C   UNL     1       0.772   9.724  20.945  0.00  0.00    +0.000 A 
ATOM     10  C   UNL     1       0.961  10.069  19.609  0.00  0.00    +0.000 A 
ATOM     11  C   UNL     1       0.562  11.295  19.120  0.00  0.00    +0.000 A 
ATOM     12  C   UNL     1      -0.091  12.156  20.009  0.00  0.00    +0.000 A 
ATOM     13  C   UNL     1      -0.448  11.719  21.302  0.00  0.00    +0.000 A 
ATOM     14  C   UNL     1      -0.056  10.457  21.768  0.00  0.00    +0.000 A 
ATOM     15  C   UNL     1       1.504   8.858  18.920  0.00  0.00    +0.000 C 
ATOM     16  O   UNL     1       1.647   8.794  17.723  0.00  0.00    +0.000 OA
BRANCH  14  17
ATOM     17  C   UNL     1      -0.647   9.870  23.027  0.00  0.00    +0.000 C 
ATOM     18  F   UNL     1      -1.223   8.647  22.862  0.00  0.00    +0.000 F 
ATOM     19  F   UNL     1       0.266   9.711  24.022  0.00  0.00    +0.000 F 
ATOM     20  F   UNL     1      -1.635  10.658  23.541  0.00  0.00    +0.000 F 
ENDBRANCH  14  17
ENDBRANCH   5   7
BRANCH   1  22
ATOM     21  C   UNL     1       4.408   3.334  16.745  0.00  0.00    +0.000 C 
ATOM     22  C   UNL     1       4.201   4.798  17.130  0.00  0.00    +0.000 C 
BRANCH  22  23
ATOM     23  C   UNL     1       5.410   5.690  16.777  0.00  0.00    +0.000 C 
ATOM     24  F   UNL     1       5.807   5.362  15.505  0.00  0.00    +0.000 F 
BRANCH  23  25
ATOM     25  C   UNL     1       6.573   5.658  17.704  0.00  0.00    +0.000 A 
ATOM     26  N   UNL     1       6.913   4.634  18.468  0.00  0.00    +0.000 NA
ATOM     27  N   UNL     1       7.891   5.046  19.338  0.00  0.00    +0.000 NA
ATOM     28  C   UNL     1       8.134   6.311  19.090  0.00  0.00    +0.000 A 
ATOM     29  N   UNL     1       7.356   6.731  18.055  0.00  0.00    +0.000 N 
ATOM     30  C   UNL     1       7.355   8.063  17.512  0.00  0.00    +0.000 C 
ENDBRANCH  23  25
ENDBRANCH  22  23
ENDBRANCH   1  22
TORSDOF 5
ENDMDL
MODEL 2
REMARK VINA RESULT:      -9.0      2.080      2.795
REMARK  Name = 
REMARK  7 active torsions:
REMARK  status: ('A' for Active; 'I' for Inactive)
REMARK    1  A    between atoms: C_1  and  C_2
REMARK    2  A    between atoms: C_2  and  C_3
REMARK    3  A    between atoms: C_2  and  C_23
REMARK    4  A    between atoms: C_7  and  N_8
REMARK    5  A    between atoms: C_15  and  C_16
REMARK    6  A    between atoms: C_23  and  C_25
REMARK    7  A    between atoms: N_29  and  C_30
REMARK                            x       y       z     vdW  Elec       q    Type
REMARK                         _______ _______ _______ _____ _____    ______ ____
ROOT
ATOM      1  C   UNL     1       4.223   5.682  17.564  0.00  0.00    +0.000 A 
ATOM      2  C   UNL     1       3.556   4.486  17.851  0.00  0.00    +0.000 A 
ATOM      3  C   UNL     1       2.396   4.491  18.650  0.00  0.00    +0.000 A 
ATOM      4  C   UNL     1       1.857   5.687  19.119  0.00  0.00    +0.000 A 
ATOM      5  C   UNL     1       2.511   6.887  18.863  0.00  0.00    +0.000 A 
ATOM      6  C   UNL     1       3.741   6.847  18.174  0.00  0.00    +0.000 A 
ENDROOT
BRANCH   5   7
ATOM      7  N   UNL     1       1.964   8.143  19.205  0.00  0.00    +0.000 N 
ATOM      8  C   UNL     1       1.823   8.523  20.587  0.00  0.00    +0.000 C 
ATOM      9  C   UNL     1       0.925   9.695  20.519  0.00  0.00    +0.000 A 
ATOM     10  C   UNL     1       1.045  10.260  19.251  0.00  0.00    +0.000 A 
ATOM     11  C   UNL     1       0.550  11.516  18.974  0.00  0.00    +0.000 A 
ATOM     12  C   UNL     1      -0.128  12.178  20.005  0.00  0.00    +0.000 A 
ATOM     13  C   UNL     1      -0.410  11.517  21.219  0.00  0.00    +0.000 A 
ATOM     14  C   UNL     1       0.079  10.228  21.467  0.00  0.00    +0.000 A 
ATOM     15  C   UNL     1       1.643   9.215  18.364  0.00  0.00    +0.000 C 
ATOM     16  O   UNL     1       1.748   9.351  17.170  0.00  0.00    +0.000 OA
BRANCH  14  17
ATOM     17  C   UNL     1      -0.429   9.409  22.629  0.00  0.00    +0.000 C 
ATOM     18  F   UNL     1       0.522   9.088  23.550  0.00  0.00    +0.000 F 
ATOM     19  F   UNL     1      -1.416  10.029  23.328  0.00  0.00    +0.000 F 
ATOM     20  F   UNL     1      -0.944   8.214  22.223  0.00  0.00    +0.000 F 
ENDBRANCH  14  17
ENDBRANCH   5   7
BRANCH   1  22
ATOM     21  C   UNL     1       4.889   6.882  15.405  0.00  0.00    +0.000 C 
ATOM     22  C   UNL     1       5.266   5.848  16.464  0.00  0.00    +0.000 C 
BRANCH  22  23
ATOM     23  C   UNL     1       5.926   4.588  15.867  0.00  0.00    +0.000 C 
ATOM     24  F   UNL     1       6.605   3.959  16.879  0.00  0.00    +0.000 F 
BRANCH  23  25
ATOM     25  C   UNL     1       6.816   4.779  14.690  0.00  0.00    +0.000 A 
ATOM     26  N   UNL     1       7.879   5.564  14.655  0.00  0.00    +0.000 NA
ATOM     27  N   UNL     1       8.312   5.655  13.356  0.00  0.00    +0.000 NA
ATOM     28  C   UNL     1       7.510   4.922  12.620  0.00  0.00    +0.000 A 
ATOM     29  N   UNL     1       6.577   4.329  13.414  0.00  0.00    +0.000 N 
ATOM     30  C   UNL     1       5.533   3.455  12.948  0.00  0.00    +0.000 C 
ENDBRANCH  23  25
ENDBRANCH  22  23
ENDBRANCH   1  22
TORSDOF 5
ENDMDL
MODEL 3
REMARK VINA RESULT:      -8.8      0.971      1.312
REMARK  Name = 
REMARK  7 active torsions:
REMARK  status: ('A' for Active; 'I' for Inactive)
REMARK    1  A    between atoms: C_1  and  C_2
REMARK    2  A    between atoms: C_2  and  C_3
REMARK    3  A    between atoms: C_2  and  C_23
REMARK    4  A    between atoms: C_7  and  N_8
REMARK    5  A    between atoms: C_15  and  C_16
REMARK    6  A    between atoms: C_23  and  C_25
REMARK    7  A    between atoms: N_29  and  C_30
REMARK                            x       y       z     vdW  Elec       q    Type
REMARK                         _______ _______ _______ _____ _____    ______ ____
ROOT
ATOM      1  C   UNL     1       4.436   5.307  17.413  0.00  0.00    +0.000 A 
ATOM      2  C   UNL     1       3.991   4.133  18.031  0.00  0.00    +0.000 A 
ATOM      3  C   UNL     1       3.019   4.187  19.048  0.00  0.00    +0.000 A 
ATOM      4  C   UNL     1       2.441   5.400  19.420  0.00  0.00    +0.000 A 
ATOM      5  C   UNL     1       2.879   6.582  18.835  0.00  0.00    +0.000 A 
ATOM      6  C   UNL     1       3.945   6.519  17.913  0.00  0.00    +0.000 A 
ENDROOT
BRANCH   5   7
ATOM      7  N   UNL     1       2.261   7.828  19.076  0.00  0.00    +0.000 N 
ATOM      8  C   UNL     1       2.037   8.281  20.424  0.00  0.00    +0.000 C 
ATOM      9  C   UNL     1       1.093   9.403  20.245  0.00  0.00    +0.000 A 
ATOM     10  C   UNL     1       1.246   9.898  18.952  0.00  0.00    +0.000 A 
ATOM     11  C   UNL     1       0.709  11.111  18.578  0.00  0.00    +0.000 A 
ATOM     12  C   UNL     1      -0.047  11.798  19.535  0.00  0.00    +0.000 A 
ATOM     13  C   UNL     1      -0.356  11.197  20.773  0.00  0.00    +0.000 A 
ATOM     14  C   UNL     1       0.179   9.950  21.120  0.00  0.00    +0.000 A 
ATOM     15  C   UNL     1       1.932   8.832  18.157  0.00  0.00    +0.000 C 
ATOM     16  O   UNL     1       2.088   8.904  16.963  0.00  0.00    +0.000 OA
BRANCH  14  17
ATOM     17  C   UNL     1      -0.346   9.177  22.307  0.00  0.00    +0.000 C 
ATOM     18  F   UNL     1      -1.323   9.815  23.007  0.00  0.00    +0.000 F 
ATOM     19  F   UNL     1      -0.871   7.970  21.967  0.00  0.00    +0.000 F 
ATOM     20  F   UNL     1       0.634   8.921  23.220  0.00  0.00    +0.000 F 
ENDBRANCH  14  17
ENDBRANCH   5   7
BRANCH   1  22
ATOM     21  C   UNL     1       4.668   4.418  15.026  0.00  0.00    +0.000 C 
ATOM     22  C   UNL     1       5.213   5.354  16.103  0.00  0.00    +0.000 C 
BRANCH  22  23
ATOM     23  C   UNL     1       6.755   5.381  16.150  0.00  0.00    +0.000 C 
ATOM     24  F   UNL     1       7.207   4.236  15.543  0.00  0.00    +0.000 F 
BRANCH  23  25
ATOM     25  C   UNL     1       7.393   5.541  17.485  0.00  0.00    +0.000 A 
ATOM     26  N   UNL     1       7.596   4.568  18.357  0.00  0.00    +0.000 NA
ATOM     27  N   UNL     1       7.996   5.124  19.545  0.00  0.00    +0.000 NA
ATOM     28  C   UNL     1       8.034   6.425  19.380  0.00  0.00    +0.000 A 
ATOM     29  N   UNL     1       7.695   6.733  18.098  0.00  0.00    +0.000 N 
ATOM     30  C   UNL     1       7.629   8.066  17.560  0.00  0.00    +0.000 C 
ENDBRANCH  23  25
ENDBRANCH  22  23
ENDBRANCH   1  22
TORSDOF 5
ENDMDL
MODEL 4
REMARK VINA RESULT:      -8.8      0.859      1.307
REMARK  Name = 
REMARK  7 active torsions:
REMARK  status: ('A' for Active; 'I' for Inactive)
REMARK    1  A    between atoms: C_1  and  C_2
REMARK    2  A    between atoms: C_2  and  C_3
REMARK    3  A    between atoms: C_2  and  C_23
REMARK    4  A    between atoms: C_7  and  N_8
REMARK    5  A    between atoms: C_15  and  C_16
REMARK    6  A    between atoms: C_23  and  C_25
REMARK    7  A    between atoms: N_29  and  C_30
REMARK                            x       y       z     vdW  Elec       q    Type
REMARK                         _______ _______ _______ _____ _____    ______ ____
ROOT
ATOM      1  C   UNL     1       3.688   4.901  18.557  0.00  0.00    +0.000 A 
ATOM      2  C   UNL     1       3.079   3.852  19.255  0.00  0.00    +0.000 A 
ATOM      3  C   UNL     1       2.090   4.118  20.221  0.00  0.00    +0.000 A 
ATOM      4  C   UNL     1       1.658   5.421  20.460  0.00  0.00    +0.000 A 
ATOM      5  C   UNL     1       2.260   6.482  19.793  0.00  0.00    +0.000 A 
ATOM      6  C   UNL     1       3.338   6.205  18.927  0.00  0.00    +0.000 A 
ENDROOT
BRANCH   5   7
ATOM      7  N   UNL     1       1.796   7.812  19.898  0.00  0.00    +0.000 N 
ATOM      8  C   UNL     1       1.641   8.429  21.190  0.00  0.00    +0.000 C 
ATOM      9  C   UNL     1       0.834   9.630  20.889  0.00  0.00    +0.000 A 
ATOM     10  C   UNL     1       1.032   9.963  19.551  0.00  0.00    +0.000 A 
ATOM     11  C   UNL     1       0.639  11.184  19.048  0.00  0.00    +0.000 A 
ATOM     12  C   UNL     1      -0.020  12.054  19.924  0.00  0.00    +0.000 A 
ATOM     13  C   UNL     1      -0.386  11.629  21.218  0.00  0.00    +0.000 A 
ATOM     14  C   UNL     1       0.000  10.371  21.698  0.00  0.00    +0.000 A 
ATOM     15  C   UNL     1       1.579   8.744  18.876  0.00  0.00    +0.000 C 
ATOM     16  O   UNL     1       1.730   8.669  17.682  0.00  0.00    +0.000 OA
BRANCH  14  17
ATOM     17  C   UNL     1      -0.600   9.797  22.959  0.00  0.00    +0.000 C 
ATOM     18  F   UNL     1      -1.158   8.564  22.806  0.00  0.00    +0.000 F 
ATOM     19  F   UNL     1       0.301   9.665  23.968  0.00  0.00    +0.000 F 
ATOM     20  F   UNL     1      -1.604  10.580  23.447  0.00  0.00    +0.000 F 
ENDBRANCH  14  17
ENDBRANCH   5   7
BRANCH   1  22
ATOM     21  C   UNL     1       3.996   3.624  16.362  0.00  0.00    +0.000 C 
ATOM     22  C   UNL     1       4.507   4.731  17.282  0.00  0.00    +0.000 C 
BRANCH  22  23
ATOM     23  C   UNL     1       6.046   4.776  17.372  0.00  0.00    +0.000 C 
ATOM     24  F   UNL     1       6.425   3.925  18.380  0.00  0.00    +0.000 F 
BRANCH  23  25
ATOM     25  C   UNL     1       6.679   6.110  17.559  0.00  0.00    +0.000 A 
ATOM     26  N   UNL     1       6.568   7.131  16.727  0.00  0.00    +0.000 NA
ATOM     27  N   UNL     1       7.457   8.104  17.110  0.00  0.00    +0.000 NA
ATOM     28  C   UNL     1       8.093   7.663  18.169  0.00  0.00    +0.000 A 
ATOM     29  N   UNL     1       7.620   6.432  18.507  0.00  0.00    +0.000 N 
ATOM     30  C   UNL     1       8.088   5.644  19.616  0.00  0.00    +0.000 C 
ENDBRANCH  23  25
ENDBRANCH  22  23
ENDBRANCH   1  22
TORSDOF 5
ENDMDL
MODEL 5
REMARK VINA RESULT:      -8.6      1.307      1.828
REMARK  Name = 
REMARK  7 active torsions:
REMARK  status: ('A' for Active; 'I' for Inactive)
REMARK    1  A    between atoms: C_1  and  C_2
REMARK    2  A    between atoms: C_2  and  C_3
REMARK    3  A    between atoms: C_2  and  C_23
REMARK    4  A    between atoms: C_7  and  N_8
REMARK    5  A    between atoms: C_15  and  C_16
REMARK    6  A    between atoms: C_23  and  C_25
REMARK    7  A    between atoms: N_29  and  C_30
REMARK                            x       y       z     vdW  Elec       q    Type
REMARK                         _______ _______ _______ _____ _____    ______ ____
ROOT
ATOM      1  C   UNL     1       4.115   4.952  17.369  0.00  0.00    +0.000 A 
ATOM      2  C   UNL     1       3.232   3.872  17.488  0.00  0.00    +0.000 A 
ATOM      3  C   UNL     1       2.000   4.029  18.150  0.00  0.00    +0.000 A 
ATOM      4  C   UNL     1       1.609   5.270  18.647  0.00  0.00    +0.000 A 
ATOM      5  C   UNL     1       2.474   6.354  18.558  0.00  0.00    +0.000 A 
ATOM      6  C   UNL     1       3.757   6.145  18.009  0.00  0.00    +0.000 A 
ENDROOT
BRANCH   5   7
ATOM      7  N   UNL     1       2.101   7.663  18.933  0.00  0.00    +0.000 N 
ATOM      8  C   UNL     1       1.919   7.999  20.322  0.00  0.00    +0.000 C 
ATOM      9  C   UNL     1       1.217   9.297  20.260  0.00  0.00    +0.000 A 
ATOM     10  C   UNL     1       1.511   9.893  19.036  0.00  0.00    +0.000 A 
ATOM     11  C   UNL     1       1.233  11.221  18.797  0.00  0.00    +0.000 A 
ATOM     12  C   UNL     1       0.590  11.933  19.816  0.00  0.00    +0.000 A 
ATOM     13  C   UNL     1       0.125  11.271  20.972  0.00  0.00    +0.000 A 
ATOM     14  C   UNL     1       0.394   9.912  21.180  0.00  0.00    +0.000 A 
ATOM     15  C   UNL     1       2.006   8.808  18.133  0.00  0.00    +0.000 C 
ATOM     16  O   UNL     1       2.218   8.980  16.957  0.00  0.00    +0.000 OA
BRANCH  14  17
ATOM     17  C   UNL     1      -0.314   9.130  22.260  0.00  0.00    +0.000 C 
ATOM     18  F   UNL     1       0.510   8.615  23.215  0.00  0.00    +0.000 F 
ATOM     19  F   UNL     1      -1.236   9.867  22.935  0.00  0.00    +0.000 F 
ATOM     20  F   UNL     1      -0.984   8.056  21.754  0.00  0.00    +0.000 F 
ENDBRANCH  14  17
ENDBRANCH   5   7
BRANCH   1  22
ATOM     21  C   UNL     1       5.174   4.043  15.226  0.00  0.00    +0.000 C 
ATOM     22  C   UNL     1       5.298   5.001  16.409  0.00  0.00    +0.000 C 
BRANCH  22  23
ATOM     23  C   UNL     1       6.727   5.060  16.988  0.00  0.00    +0.000 C 
ATOM     24  F   UNL     1       6.810   4.114  17.978  0.00  0.00    +0.000 F 
BRANCH  23  25
ATOM     25  C   UNL     1       7.204   6.376  17.492  0.00  0.00    +0.000 A 
ATOM     26  N   UNL     1       7.203   7.504  16.802  0.00  0.00    +0.000 NA
ATOM     27  N   UNL     1       7.913   8.445  17.505  0.00  0.00    +0.000 NA
ATOM     28  C   UNL     1       8.331   7.879  18.612  0.00  0.00    +0.000 A 
ATOM     29  N   UNL     1       7.887   6.593  18.664  0.00  0.00    +0.000 N 
ATOM     30  C   UNL     1       8.156   5.670  19.735  0.00  0.00    +0.000 C 
ENDBRANCH  23  25
ENDBRANCH  22  23
ENDBRANCH   1  22
TORSDOF 5
ENDMDL
MODEL 6
REMARK VINA RESULT:      -8.6      0.813      1.434
REMARK  Name = 
REMARK  7 active torsions:
REMARK  status: ('A' for Active; 'I' for Inactive)
REMARK    1  A    between atoms: C_1  and  C_2
REMARK    2  A    between atoms: C_2  and  C_3
REMARK    3  A    between atoms: C_2  and  C_23
REMARK    4  A    between atoms: C_7  and  N_8
REMARK    5  A    between atoms: C_15  and  C_16
REMARK    6  A    between atoms: C_23  and  C_25
REMARK    7  A    between atoms: N_29  and  C_30
REMARK                            x       y       z     vdW  Elec       q    Type
REMARK                         _______ _______ _______ _____ _____    ______ ____
ROOT
ATOM      1  C   UNL     1       3.879   5.418  18.012  0.00  0.00    +0.000 A 
ATOM      2  C   UNL     1       3.649   4.368  18.909  0.00  0.00    +0.000 A 
ATOM      3  C   UNL     1       2.887   4.581  20.073  0.00  0.00    +0.000 A 
ATOM      4  C   UNL     1       2.298   5.818  20.325  0.00  0.00    +0.000 A 
ATOM      5  C   UNL     1       2.526   6.881  19.459  0.00  0.00    +0.000 A 
ATOM      6  C   UNL     1       3.400   6.683  18.370  0.00  0.00    +0.000 A 
ENDROOT
BRANCH   5   7
ATOM      7  N   UNL     1       1.871   8.126  19.588  0.00  0.00    +0.000 N 
ATOM      8  C   UNL     1       1.698   8.726  20.886  0.00  0.00    +0.000 C 
ATOM      9  C   UNL     1       0.700   9.786  20.630  0.00  0.00    +0.000 A 
ATOM     10  C   UNL     1       0.768  10.130  19.282  0.00  0.00    +0.000 A 
ATOM     11  C   UNL     1       0.165  11.272  18.800  0.00  0.00    +0.000 A 
ATOM     12  C   UNL     1      -0.569  12.041  19.711  0.00  0.00    +0.000 A 
ATOM     13  C   UNL     1      -0.790  11.579  21.026  0.00  0.00    +0.000 A 
ATOM     14  C   UNL     1      -0.189  10.400  21.485  0.00  0.00    +0.000 A 
ATOM     15  C   UNL     1       1.456   9.002  18.579  0.00  0.00    +0.000 C 
ATOM     16  O   UNL     1       1.548   8.939  17.378  0.00  0.00    +0.000 OA
BRANCH  14  17
ATOM     17  C   UNL     1      -0.622   9.754  22.780  0.00  0.00    +0.000 C 
ATOM     18  F   UNL     1       0.365   9.645  23.712  0.00  0.00    +0.000 F 
ATOM     19  F   UNL     1      -1.633  10.422  23.397  0.00  0.00    +0.000 F 
ATOM     20  F   UNL     1      -1.069   8.481  22.588  0.00  0.00    +0.000 F 
ENDBRANCH  14  17
ENDBRANCH   5   7
BRANCH   1  22
ATOM     21  C   UNL     1       4.639   3.785  16.195  0.00  0.00    +0.000 C 
ATOM     22  C   UNL     1       4.390   5.240  16.586  0.00  0.00    +0.000 C 
BRANCH  22  23
ATOM     23  C   UNL     1       5.476   6.200  16.058  0.00  0.00    +0.000 C 
ATOM     24  F   UNL     1       6.136   5.557  15.041  0.00  0.00    +0.000 F 
BRANCH  23  25
ATOM     25  C   UNL     1       6.451   6.735  17.046  0.00  0.00    +0.000 A 
ATOM     26  N   UNL     1       6.725   8.015  17.232  0.00  0.00    +0.000 NA
ATOM     27  N   UNL     1       7.819   8.111  18.056  0.00  0.00    +0.000 NA
ATOM     28  C   UNL     1       8.192   6.891  18.361  0.00  0.00    +0.000 A 
ATOM     29  N   UNL     1       7.348   5.996  17.778  0.00  0.00    +0.000 N 
ATOM     30  C   UNL     1       7.455   4.565  17.894  0.00  0.00    +0.000 C 
ENDBRANCH  23  25
ENDBRANCH  22  23
ENDBRANCH   1  22
TORSDOF 5
ENDMDL
MODEL 7
REMARK VINA RESULT:      -8.4      3.278      8.166
REMARK  Name = 
REMARK  7 active torsions:
REMARK  status: ('A' for Active; 'I' for Inactive)
REMARK    1  A    between atoms: C_1  and  C_2
REMARK    2  A    between atoms: C_2  and  C_3
REMARK    3  A    between atoms: C_2  and  C_23
REMARK    4  A    between atoms: C_7  and  N_8
REMARK    5  A    between atoms: C_15  and  C_16
REMARK    6  A    between atoms: C_23  and  C_25
REMARK    7  A    between atoms: N_29  and  C_30
REMARK                            x       y       z     vdW  Elec       q    Type
REMARK                         _______ _______ _______ _____ _____    ______ ____
ROOT
ATOM      1  C   UNL     1       1.135   9.559  20.097  0.00  0.00    +0.000 A 
ATOM      2  C   UNL     1       1.301  10.475  19.052  0.00  0.00    +0.000 A 
ATOM      3  C   UNL     1       1.932  10.084  17.856  0.00  0.00    +0.000 A 
ATOM      4  C   UNL     1       2.350   8.768  17.665  0.00  0.00    +0.000 A 
ATOM      5  C   UNL     1       2.213   7.844  18.694  0.00  0.00    +0.000 A 
ATOM      6  C   UNL     1       1.699   8.288  19.930  0.00  0.00    +0.000 A 
ENDROOT
BRANCH   5   7
ATOM      7  N   UNL     1       2.504   6.472  18.533  0.00  0.00    +0.000 N 
ATOM      8  C   UNL     1       1.683   5.473  19.168  0.00  0.00    +0.000 C 
ATOM      9  C   UNL     1       2.501   4.248  19.049  0.00  0.00    +0.000 A 
ATOM     10  C   UNL     1       3.366   4.406  17.969  0.00  0.00    +0.000 A 
ATOM     11  C   UNL     1       4.054   3.336  17.437  0.00  0.00    +0.000 A 
ATOM     12  C   UNL     1       3.890   2.095  18.062  0.00  0.00    +0.000 A 
ATOM     13  C   UNL     1       3.166   1.989  19.268  0.00  0.00    +0.000 A 
ATOM     14  C   UNL     1       2.498   3.096  19.806  0.00  0.00    +0.000 A 
ATOM     15  C   UNL     1       3.443   5.872  17.684  0.00  0.00    +0.000 C 
ATOM     16  O   UNL     1       4.217   6.345  16.889  0.00  0.00    +0.000 OA
BRANCH  14  17
ATOM     17  C   UNL     1       1.951   3.072  21.214  0.00  0.00    +0.000 C 
ATOM     18  F   UNL     1       2.298   1.969  21.934  0.00  0.00    +0.000 F 
ATOM     19  F   UNL     1       2.352   4.135  21.961  0.00  0.00    +0.000 F 
ATOM     20  F   UNL     1       0.588   3.090  21.229  0.00  0.00    +0.000 F 
ENDBRANCH  14  17
ENDBRANCH   5   7
BRANCH   1  22
ATOM     21  C   UNL     1      -0.255   8.455  21.939  0.00  0.00    +0.000 C 
ATOM     22  C   UNL     1       0.194   9.758  21.279  0.00  0.00    +0.000 C 
BRANCH  22  23
ATOM     23  C   UNL     1      -0.943  10.794  21.162  0.00  0.00    +0.000 C 
ATOM     24  F   UNL     1      -1.287  10.881  19.836  0.00  0.00    +0.000 F 
BRANCH  23  25
ATOM     25  C   UNL     1      -0.688  12.151  21.717  0.00  0.00    +0.000 A 
ATOM     26  N   UNL     1       0.468  12.789  21.673  0.00  0.00    +0.000 NA
ATOM     27  N   UNL     1       0.382  13.903  22.471  0.00  0.00    +0.000 NA
ATOM     28  C   UNL     1      -0.824  13.928  22.985  0.00  0.00    +0.000 A 
ATOM     29  N   UNL     1      -1.542  12.870  22.519  0.00  0.00    +0.000 N 
ATOM     30  C   UNL     1      -2.906  12.577  22.873  0.00  0.00    +0.000 C 
ENDBRANCH  23  25
ENDBRANCH  22  23
ENDBRANCH   1  22
TORSDOF 5
ENDMDL
MODEL 8
REMARK VINA RESULT:      -8.4      0.880      1.171
REMARK  Name = 
REMARK  7 active torsions:
REMARK  status: ('A' for Active; 'I' for Inactive)
REMARK    1  A    between atoms: C_1  and  C_2
REMARK    2  A    between atoms: C_2  and  C_3
REMARK    3  A    between atoms: C_2  and  C_23
REMARK    4  A    between atoms: C_7  and  N_8
REMARK    5  A    between atoms: C_15  and  C_16
REMARK    6  A    between atoms: C_23  and  C_25
REMARK    7  A    between atoms: N_29  and  C_30
REMARK                            x       y       z     vdW  Elec       q    Type
REMARK                         _______ _______ _______ _____ _____    ______ ____
ROOT
ATOM      1  C   UNL     1       3.158   3.945  18.823  0.00  0.00    +0.000 A 
ATOM      2  C   UNL     1       2.374   3.051  19.562  0.00  0.00    +0.000 A 
ATOM      3  C   UNL     1       1.434   3.531  20.494  0.00  0.00    +0.000 A 
ATOM      4  C   UNL     1       1.223   4.899  20.656  0.00  0.00    +0.000 A 
ATOM      5  C   UNL     1       2.001   5.807  19.947  0.00  0.00    +0.000 A 
ATOM      6  C   UNL     1       3.027   5.307  19.118  0.00  0.00    +0.000 A 
ENDROOT
BRANCH   5   7
ATOM      7  N   UNL     1       1.765   7.199  19.973  0.00  0.00    +0.000 N 
ATOM      8  C   UNL     1       1.662   7.897  21.229  0.00  0.00    +0.000 C 
ATOM      9  C   UNL     1       1.084   9.199  20.838  0.00  0.00    +0.000 A 
ATOM     10  C   UNL     1       1.392   9.427  19.499  0.00  0.00    +0.000 A 
ATOM     11  C   UNL     1       1.233  10.671  18.926  0.00  0.00    +0.000 A 
ATOM     12  C   UNL     1       0.694  11.681  19.731  0.00  0.00    +0.000 A 
ATOM     13  C   UNL     1       0.207  11.388  21.022  0.00  0.00    +0.000 A 
ATOM     14  C   UNL     1       0.354  10.108  21.573  0.00  0.00    +0.000 A 
ATOM     15  C   UNL     1       1.753   8.103  18.904  0.00  0.00    +0.000 C 
ATOM     16  O   UNL     1       1.941   7.945  17.723  0.00  0.00    +0.000 OA
BRANCH  14  17
ATOM     17  C   UNL     1      -0.389   9.705  22.824  0.00  0.00    +0.000 C 
ATOM     18  F   UNL     1      -1.310  10.614  23.250  0.00  0.00    +0.000 F 
ATOM     19  F   UNL     1      -1.068   8.535  22.688  0.00  0.00    +0.000 F 
ATOM     20  F   UNL     1       0.453   9.534  23.883  0.00  0.00    +0.000 F 
ENDBRANCH  14  17
ENDBRANCH   5   7
BRANCH   1  22
ATOM     21  C   UNL     1       4.355   2.100  17.516  0.00  0.00    +0.000 C 
ATOM     22  C   UNL     1       3.950   3.572  17.575  0.00  0.00    +0.000 C 
BRANCH  22  23
ATOM     23  C   UNL     1       5.063   4.522  17.085  0.00  0.00    +0.000 C 
ATOM     24  F   UNL     1       5.623   3.959  15.966  0.00  0.00    +0.000 F 
BRANCH  23  25
ATOM     25  C   UNL     1       6.122   4.890  18.063  0.00  0.00    +0.000 A 
ATOM     26  N   UNL     1       6.219   4.425  19.296  0.00  0.00    +0.000 NA
ATOM     27  N   UNL     1       7.177   5.149  19.961  0.00  0.00    +0.000 NA
ATOM     28  C   UNL     1       7.651   6.041  19.123  0.00  0.00    +0.000 A 
ATOM     29  N   UNL     1       7.044   5.898  17.913  0.00  0.00    +0.000 N 
ATOM     30  C   UNL     1       7.314   6.708  16.754  0.00  0.00    +0.000 C 
ENDBRANCH  23  25
ENDBRANCH  22  23
ENDBRANCH   1  22
TORSDOF 5
ENDMDL
MODEL 9
REMARK VINA RESULT:      -8.4      2.983      4.331
REMARK  Name = 
REMARK  7 active torsions:
REMARK  status: ('A' for Active; 'I' for Inactive)
REMARK    1  A    between atoms: C_1  and  C_2
REMARK    2  A    between atoms: C_2  and  C_3
REMARK    3  A    between atoms: C_2  and  C_23
REMARK    4  A    between atoms: C_7  and  N_8
REMARK    5  A    between atoms: C_15  and  C_16
REMARK    6  A    between atoms: C_23  and  C_25
REMARK    7  A    between atoms: N_29  and  C_30
REMARK                            x       y       z     vdW  Elec       q    Type
REMARK                         _______ _______ _______ _____ _____    ______ ____
ROOT
ATOM      1  C   UNL     1       3.824   5.930  18.460  0.00  0.00    +0.000 A 
ATOM      2  C   UNL     1       4.247   6.544  17.275  0.00  0.00    +0.000 A 
ATOM      3  C   UNL     1       3.702   7.780  16.879  0.00  0.00    +0.000 A 
ATOM      4  C   UNL     1       2.778   8.443  17.684  0.00  0.00    +0.000 A 
ATOM      5  C   UNL     1       2.328   7.847  18.856  0.00  0.00    +0.000 A 
ATOM      6  C   UNL     1       2.787   6.550  19.167  0.00  0.00    +0.000 A 
ENDROOT
BRANCH   5   7
ATOM      7  N   UNL     1       1.485   8.509  19.775  0.00  0.00    +0.000 N 
ATOM      8  C   UNL     1       0.867   9.761  19.424  0.00  0.00    +0.000 C 
ATOM      9  C   UNL     1       0.383  10.268  20.725  0.00  0.00    +0.000 A 
ATOM     10  C   UNL     1       0.209   9.180  21.578  0.00  0.00    +0.000 A 
ATOM     11  C   UNL     1      -0.490   9.298  22.760  0.00  0.00    +0.000 A 
ATOM     12  C   UNL     1      -0.970  10.569  23.096  0.00  0.00    +0.000 A 
ATOM     13  C   UNL     1      -0.620  11.696  22.322  0.00  0.00    +0.000 A 
ATOM     14  C   UNL     1       0.116  11.556  21.138  0.00  0.00    +0.000 A 
ATOM     15  C   UNL     1       1.004   8.049  21.007  0.00  0.00    +0.000 C 
ATOM     16  O   UNL     1       1.167   7.004  21.587  0.00  0.00    +0.000 OA
BRANCH  14  17
ATOM     17  C   UNL     1       0.724  12.754  20.448  0.00  0.00    +0.000 C 
ATOM     18  F   UNL     1       0.281  12.955  19.176  0.00  0.00    +0.000 F 
ATOM     19  F   UNL     1       0.491  13.922  21.103  0.00  0.00    +0.000 F 
ATOM     20  F   UNL     1       2.078  12.644  20.338  0.00  0.00    +0.000 F 
ENDBRANCH  14  17
ENDBRANCH   5   7
BRANCH   1  22
ATOM     21  C   UNL     1       6.059   5.028  19.318  0.00  0.00    +0.000 C 
ATOM     22  C   UNL     1       4.560   4.788  19.153  0.00  0.00    +0.000 C 
BRANCH  22  23
ATOM     23  C   UNL     1       4.223   3.335  18.758  0.00  0.00    +0.000 C 
ATOM     24  F   UNL     1       4.679   3.140  17.478  0.00  0.00    +0.000 F 
BRANCH  23  25
ATOM     25  C   UNL     1       2.801   2.911  18.868  0.00  0.00    +0.000 A 
ATOM     26  N   UNL     1       1.974   2.740  17.852  0.00  0.00    +0.000 NA
ATOM     27  N   UNL     1       0.706   2.567  18.347  0.00  0.00    +0.000 NA
ATOM     28  C   UNL     1       0.780   2.632  19.655  0.00  0.00    +0.000 A 
ATOM     29  N   UNL     1       2.075   2.815  20.031  0.00  0.00    +0.000 N 
ATOM     30  C   UNL     1       2.531   2.933  21.391  0.00  0.00    +0.000 C 
ENDBRANCH  23  25
ENDBRANCH  22  23
ENDBRANCH   1  22
TORSDOF 5
ENDMDL
