MODEL 1
REMARK VINA RESULT:      -8.4      0.000      0.000
REMARK  Name = 
REMARK  8 active torsions:
REMARK  status: ('A' for Active; 'I' for Inactive)
REMARK    1  A    between atoms: C_1  and  C_2
REMARK    2  A    between atoms: C_2  and  C_3
REMARK    3  A    between atoms: C_2  and  C_10
REMARK    4  A    between atoms: C_3  and  C_4
REMARK    5  A    between atoms: N_8  and  C_9
REMARK    6  A    between atoms: C_14  and  N_15
REMARK    7  A    between atoms: C_16  and  C_18
REMARK    8  A    between atoms: C_21  and  C_22
REMARK                            x       y       z     vdW  Elec       q    Type
REMARK                         _______ _______ _______ _____ _____    ______ ____
ROOT
ATOM      1  C   UNL     1       4.202   5.007  17.094  0.00  0.00    +0.000 A 
ATOM      2  C   UNL     1       4.812   4.019  16.306  0.00  0.00    +0.000 A 
ATOM      3  C   UNL     1       6.107   4.185  15.824  0.00  0.00    +0.000 A 
ATOM      4  C   UNL     1       6.809   5.358  16.093  0.00  0.00    +0.000 A 
ATOM      5  C   UNL     1       6.235   6.373  16.862  0.00  0.00    +0.000 A 
ATOM      6  C   UNL     1       4.953   6.172  17.394  0.00  0.00    +0.000 A 
ENDROOT
BRANCH   5   7
ATOM      7  N   UNL     1       6.899   7.596  17.120  0.00  0.00    +0.000 N 
ATOM      8  C   UNL     1       7.857   7.783  18.103  0.00  0.00    +0.000 C 
ATOM      9  O   UNL     1       8.304   6.906  18.837  0.00  0.00    +0.000 OA
ATOM     10  H   UNL     1       6.752   8.374  16.484  0.00  0.00    +0.000 HD
BRANCH   8  11
ATOM     11  C   UNL     1       8.372   9.141  18.218  0.00  0.00    +0.000 A 
ATOM     12  C   UNL     1       9.237   9.543  19.211  0.00  0.00    +0.000 A 
ATOM     13  O   UNL     1       9.470  10.869  19.075  0.00  0.00    +0.000 OA
ATOM     14  C   UNL     1       8.717  11.242  17.985  0.00  0.00    +0.000 A 
ATOM     15  N   UNL     1       8.067  10.228  17.412  0.00  0.00    +0.000 NA
BRANCH  14  16
ATOM     16  C   UNL     1       8.719  12.712  17.675  0.00  0.00    +0.000 C 
ATOM     17  F   UNL     1       8.661  13.483  18.798  0.00  0.00    +0.000 F 
ATOM     18  F   UNL     1       9.834  13.100  17.001  0.00  0.00    +0.000 F 
ATOM     19  F   UNL     1       7.652  13.072  16.912  0.00  0.00    +0.000 F 
ENDBRANCH  14  16
ENDBRANCH   8  11
ENDBRANCH   5   7
BRANCH   1  21
ATOM     20  C   UNL     1       2.489   5.735  18.874  0.00  0.00    +0.000 C 
ATOM     21  C   UNL     1       2.768   4.871  17.626  0.00  0.00    +0.000 C 
BRANCH  21  22
ATOM     22  C   UNL     1       2.427   3.382  17.897  0.00  0.00    +0.000 C 
BRANCH  22  23
ATOM     23  C   UNL     1       2.140   3.092  19.334  0.00  0.00    +0.000 A 
ATOM     24  N   UNL     1       0.970   3.205  19.936  0.00  0.00    +0.000 NA
ATOM     25  N   UNL     1       1.138   2.895  21.266  0.00  0.00    +0.000 NA
ATOM     26  C   UNL     1       2.400   2.587  21.446  0.00  0.00    +0.000 A 
ATOM     27  N   UNL     1       3.060   2.669  20.259  0.00  0.00    +0.000 N 
ATOM     28  C   UNL     1       4.445   2.352  20.040  0.00  0.00    +0.000 C 
ENDBRANCH  22  23
ENDBRANCH  21  22
ENDBRANCH   1  21
TORSDOF 6
ENDMDL
MODEL 2
REMARK VINA RESULT:      -8.0      5.481      7.665
REMARK  Name = 
REMARK  8 active torsions:
REMARK  status: ('A' for Active; 'I' for Inactive)
REMARK    1  A    between atoms: C_1  and  C_2
REMARK    2  A    between atoms: C_2  and  C_3
REMARK    3  A    between atoms: C_2  and  C_10
REMARK    4  A    between atoms: C_3  and  C_4
REMARK    5  A    between atoms: N_8  and  C_9
REMARK    6  A    between atoms: C_14  and  N_15
REMARK    7  A    between atoms: C_16  and  C_18
REMARK    8  A    between atoms: C_21  and  C_22
REMARK                            x       y       z     vdW  Elec       q    Type
REMARK                         _______ _______ _______ _____ _____    ______ ____
ROOT
ATOM      1  C   UNL     1       2.099   6.986  19.753  0.00  0.00    +0.000 A 
ATOM      2  C   UNL     1       1.665   5.976  20.624  0.00  0.00    +0.000 A 
ATOM      3  C   UNL     1       1.998   4.644  20.400  0.00  0.00    +0.000 A 
ATOM      4  C   UNL     1       2.749   4.289  19.281  0.00  0.00    +0.000 A 
ATOM      5  C   UNL     1       3.191   5.260  18.380  0.00  0.00    +0.000 A 
ATOM      6  C   UNL     1       2.901   6.607  18.647  0.00  0.00    +0.000 A 
ENDROOT
BRANCH   5   7
ATOM      7  N   UNL     1       3.917   4.935  17.211  0.00  0.00    +0.000 N 
ATOM      8  C   UNL     1       5.296   4.991  17.095  0.00  0.00    +0.000 C 
ATOM      9  O   UNL     1       6.076   5.266  18.002  0.00  0.00    +0.000 OA
ATOM     10  H   UNL     1       3.418   4.531  16.423  0.00  0.00    +0.000 HD
BRANCH   8  11
ATOM     11  C   UNL     1       5.824   4.655  15.778  0.00  0.00    +0.000 A 
ATOM     12  C   UNL     1       7.040   5.100  15.313  0.00  0.00    +0.000 A 
ATOM     13  O   UNL     1       7.204   4.668  14.041  0.00  0.00    +0.000 OA
ATOM     14  C   UNL     1       6.053   3.965  13.764  0.00  0.00    +0.000 A 
ATOM     15  N   UNL     1       5.208   3.898  14.793  0.00  0.00    +0.000 NA
BRANCH  14  16
ATOM     16  C   UNL     1       5.934   3.456  12.356  0.00  0.00    +0.000 C 
ATOM     17  F   UNL     1       6.906   3.949  11.537  0.00  0.00    +0.000 F 
ATOM     18  F   UNL     1       6.024   2.101  12.284  0.00  0.00    +0.000 F 
ATOM     19  F   UNL     1       4.748   3.803  11.788  0.00  0.00    +0.000 F 
ENDBRANCH  14  16
ENDBRANCH   8  11
ENDBRANCH   5   7
BRANCH   1  21
ATOM     20  C   UNL     1       0.684   8.697  21.059  0.00  0.00    +0.000 C 
ATOM     21  C   UNL     1       1.734   8.464  19.953  0.00  0.00    +0.000 C 
BRANCH  21  22
ATOM     22  C   UNL     1       1.276   9.097  18.612  0.00  0.00    +0.000 C 
BRANCH  22  23
ATOM     23  C   UNL     1       0.825  10.515  18.751  0.00  0.00    +0.000 A 
ATOM     24  N   UNL     1       1.579  11.545  19.084  0.00  0.00    +0.000 NA
ATOM     25  N   UNL     1       0.778  12.662  19.150  0.00  0.00    +0.000 NA
ATOM     26  C   UNL     1      -0.444  12.294  18.844  0.00  0.00    +0.000 A 
ATOM     27  N   UNL     1      -0.456  10.963  18.558  0.00  0.00    +0.000 N 
ATOM     28  C   UNL     1      -1.598  10.204  18.126  0.00  0.00    +0.000 C 
ENDBRANCH  22  23
ENDBRANCH  21  22
ENDBRANCH   1  21
TORSDOF 6
ENDMDL
MODEL 3
REMARK VINA RESULT:      -8.0      1.443      1.960
REMARK  Name = 
REMARK  8 active torsions:
REMARK  status: ('A' for Active; 'I' for Inactive)
REMARK    1  A    between atoms: C_1  and  C_2
REMARK    2  A    between atoms: C_2  and  C_3
REMARK    3  A    between atoms: C_2  and  C_10
REMARK    4  A    between atoms: C_3  and  C_4
REMARK    5  A    between atoms: N_8  and  C_9
REMARK    6  A    between atoms: C_14  and  N_15
REMARK    7  A    between atoms: C_16  and  C_18
REMARK    8  A    between atoms: C_21  and  C_22
REMARK                            x       y       z     vdW  Elec       q    Type
REMARK                         _______ _______ _______ _____ _____    ______ ____
ROOT
ATOM      1  C   UNL     1       4.434   5.350  17.061  0.00  0.00    +0.000 A 
ATOM      2  C   UNL     1       5.033   4.422  16.196  0.00  0.00    +0.000 A 
ATOM      3  C   UNL     1       6.317   4.628  15.701  0.00  0.00    +0.000 A 
ATOM      4  C   UNL     1       7.020   5.782  16.037  0.00  0.00    +0.000 A 
ATOM      5  C   UNL     1       6.457   6.740  16.884  0.00  0.00    +0.000 A 
ATOM      6  C   UNL     1       5.187   6.495  17.427  0.00  0.00    +0.000 A 
ENDROOT
BRANCH   5   7
ATOM      7  N   UNL     1       7.121   7.945  17.214  0.00  0.00    +0.000 N 
ATOM      8  C   UNL     1       8.064   8.080  18.218  0.00  0.00    +0.000 C 
ATOM      9  O   UNL     1       8.498   7.166  18.915  0.00  0.00    +0.000 OA
ATOM     10  H   UNL     1       6.986   8.755  16.615  0.00  0.00    +0.000 HD
BRANCH   8  11
ATOM     11  C   UNL     1       8.583   9.429  18.409  0.00  0.00    +0.000 A 
ATOM     12  C   UNL     1       8.327  10.468  17.543  0.00  0.00    +0.000 A 
ATOM     13  O   UNL     1       9.002  11.562  17.966  0.00  0.00    +0.000 OA
ATOM     14  C   UNL     1       9.669  11.142  19.095  0.00  0.00    +0.000 A 
ATOM     15  N   UNL     1       9.418   9.874  19.422  0.00  0.00    +0.000 NA
BRANCH  14  16
ATOM     16  C   UNL     1      10.589  12.155  19.713  0.00  0.00    +0.000 C 
ATOM     17  F   UNL     1      11.598  11.579  20.426  0.00  0.00    +0.000 F 
ATOM     18  F   UNL     1      11.182  12.953  18.786  0.00  0.00    +0.000 F 
ATOM     19  F   UNL     1       9.934  12.976  20.577  0.00  0.00    +0.000 F 
ENDBRANCH  14  16
ENDBRANCH   8  11
ENDBRANCH   5   7
BRANCH   1  21
ATOM     20  C   UNL     1       2.749   5.959  18.911  0.00  0.00    +0.000 C 
ATOM     21  C   UNL     1       3.012   5.170  17.611  0.00  0.00    +0.000 C 
BRANCH  21  22
ATOM     22  C   UNL     1       2.689   3.665  17.802  0.00  0.00    +0.000 C 
BRANCH  22  23
ATOM     23  C   UNL     1       3.241   3.097  19.069  0.00  0.00    +0.000 A 
ATOM     24  N   UNL     1       4.499   2.772  19.297  0.00  0.00    +0.000 NA
ATOM     25  N   UNL     1       4.585   2.239  20.563  0.00  0.00    +0.000 NA
ATOM     26  C   UNL     1       3.382   2.262  21.086  0.00  0.00    +0.000 A 
ATOM     27  N   UNL     1       2.513   2.817  20.198  0.00  0.00    +0.000 N 
ATOM     28  C   UNL     1       1.116   3.066  20.427  0.00  0.00    +0.000 C 
ENDBRANCH  22  23
ENDBRANCH  21  22
ENDBRANCH   1  21
TORSDOF 6
ENDMDL
MODEL 4
REMARK VINA RESULT:      -7.8      5.480      7.498
REMARK  Name = 
REMARK  8 active torsions:
REMARK  status: ('A' for Active; 'I' for Inactive)
REMARK    1  A    between atoms: C_1  and  C_2
REMARK    2  A    between atoms: C_2  and  C_3
REMARK    3  A    between atoms: C_2  and  C_10
REMARK    4  A    between atoms: C_3  and  C_4
REMARK    5  A    between atoms: N_8  and  C_9
REMARK    6  A    between atoms: C_14  and  N_15
REMARK    7  A    between atoms: C_16  and  C_18
REMARK    8  A    between atoms: C_21  and  C_22
REMARK                            x       y       z     vdW  Elec       q    Type
REMARK                         _______ _______ _______ _____ _____    ______ ____
ROOT
ATOM      1  C   UNL     1       1.983   6.997  20.028  0.00  0.00    +0.000 A 
ATOM      2  C   UNL     1       1.544   5.915  20.805  0.00  0.00    +0.000 A 
ATOM      3  C   UNL     1       1.904   4.610  20.484  0.00  0.00    +0.000 A 
ATOM      4  C   UNL     1       2.685   4.356  19.360  0.00  0.00    +0.000 A 
ATOM      5  C   UNL     1       3.133   5.402  18.550  0.00  0.00    +0.000 A 
ATOM      6  C   UNL     1       2.816   6.719  18.915  0.00  0.00    +0.000 A 
ENDROOT
BRANCH   5   7
ATOM      7  N   UNL     1       3.892   5.181  17.376  0.00  0.00    +0.000 N 
ATOM      8  C   UNL     1       5.220   4.789  17.355  0.00  0.00    +0.000 C 
ATOM      9  O   UNL     1       5.898   4.520  18.342  0.00  0.00    +0.000 OA
ATOM     10  H   UNL     1       3.418   5.206  16.478  0.00  0.00    +0.000 HD
BRANCH   8  11
ATOM     11  C   UNL     1       5.811   4.667  16.028  0.00  0.00    +0.000 A 
ATOM     12  C   UNL     1       6.844   5.461  15.582  0.00  0.00    +0.000 A 
ATOM     13  O   UNL     1       7.114   5.140  14.296  0.00  0.00    +0.000 OA
ATOM     14  C   UNL     1       6.212   4.146  13.990  0.00  0.00    +0.000 A 
ATOM     15  N   UNL     1       5.430   3.802  15.014  0.00  0.00    +0.000 NA
BRANCH  14  16
ATOM     16  C   UNL     1       6.233   3.675  12.564  0.00  0.00    +0.000 C 
ATOM     17  F   UNL     1       6.622   2.374  12.449  0.00  0.00    +0.000 F 
ATOM     18  F   UNL     1       5.015   3.766  11.968  0.00  0.00    +0.000 F 
ATOM     19  F   UNL     1       7.099   4.397  11.803  0.00  0.00    +0.000 F 
ENDBRANCH  14  16
ENDBRANCH   8  11
ENDBRANCH   5   7
BRANCH   1  21
ATOM     20  C   UNL     1       0.382   8.575  21.287  0.00  0.00    +0.000 C 
ATOM     21  C   UNL     1       1.590   8.449  20.336  0.00  0.00    +0.000 C 
BRANCH  21  22
ATOM     22  C   UNL     1       1.344   9.236  19.021  0.00  0.00    +0.000 C 
BRANCH  22  23
ATOM     23  C   UNL     1       0.229  10.225  19.124  0.00  0.00    +0.000 A 
ATOM     24  N   UNL     1      -1.020  10.038  18.741  0.00  0.00    +0.000 NA
ATOM     25  N   UNL     1      -1.717  11.204  18.959  0.00  0.00    +0.000 NA
ATOM     26  C   UNL     1      -0.885  12.073  19.481  0.00  0.00    +0.000 A 
ATOM     27  N   UNL     1       0.338  11.495  19.629  0.00  0.00    +0.000 N 
ATOM     28  C   UNL     1       1.496  12.111  20.219  0.00  0.00    +0.000 C 
ENDBRANCH  22  23
ENDBRANCH  21  22
ENDBRANCH   1  21
TORSDOF 6
ENDMDL
MODEL 5
REMARK VINA RESULT:      -7.8      1.931      2.538
REMARK  Name = 
REMARK  8 active torsions:
REMARK  status: ('A' for Active; 'I' for Inactive)
REMARK    1  A    between atoms: C_1  and  C_2
REMARK    2  A    between atoms: C_2  and  C_3
REMARK    3  A    between atoms: C_2  and  C_10
REMARK    4  A    between atoms: C_3  and  C_4
REMARK    5  A    between atoms: N_8  and  C_9
REMARK    6  A    between atoms: C_14  and  N_15
REMARK    7  A    between atoms: C_16  and  C_18
REMARK    8  A    between atoms: C_21  and  C_22
REMARK                            x       y       z     vdW  Elec       q    Type
REMARK                         _______ _______ _______ _____ _____    ______ ____
ROOT
ATOM      1  C   UNL     1       4.890   4.411  17.118  0.00  0.00    +0.000 A 
ATOM      2  C   UNL     1       5.303   3.760  15.946  0.00  0.00    +0.000 A 
ATOM      3  C   UNL     1       6.331   4.276  15.163  0.00  0.00    +0.000 A 
ATOM      4  C   UNL     1       6.949   5.472  15.519  0.00  0.00    +0.000 A 
ATOM      5  C   UNL     1       6.562   6.161  16.670  0.00  0.00    +0.000 A 
ATOM      6  C   UNL     1       5.566   5.603  17.486  0.00  0.00    +0.000 A 
ENDROOT
BRANCH   5   7
ATOM      7  N   UNL     1       7.135   7.400  17.042  0.00  0.00    +0.000 N 
ATOM      8  C   UNL     1       7.967   7.591  18.132  0.00  0.00    +0.000 C 
ATOM      9  O   UNL     1       8.370   6.707  18.884  0.00  0.00    +0.000 OA
ATOM     10  H   UNL     1       7.024   8.195  16.419  0.00  0.00    +0.000 HD
BRANCH   8  11
ATOM     11  C   UNL     1       8.404   8.965  18.349  0.00  0.00    +0.000 A 
ATOM     12  C   UNL     1       8.057  10.009  17.522  0.00  0.00    +0.000 A 
ATOM     13  O   UNL     1       8.673  11.132  17.959  0.00  0.00    +0.000 OA
ATOM     14  C   UNL     1       9.398  10.725  19.056  0.00  0.00    +0.000 A 
ATOM     15  N   UNL     1       9.238   9.434  19.352  0.00  0.00    +0.000 NA
BRANCH  14  16
ATOM     16  C   UNL     1      10.268  11.778  19.680  0.00  0.00    +0.000 C 
ATOM     17  F   UNL     1      11.589  11.440  19.666  0.00  0.00    +0.000 F 
ATOM     18  F   UNL     1      10.173  12.975  19.043  0.00  0.00    +0.000 F 
ATOM     19  F   UNL     1       9.946  11.998  20.983  0.00  0.00    +0.000 F 
ENDBRANCH  14  16
ENDBRANCH   8  11
ENDBRANCH   5   7
BRANCH   1  21
ATOM     20  C   UNL     1       3.466   2.381  17.813  0.00  0.00    +0.000 C 
ATOM     21  C   UNL     1       3.746   3.887  17.996  0.00  0.00    +0.000 C 
BRANCH  21  22
ATOM     22  C   UNL     1       2.457   4.721  17.766  0.00  0.00    +0.000 C 
BRANCH  22  23
ATOM     23  C   UNL     1       2.204   5.727  18.841  0.00  0.00    +0.000 A 
ATOM     24  N   UNL     1       2.457   7.021  18.777  0.00  0.00    +0.000 NA
ATOM     25  N   UNL     1       2.127   7.585  19.987  0.00  0.00    +0.000 NA
ATOM     26  C   UNL     1       1.668   6.630  20.760  0.00  0.00    +0.000 A 
ATOM     27  N   UNL     1       1.670   5.455  20.075  0.00  0.00    +0.000 N 
ATOM     28  C   UNL     1       1.188   4.192  20.564  0.00  0.00    +0.000 C 
ENDBRANCH  22  23
ENDBRANCH  21  22
ENDBRANCH   1  21
TORSDOF 6
ENDMDL
MODEL 6
REMARK VINA RESULT:      -7.7      6.166      8.281
REMARK  Name = 
REMARK  8 active torsions:
REMARK  status: ('A' for Active; 'I' for Inactive)
REMARK    1  A    between atoms: C_1  and  C_2
REMARK    2  A    between atoms: C_2  and  C_3
REMARK    3  A    between atoms: C_2  and  C_10
REMARK    4  A    between atoms: C_3  and  C_4
REMARK    5  A    between atoms: N_8  and  C_9
REMARK    6  A    between atoms: C_14  and  N_15
REMARK    7  A    between atoms: C_16  and  C_18
REMARK    8  A    between atoms: C_21  and  C_22
REMARK                            x       y       z     vdW  Elec       q    Type
REMARK                         _______ _______ _______ _____ _____    ______ ____
ROOT
ATOM      1  C   UNL     1       0.041  10.065  19.427  0.00  0.00    +0.000 A 
ATOM      2  C   UNL     1      -0.300   9.888  20.776  0.00  0.00    +0.000 A 
ATOM      3  C   UNL     1       0.355   8.947  21.564  0.00  0.00    +0.000 A 
ATOM      4  C   UNL     1       1.346   8.140  21.011  0.00  0.00    +0.000 A 
ATOM      5  C   UNL     1       1.709   8.272  19.669  0.00  0.00    +0.000 A 
ATOM      6  C   UNL     1       1.086   9.264  18.898  0.00  0.00    +0.000 A 
ENDROOT
BRANCH   5   7
ATOM      7  N   UNL     1       2.680   7.441  19.060  0.00  0.00    +0.000 N 
ATOM      8  C   UNL     1       2.713   6.061  19.159  0.00  0.00    +0.000 C 
ATOM      9  O   UNL     1       1.876   5.367  19.730  0.00  0.00    +0.000 OA
ATOM     10  H   UNL     1       3.346   7.860  18.418  0.00  0.00    +0.000 HD
BRANCH   8  11
ATOM     11  C   UNL     1       3.834   5.416  18.486  0.00  0.00    +0.000 A 
ATOM     12  C   UNL     1       3.928   4.054  18.304  0.00  0.00    +0.000 A 
ATOM     13  O   UNL     1       5.111   3.776  17.709  0.00  0.00    +0.000 OA
ATOM     14  C   UNL     1       5.716   5.002  17.552  0.00  0.00    +0.000 A 
ATOM     15  N   UNL     1       4.969   6.024  17.972  0.00  0.00    +0.000 NA
BRANCH  14  16
ATOM     16  C   UNL     1       7.111   4.965  16.996  0.00  0.00    +0.000 C 
ATOM     17  F   UNL     1       7.978   4.292  17.804  0.00  0.00    +0.000 F 
ATOM     18  F   UNL     1       7.170   4.357  15.781  0.00  0.00    +0.000 F 
ATOM     19  F   UNL     1       7.629   6.212  16.838  0.00  0.00    +0.000 F 
ENDBRANCH  14  16
ENDBRANCH   8  11
ENDBRANCH   5   7
BRANCH   1  21
ATOM     20  C   UNL     1      -0.414  12.546  18.909  0.00  0.00    +0.000 C 
ATOM     21  C   UNL     1      -0.672  11.076  18.518  0.00  0.00    +0.000 C 
BRANCH  21  22
ATOM     22  C   UNL     1      -2.194  10.777  18.461  0.00  0.00    +0.000 C 
BRANCH  22  23
ATOM     23  C   UNL     1      -2.696  10.529  17.076  0.00  0.00    +0.000 A 
ATOM     24  N   UNL     1      -2.097   9.812  16.144  0.00  0.00    +0.000 NA
ATOM     25  N   UNL     1      -2.857   9.871  14.999  0.00  0.00    +0.000 NA
ATOM     26  C   UNL     1      -3.910  10.610  15.258  0.00  0.00    +0.000 A 
ATOM     27  N   UNL     1      -3.866  11.020  16.555  0.00  0.00    +0.000 N 
ATOM     28  C   UNL     1      -4.869  11.799  17.228  0.00  0.00    +0.000 C 
ENDBRANCH  22  23
ENDBRANCH  21  22
ENDBRANCH   1  21
TORSDOF 6
ENDMDL
MODEL 7
REMARK VINA RESULT:      -7.7      5.352      7.626
REMARK  Name = 
REMARK  8 active torsions:
REMARK  status: ('A' for Active; 'I' for Inactive)
REMARK    1  A    between atoms: C_1  and  C_2
REMARK    2  A    between atoms: C_2  and  C_3
REMARK    3  A    between atoms: C_2  and  C_10
REMARK    4  A    between atoms: C_3  and  C_4
REMARK    5  A    between atoms: N_8  and  C_9
REMARK    6  A    between atoms: C_14  and  N_15
REMARK    7  A    between atoms: C_16  and  C_18
REMARK    8  A    between atoms: C_21  and  C_22
REMARK                            x       y       z     vdW  Elec       q    Type
REMARK                         _______ _______ _______ _____ _____    ______ ____
ROOT
ATOM      1  C   UNL     1       2.188   6.707  19.723  0.00  0.00    +0.000 A 
ATOM      2  C   UNL     1       1.667   5.668  20.508  0.00  0.00    +0.000 A 
ATOM      3  C   UNL     1       1.935   4.336  20.205  0.00  0.00    +0.000 A 
ATOM      4  C   UNL     1       2.704   4.014  19.090  0.00  0.00    +0.000 A 
ATOM      5  C   UNL     1       3.232   5.015  18.272  0.00  0.00    +0.000 A 
ATOM      6  C   UNL     1       3.008   6.356  18.620  0.00  0.00    +0.000 A 
ENDROOT
BRANCH   5   7
ATOM      7  N   UNL     1       3.982   4.727  17.107  0.00  0.00    +0.000 N 
ATOM      8  C   UNL     1       5.330   5.000  16.946  0.00  0.00    +0.000 C 
ATOM      9  O   UNL     1       6.069   5.469  17.808  0.00  0.00    +0.000 OA
ATOM     10  H   UNL     1       3.543   4.188  16.366  0.00  0.00    +0.000 HD
BRANCH   8  11
ATOM     11  C   UNL     1       5.882   4.657  15.642  0.00  0.00    +0.000 A 
ATOM     12  C   UNL     1       7.080   5.149  15.173  0.00  0.00    +0.000 A 
ATOM     13  O   UNL     1       7.273   4.693  13.913  0.00  0.00    +0.000 OA
ATOM     14  C   UNL     1       6.159   3.930  13.647  0.00  0.00    +0.000 A 
ATOM     15  N   UNL     1       5.310   3.848  14.672  0.00  0.00    +0.000 NA
BRANCH  14  16
ATOM     16  C   UNL     1       6.075   3.380  12.252  0.00  0.00    +0.000 C 
ATOM     17  F   UNL     1       5.071   3.949  11.525  0.00  0.00    +0.000 F 
ATOM     18  F   UNL     1       7.219   3.578  11.545  0.00  0.00    +0.000 F 
ATOM     19  F   UNL     1       5.835   2.042  12.246  0.00  0.00    +0.000 F 
ENDBRANCH  14  16
ENDBRANCH   8  11
ENDBRANCH   5   7
BRANCH   1  21
ATOM     20  C   UNL     1       1.137   8.422  21.331  0.00  0.00    +0.000 C 
ATOM     21  C   UNL     1       1.899   8.187  20.010  0.00  0.00    +0.000 C 
BRANCH  21  22
ATOM     22  C   UNL     1       1.150   8.837  18.816  0.00  0.00    +0.000 C 
BRANCH  22  23
ATOM     23  C   UNL     1       1.425  10.298  18.670  0.00  0.00    +0.000 A 
ATOM     24  N   UNL     1       2.494  10.841  18.119  0.00  0.00    +0.000 NA
ATOM     25  N   UNL     1       2.387  12.208  18.226  0.00  0.00    +0.000 NA
ATOM     26  C   UNL     1       1.252  12.472  18.828  0.00  0.00    +0.000 A 
ATOM     27  N   UNL     1       0.602  11.308  19.098  0.00  0.00    +0.000 N 
ATOM     28  C   UNL     1      -0.698  11.188  19.699  0.00  0.00    +0.000 C 
ENDBRANCH  22  23
ENDBRANCH  21  22
ENDBRANCH   1  21
TORSDOF 6
ENDMDL
MODEL 8
REMARK VINA RESULT:      -7.7      6.438      8.538
REMARK  Name = 
REMARK  8 active torsions:
REMARK  status: ('A' for Active; 'I' for Inactive)
REMARK    1  A    between atoms: C_1  and  C_2
REMARK    2  A    between atoms: C_2  and  C_3
REMARK    3  A    between atoms: C_2  and  C_10
REMARK    4  A    between atoms: C_3  and  C_4
REMARK    5  A    between atoms: N_8  and  C_9
REMARK    6  A    between atoms: C_14  and  N_15
REMARK    7  A    between atoms: C_16  and  C_18
REMARK    8  A    between atoms: C_21  and  C_22
REMARK                            x       y       z     vdW  Elec       q    Type
REMARK                         _______ _______ _______ _____ _____    ______ ____
ROOT
ATOM      1  C   UNL     1       0.211  10.067  19.529  0.00  0.00    +0.000 A 
ATOM      2  C   UNL     1      -0.274   9.778  20.813  0.00  0.00    +0.000 A 
ATOM      3  C   UNL     1       0.258   8.733  21.563  0.00  0.00    +0.000 A 
ATOM      4  C   UNL     1       1.267   7.934  21.031  0.00  0.00    +0.000 A 
ATOM      5  C   UNL     1       1.771   8.177  19.752  0.00  0.00    +0.000 A 
ATOM      6  C   UNL     1       1.271   9.270  19.027  0.00  0.00    +0.000 A 
ENDROOT
BRANCH   5   7
ATOM      7  N   UNL     1       2.765   7.362  19.161  0.00  0.00    +0.000 N 
ATOM      8  C   UNL     1       2.756   5.977  19.162  0.00  0.00    +0.000 C 
ATOM      9  O   UNL     1       1.859   5.272  19.616  0.00  0.00    +0.000 OA
ATOM     10  H   UNL     1       3.490   7.804  18.603  0.00  0.00    +0.000 HD
BRANCH   8  11
ATOM     11  C   UNL     1       3.909   5.347  18.532  0.00  0.00    +0.000 A 
ATOM     12  C   UNL     1       4.941   4.774  19.240  0.00  0.00    +0.000 A 
ATOM     13  O   UNL     1       5.879   4.340  18.366  0.00  0.00    +0.000 OA
ATOM     14  C   UNL     1       5.381   4.676  17.128  0.00  0.00    +0.000 A 
ATOM     15  N   UNL     1       4.179   5.252  17.175  0.00  0.00    +0.000 NA
BRANCH  14  16
ATOM     16  C   UNL     1       6.292   4.390  15.969  0.00  0.00    +0.000 C 
ATOM     17  F   UNL     1       6.016   3.197  15.370  0.00  0.00    +0.000 F 
ATOM     18  F   UNL     1       6.209   5.336  14.996  0.00  0.00    +0.000 F 
ATOM     19  F   UNL     1       7.596   4.329  16.350  0.00  0.00    +0.000 F 
ENDBRANCH  14  16
ENDBRANCH   8  11
ENDBRANCH   5   7
BRANCH   1  21
ATOM     20  C   UNL     1       0.471  12.493  18.704  0.00  0.00    +0.000 C 
ATOM     21  C   UNL     1      -0.363  11.196  18.662  0.00  0.00    +0.000 C 
BRANCH  21  22
ATOM     22  C   UNL     1      -1.841  11.477  19.044  0.00  0.00    +0.000 C 
BRANCH  22  23
ATOM     23  C   UNL     1      -2.780  11.382  17.886  0.00  0.00    +0.000 A 
ATOM     24  N   UNL     1      -2.467  11.032  16.652  0.00  0.00    +0.000 NA
ATOM     25  N   UNL     1      -3.601  11.119  15.879  0.00  0.00    +0.000 NA
ATOM     26  C   UNL     1      -4.584  11.506  16.656  0.00  0.00    +0.000 A 
ATOM     27  N   UNL     1      -4.123  11.655  17.927  0.00  0.00    +0.000 N 
ATOM     28  C   UNL     1      -4.913  12.014  19.074  0.00  0.00    +0.000 C 
ENDBRANCH  22  23
ENDBRANCH  21  22
ENDBRANCH   1  21
TORSDOF 6
ENDMDL
MODEL 9
REMARK VINA RESULT:      -7.6      1.023      1.549
REMARK  Name = 
REMARK  8 active torsions:
REMARK  status: ('A' for Active; 'I' for Inactive)
REMARK    1  A    between atoms: C_1  and  C_2
REMARK    2  A    between atoms: C_2  and  C_3
REMARK    3  A    between atoms: C_2  and  C_10
REMARK    4  A    between atoms: C_3  and  C_4
REMARK    5  A    between atoms: N_8  and  C_9
REMARK    6  A    between atoms: C_14  and  N_15
REMARK    7  A    between atoms: C_16  and  C_18
REMARK    8  A    between atoms: C_21  and  C_22
REMARK                            x       y       z     vdW  Elec       q    Type
REMARK                         _______ _______ _______ _____ _____    ______ ____
ROOT
ATOM      1  C   UNL     1       5.107   4.133  16.819  0.00  0.00    +0.000 A 
ATOM      2  C   UNL     1       5.476   3.544  15.600  0.00  0.00    +0.000 A 
ATOM      3  C   UNL     1       6.441   4.128  14.785  0.00  0.00    +0.000 A 
ATOM      4  C   UNL     1       7.037   5.331  15.158  0.00  0.00    +0.000 A 
ATOM      5  C   UNL     1       6.690   5.959  16.356  0.00  0.00    +0.000 A 
ATOM      6  C   UNL     1       5.760   5.333  17.199  0.00  0.00    +0.000 A 
ENDROOT
BRANCH   5   7
ATOM      7  N   UNL     1       7.240   7.203  16.747  0.00  0.00    +0.000 N 
ATOM      8  C   UNL     1       7.866   7.445  17.959  0.00  0.00    +0.000 C 
ATOM      9  O   UNL     1       8.084   6.604  18.827  0.00  0.00    +0.000 OA
ATOM     10  H   UNL     1       7.280   7.954  16.065  0.00  0.00    +0.000 HD
BRANCH   8  11
ATOM     11  C   UNL     1       8.315   8.816  18.164  0.00  0.00    +0.000 A 
ATOM     12  C   UNL     1       9.021   9.224  19.273  0.00  0.00    +0.000 A 
ATOM     13  O   UNL     1       9.226  10.559  19.190  0.00  0.00    +0.000 OA
ATOM     14  C   UNL     1       8.619  10.930  18.011  0.00  0.00    +0.000 A 
ATOM     15  N   UNL     1       8.088   9.908  17.340  0.00  0.00    +0.000 NA
BRANCH  14  16
ATOM     16  C   UNL     1       8.615  12.405  17.726  0.00  0.00    +0.000 C 
ATOM     17  F   UNL     1       8.578  13.157  18.862  0.00  0.00    +0.000 F 
ATOM     18  F   UNL     1       9.718  12.804  17.038  0.00  0.00    +0.000 F 
ATOM     19  F   UNL     1       7.535  12.777  16.989  0.00  0.00    +0.000 F 
ENDBRANCH  14  16
ENDBRANCH   8  11
ENDBRANCH   5   7
BRANCH   1  21
ATOM     20  C   UNL     1       2.772   3.058  16.982  0.00  0.00    +0.000 C 
ATOM     21  C   UNL     1       4.032   3.533  17.735  0.00  0.00    +0.000 C 
BRANCH  21  22
ATOM     22  C   UNL     1       3.658   4.532  18.862  0.00  0.00    +0.000 C 
BRANCH  22  23
ATOM     23  C   UNL     1       3.168   3.865  20.106  0.00  0.00    +0.000 A 
ATOM     24  N   UNL     1       3.571   2.701  20.580  0.00  0.00    +0.000 NA
ATOM     25  N   UNL     1       2.842   2.421  21.712  0.00  0.00    +0.000 NA
ATOM     26  C   UNL     1       2.020   3.423  21.915  0.00  0.00    +0.000 A 
ATOM     27  N   UNL     1       2.209   4.364  20.950  0.00  0.00    +0.000 N 
ATOM     28  C   UNL     1       1.536   5.631  20.865  0.00  0.00    +0.000 C 
ENDBRANCH  22  23
ENDBRANCH  21  22
ENDBRANCH   1  21
TORSDOF 6
ENDMDL
