MODEL 1
REMARK VINA RESULT:      -9.3      0.000      0.000
REMARK  Name = 
REMARK  8 active torsions:
REMARK  status: ('A' for Active; 'I' for Inactive)
REMARK    1  A    between atoms: C_1  and  C_2
REMARK    2  A    between atoms: C_2  and  S_3
REMARK    3  A    between atoms: C_2  and  C_10
REMARK    4  A    between atoms: S_3  and  C_4
REMARK    5  A    between atoms: N_8  and  C_9
REMARK    6  A    between atoms: C_14  and  N_15
REMARK    7  A    between atoms: C_16  and  C_18
REMARK    8  A    between atoms: C_26  and  C_27
REMARK                            x       y       z     vdW  Elec       q    Type
REMARK                         _______ _______ _______ _____ _____    ______ ____
ROOT
ATOM      1  N   UNL     1       1.884   8.001  19.408  0.00  0.00    +0.000 N 
ATOM      2  C   UNL     1       2.080   6.695  19.808  0.00  0.00    +0.000 C 
ATOM      3  O   UNL     1       1.642   6.117  20.797  0.00  0.00    +0.000 OA
ATOM      4  H   UNL     1       2.392   8.272  18.564  0.00  0.00    +0.000 HD
ENDROOT
BRANCH   2   5
ATOM      5  C   UNL     1       3.020   5.964  18.934  0.00  0.00    +0.000 A 
ATOM      6  C   UNL     1       3.531   6.519  17.786  0.00  0.00    +0.000 A 
ATOM      7  C   UNL     1       4.406   5.739  17.034  0.00  0.00    +0.000 A 
ATOM      8  C   UNL     1       5.201   6.341  16.052  0.00  0.00    +0.000 A 
ATOM      9  C   UNL     1       6.090   5.576  15.306  0.00  0.00    +0.000 A 
ATOM     10  C   UNL     1       6.110   4.192  15.459  0.00  0.00    +0.000 A 
ATOM     11  C   UNL     1       5.285   3.571  16.404  0.00  0.00    +0.000 A 
ATOM     12  C   UNL     1       4.467   4.342  17.262  0.00  0.00    +0.000 A 
ATOM     13  C   UNL     1       3.681   3.855  18.329  0.00  0.00    +0.000 A 
ATOM     14  N   UNL     1       3.177   4.679  19.279  0.00  0.00    +0.000 NA
BRANCH  13  15
ATOM     15  C   UNL     1       3.002   2.503  18.331  0.00  0.00    +0.000 C 
ATOM     16  F   UNL     1       3.862   1.456  18.445  0.00  0.00    +0.000 F 
ATOM     17  F   UNL     1       2.049   2.347  19.286  0.00  0.00    +0.000 F 
ATOM     18  F   UNL     1       2.355   2.293  17.135  0.00  0.00    +0.000 F 
ENDBRANCH  13  15
ENDBRANCH   2   5
BRANCH   1  23
ATOM     19  C   UNL     1      -0.128  11.057  19.996  0.00  0.00    +0.000 A 
ATOM     20  C   UNL     1      -0.224  11.021  21.396  0.00  0.00    +0.000 A 
ATOM     21  C   UNL     1       0.360   9.993  22.133  0.00  0.00    +0.000 A 
ATOM     22  C   UNL     1       1.054   8.980  21.488  0.00  0.00    +0.000 A 
ATOM     23  C   UNL     1       1.180   8.994  20.103  0.00  0.00    +0.000 A 
ATOM     24  C   UNL     1       0.601  10.030  19.362  0.00  0.00    +0.000 A 
BRANCH  19  26
ATOM     25  C   UNL     1      -0.523  13.573  19.661  0.00  0.00    +0.000 C 
ATOM     26  C   UNL     1      -0.792  12.148  19.150  0.00  0.00    +0.000 C 
BRANCH  26  27
ATOM     27  S   UNL     1      -2.609  11.830  19.110  0.00  0.00    +0.000 S 
BRANCH  27  28
ATOM     28  C   UNL     1      -2.838  11.140  17.549  0.00  0.00    +0.000 A 
ATOM     29  N   UNL     1      -1.998  10.406  16.851  0.00  0.00    +0.000 NA
ATOM     30  N   UNL     1      -2.570  10.167  15.620  0.00  0.00    +0.000 NA
ATOM     31  C   UNL     1      -3.754  10.740  15.621  0.00  0.00    +0.000 A 
ATOM     32  N   UNL     1      -3.979  11.329  16.829  0.00  0.00    +0.000 N 
ATOM     33  C   UNL     1      -5.173  12.023  17.223  0.00  0.00    +0.000 C 
ENDBRANCH  27  28
ENDBRANCH  26  27
ENDBRANCH  19  26
ENDBRANCH   1  23
TORSDOF 6
ENDMDL
MODEL 2
REMARK VINA RESULT:      -9.2      2.611      3.694
REMARK  Name = 
REMARK  8 active torsions:
REMARK  status: ('A' for Active; 'I' for Inactive)
REMARK    1  A    between atoms: C_1  and  C_2
REMARK    2  A    between atoms: C_2  and  S_3
REMARK    3  A    between atoms: C_2  and  C_10
REMARK    4  A    between atoms: S_3  and  C_4
REMARK    5  A    between atoms: N_8  and  C_9
REMARK    6  A    between atoms: C_14  and  N_15
REMARK    7  A    between atoms: C_16  and  C_18
REMARK    8  A    between atoms: C_26  and  C_27
REMARK                            x       y       z     vdW  Elec       q    Type
REMARK                         _______ _______ _______ _____ _____    ______ ____
ROOT
ATOM      1  N   UNL     1       1.424   9.291  18.537  0.00  0.00    +0.000 N 
ATOM      2  C   UNL     1       1.763   8.352  19.489  0.00  0.00    +0.000 C 
ATOM      3  O   UNL     1       1.567   8.376  20.700  0.00  0.00    +0.000 OA
ATOM      4  H   UNL     1       1.733   9.070  17.589  0.00  0.00    +0.000 HD
ENDROOT
BRANCH   2   5
ATOM      5  C   UNL     1       2.536   7.224  18.931  0.00  0.00    +0.000 A 
ATOM      6  C   UNL     1       3.256   7.337  17.767  0.00  0.00    +0.000 A 
ATOM      7  C   UNL     1       3.945   6.209  17.330  0.00  0.00    +0.000 A 
ATOM      8  C   UNL     1       4.938   6.341  16.353  0.00  0.00    +0.000 A 
ATOM      9  C   UNL     1       5.645   5.225  15.919  0.00  0.00    +0.000 A 
ATOM     10  C   UNL     1       5.288   3.959  16.376  0.00  0.00    +0.000 A 
ATOM     11  C   UNL     1       4.262   3.808  17.317  0.00  0.00    +0.000 A 
ATOM     12  C   UNL     1       3.619   4.940  17.867  0.00  0.00    +0.000 A 
ATOM     13  C   UNL     1       2.658   4.936  18.902  0.00  0.00    +0.000 A 
ATOM     14  N   UNL     1       2.323   6.065  19.570  0.00  0.00    +0.000 NA
BRANCH  13  15
ATOM     15  C   UNL     1       1.647   3.830  19.113  0.00  0.00    +0.000 C 
ATOM     16  F   UNL     1       0.959   3.493  17.989  0.00  0.00    +0.000 F 
ATOM     17  F   UNL     1       2.159   2.683  19.629  0.00  0.00    +0.000 F 
ATOM     18  F   UNL     1       0.681   4.230  20.005  0.00  0.00    +0.000 F 
ENDBRANCH  13  15
ENDBRANCH   2   5
BRANCH   1  23
ATOM     19  C   UNL     1      -1.206  11.802  19.251  0.00  0.00    +0.000 A 
ATOM     20  C   UNL     1      -0.439  12.977  19.213  0.00  0.00    +0.000 A 
ATOM     21  C   UNL     1       0.931  12.937  18.966  0.00  0.00    +0.000 A 
ATOM     22  C   UNL     1       1.565  11.722  18.749  0.00  0.00    +0.000 A 
ATOM     23  C   UNL     1       0.831  10.541  18.765  0.00  0.00    +0.000 A 
ATOM     24  C   UNL     1      -0.547  10.581  19.005  0.00  0.00    +0.000 A 
BRANCH  19  26
ATOM     25  C   UNL     1      -3.594  11.650  18.316  0.00  0.00    +0.000 C 
ATOM     26  C   UNL     1      -2.706  11.804  19.562  0.00  0.00    +0.000 C 
BRANCH  26  27
ATOM     27  S   UNL     1      -3.119  13.376  20.434  0.00  0.00    +0.000 S 
BRANCH  27  28
ATOM     28  C   UNL     1      -3.666  12.825  21.971  0.00  0.00    +0.000 A 
ATOM     29  N   UNL     1      -4.899  12.565  22.350  0.00  0.00    +0.000 NA
ATOM     30  N   UNL     1      -4.869  12.252  23.693  0.00  0.00    +0.000 NA
ATOM     31  C   UNL     1      -3.613  12.305  24.079  0.00  0.00    +0.000 A 
ATOM     32  N   UNL     1      -2.819  12.623  23.018  0.00  0.00    +0.000 N 
ATOM     33  C   UNL     1      -1.387  12.740  23.036  0.00  0.00    +0.000 C 
ENDBRANCH  27  28
ENDBRANCH  26  27
ENDBRANCH  19  26
ENDBRANCH   1  23
TORSDOF 6
ENDMDL
MODEL 3
REMARK VINA RESULT:      -9.1      2.453      3.697
REMARK  Name = 
REMARK  8 active torsions:
REMARK  status: ('A' for Active; 'I' for Inactive)
REMARK    1  A    between atoms: C_1  and  C_2
REMARK    2  A    between atoms: C_2  and  S_3
REMARK    3  A    between atoms: C_2  and  C_10
REMARK    4  A    between atoms: S_3  and  C_4
REMARK    5  A    between atoms: N_8  and  C_9
REMARK    6  A    between atoms: C_14  and  N_15
REMARK    7  A    between atoms: C_16  and  C_18
REMARK    8  A    between atoms: C_26  and  C_27
REMARK                            x       y       z     vdW  Elec       q    Type
REMARK                         _______ _______ _______ _____ _____    ______ ____
ROOT
ATOM      1  N   UNL     1       0.519   9.397  19.165  0.00  0.00    +0.000 N 
ATOM      2  C   UNL     1       1.599   9.388  18.305  0.00  0.00    +0.000 C 
ATOM      3  O   UNL     1       1.888  10.188  17.422  0.00  0.00    +0.000 OA
ATOM      4  H   UNL     1       0.465   8.593  19.793  0.00  0.00    +0.000 HD
ENDROOT
BRANCH   2   5
ATOM      5  C   UNL     1       2.444   8.186  18.460  0.00  0.00    +0.000 A 
ATOM      6  C   UNL     1       3.202   7.689  17.428  0.00  0.00    +0.000 A 
ATOM      7  C   UNL     1       3.958   6.548  17.683  0.00  0.00    +0.000 A 
ATOM      8  C   UNL     1       4.981   6.184  16.801  0.00  0.00    +0.000 A 
ATOM      9  C   UNL     1       5.754   5.056  17.052  0.00  0.00    +0.000 A 
ATOM     10  C   UNL     1       5.438   4.226  18.124  0.00  0.00    +0.000 A 
ATOM     11  C   UNL     1       4.385   4.552  18.987  0.00  0.00    +0.000 A 
ATOM     12  C   UNL     1       3.670   5.760  18.825  0.00  0.00    +0.000 A 
ATOM     13  C   UNL     1       2.671   6.264  19.686  0.00  0.00    +0.000 A 
ATOM     14  N   UNL     1       2.259   7.553  19.627  0.00  0.00    +0.000 NA
BRANCH  13  15
ATOM     15  C   UNL     1       1.704   5.394  20.460  0.00  0.00    +0.000 C 
ATOM     16  F   UNL     1       0.681   6.084  21.032  0.00  0.00    +0.000 F 
ATOM     17  F   UNL     1       1.154   4.380  19.743  0.00  0.00    +0.000 F 
ATOM     18  F   UNL     1       2.346   4.787  21.514  0.00  0.00    +0.000 F 
ENDBRANCH  13  15
ENDBRANCH   2   5
BRANCH   1  23
ATOM     19  C   UNL     1      -2.705  10.961  18.222  0.00  0.00    +0.000 A 
ATOM     20  C   UNL     1      -2.695  12.075  19.076  0.00  0.00    +0.000 A 
ATOM     21  C   UNL     1      -1.642  12.299  19.959  0.00  0.00    +0.000 A 
ATOM     22  C   UNL     1      -0.573  11.415  20.007  0.00  0.00    +0.000 A 
ATOM     23  C   UNL     1      -0.545  10.309  19.164  0.00  0.00    +0.000 A 
ATOM     24  C   UNL     1      -1.599  10.088  18.271  0.00  0.00    +0.000 A 
BRANCH  19  26
ATOM     25  C   UNL     1      -3.468  10.691  15.784  0.00  0.00    +0.000 C 
ATOM     26  C   UNL     1      -3.866  10.661  17.269  0.00  0.00    +0.000 C 
BRANCH  26  27
ATOM     27  S   UNL     1      -5.209  11.885  17.583  0.00  0.00    +0.000 S 
BRANCH  27  28
ATOM     28  C   UNL     1      -6.133  11.126  18.822  0.00  0.00    +0.000 A 
ATOM     29  N   UNL     1      -6.513   9.869  18.900  0.00  0.00    +0.000 NA
ATOM     30  N   UNL     1      -7.319   9.741  20.010  0.00  0.00    +0.000 NA
ATOM     31  C   UNL     1      -7.379  10.921  20.589  0.00  0.00    +0.000 A 
ATOM     32  N   UNL     1      -6.615  11.811  19.896  0.00  0.00    +0.000 N 
ATOM     33  C   UNL     1      -6.401  13.190  20.237  0.00  0.00    +0.000 C 
ENDBRANCH  27  28
ENDBRANCH  26  27
ENDBRANCH  19  26
ENDBRANCH   1  23
TORSDOF 6
ENDMDL
MODEL 4
REMARK VINA RESULT:      -9.1      1.417      1.593
REMARK  Name = 
REMARK  8 active torsions:
REMARK  status: ('A' for Active; 'I' for Inactive)
REMARK    1  A    between atoms: C_1  and  C_2
REMARK    2  A    between atoms: C_2  and  S_3
REMARK    3  A    between atoms: C_2  and  C_10
REMARK    4  A    between atoms: S_3  and  C_4
REMARK    5  A    between atoms: N_8  and  C_9
REMARK    6  A    between atoms: C_14  and  N_15
REMARK    7  A    between atoms: C_16  and  C_18
REMARK    8  A    between atoms: C_26  and  C_27
REMARK                            x       y       z     vdW  Elec       q    Type
REMARK                         _______ _______ _______ _____ _____    ______ ____
ROOT
ATOM      1  N   UNL     1       1.486   8.483  20.409  0.00  0.00    +0.000 N 
ATOM      2  C   UNL     1       1.910   8.607  19.102  0.00  0.00    +0.000 C 
ATOM      3  O   UNL     1       1.689   9.510  18.302  0.00  0.00    +0.000 OA
ATOM      4  H   UNL     1       1.761   7.613  20.868  0.00  0.00    +0.000 HD
ENDROOT
BRANCH   2   5
ATOM      5  C   UNL     1       2.658   7.424  18.628  0.00  0.00    +0.000 A 
ATOM      6  C   UNL     1       3.403   7.446  17.474  0.00  0.00    +0.000 A 
ATOM      7  C   UNL     1       4.065   6.274  17.119  0.00  0.00    +0.000 A 
ATOM      8  C   UNL     1       5.080   6.317  16.157  0.00  0.00    +0.000 A 
ATOM      9  C   UNL     1       5.760   5.156  15.805  0.00  0.00    +0.000 A 
ATOM     10  C   UNL     1       5.356   3.931  16.330  0.00  0.00    +0.000 A 
ATOM     11  C   UNL     1       4.309   3.868  17.257  0.00  0.00    +0.000 A 
ATOM     12  C   UNL     1       3.690   5.050  17.725  0.00  0.00    +0.000 A 
ATOM     13  C   UNL     1       2.711   5.137  18.739  0.00  0.00    +0.000 A 
ATOM     14  N   UNL     1       2.398   6.314  19.331  0.00  0.00    +0.000 NA
BRANCH  13  15
ATOM     15  C   UNL     1       1.663   4.076  18.995  0.00  0.00    +0.000 C 
ATOM     16  F   UNL     1       2.178   2.874  19.370  0.00  0.00    +0.000 F 
ATOM     17  F   UNL     1       0.724   4.415  19.916  0.00  0.00    +0.000 F 
ATOM     18  F   UNL     1       0.962   3.809  17.842  0.00  0.00    +0.000 F 
ENDBRANCH  13  15
ENDBRANCH   2   5
BRANCH   1  23
ATOM     19  C   UNL     1      -0.717  11.392  21.051  0.00  0.00    +0.000 A 
ATOM     20  C   UNL     1      -1.061  11.148  22.390  0.00  0.00    +0.000 A 
ATOM     21  C   UNL     1      -0.580  10.030  23.067  0.00  0.00    +0.000 A 
ATOM     22  C   UNL     1       0.258   9.132  22.421  0.00  0.00    +0.000 A 
ATOM     23  C   UNL     1       0.630   9.353  21.099  0.00  0.00    +0.000 A 
ATOM     24  C   UNL     1       0.154  10.480  20.421  0.00  0.00    +0.000 A 
BRANCH  19  26
ATOM     25  C   UNL     1      -1.072  13.935  20.980  0.00  0.00    +0.000 C 
ATOM     26  C   UNL     1      -1.261  12.588  20.264  0.00  0.00    +0.000 C 
BRANCH  26  27
ATOM     27  S   UNL     1      -3.053  12.302  19.932  0.00  0.00    +0.000 S 
BRANCH  27  28
ATOM     28  C   UNL     1      -3.047  11.682  18.325  0.00  0.00    +0.000 A 
ATOM     29  N   UNL     1      -2.019  11.516  17.520  0.00  0.00    +0.000 NA
ATOM     30  N   UNL     1      -2.503  11.091  16.302  0.00  0.00    +0.000 NA
ATOM     31  C   UNL     1      -3.810  10.984  16.415  0.00  0.00    +0.000 A 
ATOM     32  N   UNL     1      -4.189  11.308  17.683  0.00  0.00    +0.000 N 
ATOM     33  C   UNL     1      -5.528  11.279  18.201  0.00  0.00    +0.000 C 
ENDBRANCH  27  28
ENDBRANCH  26  27
ENDBRANCH  19  26
ENDBRANCH   1  23
TORSDOF 6
ENDMDL
MODEL 5
REMARK VINA RESULT:      -9.1      2.349      3.463
REMARK  Name = 
REMARK  8 active torsions:
REMARK  status: ('A' for Active; 'I' for Inactive)
REMARK    1  A    between atoms: C_1  and  C_2
REMARK    2  A    between atoms: C_2  and  S_3
REMARK    3  A    between atoms: C_2  and  C_10
REMARK    4  A    between atoms: S_3  and  C_4
REMARK    5  A    between atoms: N_8  and  C_9
REMARK    6  A    between atoms: C_14  and  N_15
REMARK    7  A    between atoms: C_16  and  C_18
REMARK    8  A    between atoms: C_26  and  C_27
REMARK                            x       y       z     vdW  Elec       q    Type
REMARK                         _______ _______ _______ _____ _____    ______ ____
ROOT
ATOM      1  N   UNL     1       1.963   7.681  19.676  0.00  0.00    +0.000 N 
ATOM      2  C   UNL     1       2.137   6.340  19.957  0.00  0.00    +0.000 C 
ATOM      3  O   UNL     1       1.694   5.685  20.895  0.00  0.00    +0.000 OA
ATOM      4  H   UNL     1       2.471   8.015  18.855  0.00  0.00    +0.000 HD
ENDROOT
BRANCH   2   5
ATOM      5  C   UNL     1       3.056   5.672  19.013  0.00  0.00    +0.000 A 
ATOM      6  C   UNL     1       3.507   6.290  17.872  0.00  0.00    +0.000 A 
ATOM      7  C   UNL     1       4.367   5.565  17.051  0.00  0.00    +0.000 A 
ATOM      8  C   UNL     1       5.107   6.230  16.067  0.00  0.00    +0.000 A 
ATOM      9  C   UNL     1       5.982   5.521  15.251  0.00  0.00    +0.000 A 
ATOM     10  C   UNL     1       6.038   4.132  15.339  0.00  0.00    +0.000 A 
ATOM     11  C   UNL     1       5.266   3.450  16.287  0.00  0.00    +0.000 A 
ATOM     12  C   UNL     1       4.468   4.162  17.211  0.00  0.00    +0.000 A 
ATOM     13  C   UNL     1       3.737   3.609  18.286  0.00  0.00    +0.000 A 
ATOM     14  N   UNL     1       3.254   4.376  19.292  0.00  0.00    +0.000 NA
BRANCH  13  15
ATOM     15  C   UNL     1       3.087   2.243  18.252  0.00  0.00    +0.000 C 
ATOM     16  F   UNL     1       2.311   2.030  17.156  0.00  0.00    +0.000 F 
ATOM     17  F   UNL     1       3.953   1.200  18.339  0.00  0.00    +0.000 F 
ATOM     18  F   UNL     1       2.232   2.094  19.318  0.00  0.00    +0.000 F 
ENDBRANCH  13  15
ENDBRANCH   2   5
BRANCH   1  23
ATOM     19  C   UNL     1      -0.005  10.696  20.547  0.00  0.00    +0.000 A 
ATOM     20  C   UNL     1      -0.071  10.551  21.942  0.00  0.00    +0.000 A 
ATOM     21  C   UNL     1       0.519   9.464  22.583  0.00  0.00    +0.000 A 
ATOM     22  C   UNL     1       1.188   8.499  21.845  0.00  0.00    +0.000 A 
ATOM     23  C   UNL     1       1.284   8.621  20.463  0.00  0.00    +0.000 A 
ATOM     24  C   UNL     1       0.700   9.717  19.819  0.00  0.00    +0.000 A 
BRANCH  19  26
ATOM     25  C   UNL     1      -1.727  11.403  18.777  0.00  0.00    +0.000 C 
ATOM     26  C   UNL     1      -0.677  11.855  19.805  0.00  0.00    +0.000 C 
BRANCH  26  27
ATOM     27  S   UNL     1       0.632  12.850  18.968  0.00  0.00    +0.000 S 
BRANCH  27  28
ATOM     28  C   UNL     1       1.309  13.756  20.266  0.00  0.00    +0.000 A 
ATOM     29  N   UNL     1       2.223  13.377  21.133  0.00  0.00    +0.000 NA
ATOM     30  N   UNL     1       2.379  14.393  22.052  0.00  0.00    +0.000 NA
ATOM     31  C   UNL     1       1.573  15.370  21.695  0.00  0.00    +0.000 A 
ATOM     32  N   UNL     1       0.911  15.026  20.555  0.00  0.00    +0.000 N 
ATOM     33  C   UNL     1      -0.028  15.845  19.841  0.00  0.00    +0.000 C 
ENDBRANCH  27  28
ENDBRANCH  26  27
ENDBRANCH  19  26
ENDBRANCH   1  23
TORSDOF 6
ENDMDL
MODEL 6
REMARK VINA RESULT:      -9.1      4.137      9.251
REMARK  Name = 
REMARK  8 active torsions:
REMARK  status: ('A' for Active; 'I' for Inactive)
REMARK    1  A    between atoms: C_1  and  C_2
REMARK    2  A    between atoms: C_2  and  S_3
REMARK    3  A    between atoms: C_2  and  C_10
REMARK    4  A    between atoms: S_3  and  C_4
REMARK    5  A    between atoms: N_8  and  C_9
REMARK    6  A    between atoms: C_14  and  N_15
REMARK    7  A    between atoms: C_16  and  C_18
REMARK    8  A    between atoms: C_26  and  C_27
REMARK                            x       y       z     vdW  Elec       q    Type
REMARK                         _______ _______ _______ _____ _____    ______ ____
ROOT
ATOM      1  N   UNL     1       2.135   6.780  18.867  0.00  0.00    +0.000 N 
ATOM      2  C   UNL     1       1.826   6.917  20.205  0.00  0.00    +0.000 C 
ATOM      3  O   UNL     1       1.987   6.117  21.121  0.00  0.00    +0.000 OA
ATOM      4  H   UNL     1       1.864   7.572  18.282  0.00  0.00    +0.000 HD
ENDROOT
BRANCH   2   5
ATOM      5  C   UNL     1       1.135   8.188  20.506  0.00  0.00    +0.000 A 
ATOM      6  C   UNL     1       0.480   8.400  21.695  0.00  0.00    +0.000 A 
ATOM      7  C   UNL     1      -0.141   9.633  21.871  0.00  0.00    +0.000 A 
ATOM      8  C   UNL     1      -0.537  10.032  23.152  0.00  0.00    +0.000 A 
ATOM      9  C   UNL     1      -1.143  11.268  23.345  0.00  0.00    +0.000 A 
ATOM     10  C   UNL     1      -1.458  12.063  22.245  0.00  0.00    +0.000 A 
ATOM     11  C   UNL     1      -1.111  11.654  20.952  0.00  0.00    +0.000 A 
ATOM     12  C   UNL     1      -0.379  10.462  20.747  0.00  0.00    +0.000 A 
ATOM     13  C   UNL     1       0.133   9.995  19.516  0.00  0.00    +0.000 A 
ATOM     14  N   UNL     1       1.069   9.019  19.456  0.00  0.00    +0.000 NA
BRANCH  13  15
ATOM     15  C   UNL     1      -0.543  10.218  18.181  0.00  0.00    +0.000 C 
ATOM     16  F   UNL     1      -0.545  11.516  17.776  0.00  0.00    +0.000 F 
ATOM     17  F   UNL     1      -0.038   9.480  17.159  0.00  0.00    +0.000 F 
ATOM     18  F   UNL     1      -1.872   9.875  18.255  0.00  0.00    +0.000 F 
ENDBRANCH  13  15
ENDBRANCH   2   5
BRANCH   1  23
ATOM     19  C   UNL     1       4.338   4.679  16.756  0.00  0.00    +0.000 A 
ATOM     20  C   UNL     1       3.727   3.427  16.933  0.00  0.00    +0.000 A 
ATOM     21  C   UNL     1       2.608   3.280  17.750  0.00  0.00    +0.000 A 
ATOM     22  C   UNL     1       2.074   4.380  18.405  0.00  0.00    +0.000 A 
ATOM     23  C   UNL     1       2.647   5.637  18.239  0.00  0.00    +0.000 A 
ATOM     24  C   UNL     1       3.766   5.787  17.412  0.00  0.00    +0.000 A 
BRANCH  19  26
ATOM     25  C   UNL     1       5.667   3.922  14.692  0.00  0.00    +0.000 C 
ATOM     26  C   UNL     1       5.594   4.870  15.900  0.00  0.00    +0.000 C 
BRANCH  26  27
ATOM     27  S   UNL     1       7.074   4.631  16.974  0.00  0.00    +0.000 S 
BRANCH  27  28
ATOM     28  C   UNL     1       7.468   6.240  17.442  0.00  0.00    +0.000 A 
ATOM     29  N   UNL     1       7.421   7.334  16.713  0.00  0.00    +0.000 NA
ATOM     30  N   UNL     1       7.924   8.369  17.473  0.00  0.00    +0.000 NA
ATOM     31  C   UNL     1       8.233   7.873  18.652  0.00  0.00    +0.000 A 
ATOM     32  N   UNL     1       7.925   6.546  18.688  0.00  0.00    +0.000 N 
ATOM     33  C   UNL     1       8.087   5.669  19.814  0.00  0.00    +0.000 C 
ENDBRANCH  27  28
ENDBRANCH  26  27
ENDBRANCH  19  26
ENDBRANCH   1  23
TORSDOF 6
ENDMDL
MODEL 7
REMARK VINA RESULT:      -9.0      3.091      3.882
REMARK  Name = 
REMARK  8 active torsions:
REMARK  status: ('A' for Active; 'I' for Inactive)
REMARK    1  A    between atoms: C_1  and  C_2
REMARK    2  A    between atoms: C_2  and  S_3
REMARK    3  A    between atoms: C_2  and  C_10
REMARK    4  A    between atoms: S_3  and  C_4
REMARK    5  A    between atoms: N_8  and  C_9
REMARK    6  A    between atoms: C_14  and  N_15
REMARK    7  A    between atoms: C_16  and  C_18
REMARK    8  A    between atoms: C_26  and  C_27
REMARK                            x       y       z     vdW  Elec       q    Type
REMARK                         _______ _______ _______ _____ _____    ______ ____
ROOT
ATOM      1  N   UNL     1       1.532   9.381  18.834  0.00  0.00    +0.000 N 
ATOM      2  C   UNL     1       1.738   8.374  19.755  0.00  0.00    +0.000 C 
ATOM      3  O   UNL     1       1.472   8.357  20.953  0.00  0.00    +0.000 OA
ATOM      4  H   UNL     1       1.881   9.179  17.895  0.00  0.00    +0.000 HD
ENDROOT
BRANCH   2   5
ATOM      5  C   UNL     1       2.454   7.214  19.185  0.00  0.00    +0.000 A 
ATOM      6  C   UNL     1       3.133   7.289  17.994  0.00  0.00    +0.000 A 
ATOM      7  C   UNL     1       3.769   6.134  17.548  0.00  0.00    +0.000 A 
ATOM      8  C   UNL     1       4.729   6.221  16.533  0.00  0.00    +0.000 A 
ATOM      9  C   UNL     1       5.384   5.077  16.089  0.00  0.00    +0.000 A 
ATOM     10  C   UNL     1       5.004   3.829  16.577  0.00  0.00    +0.000 A 
ATOM     11  C   UNL     1       4.010   3.723  17.557  0.00  0.00    +0.000 A 
ATOM     12  C   UNL     1       3.423   4.883  18.114  0.00  0.00    +0.000 A 
ATOM     13  C   UNL     1       2.502   4.923  19.184  0.00  0.00    +0.000 A 
ATOM     14  N   UNL     1       2.228   6.071  19.848  0.00  0.00    +0.000 NA
BRANCH  13  15
ATOM     15  C   UNL     1       1.465   3.853  19.447  0.00  0.00    +0.000 C 
ATOM     16  F   UNL     1       0.747   3.501  18.347  0.00  0.00    +0.000 F 
ATOM     17  F   UNL     1       1.954   2.709  19.991  0.00  0.00    +0.000 F 
ATOM     18  F   UNL     1       0.526   4.308  20.343  0.00  0.00    +0.000 F 
ENDBRANCH  13  15
ENDBRANCH   2   5
BRANCH   1  23
ATOM     19  C   UNL     1      -0.770  12.018  20.047  0.00  0.00    +0.000 A 
ATOM     20  C   UNL     1      -0.070  13.163  19.634  0.00  0.00    +0.000 A 
ATOM     21  C   UNL     1       1.152  13.062  18.973  0.00  0.00    +0.000 A 
ATOM     22  C   UNL     1       1.701  11.816  18.709  0.00  0.00    +0.000 A 
ATOM     23  C   UNL     1       1.026  10.662  19.092  0.00  0.00    +0.000 A 
ATOM     24  C   UNL     1      -0.206  10.762  19.748  0.00  0.00    +0.000 A 
BRANCH  19  26
ATOM     25  C   UNL     1      -3.285  12.530  19.943  0.00  0.00    +0.000 C 
ATOM     26  C   UNL     1      -2.094  12.092  20.812  0.00  0.00    +0.000 C 
BRANCH  26  27
ATOM     27  S   UNL     1      -1.888  13.260  22.225  0.00  0.00    +0.000 S 
BRANCH  27  28
ATOM     28  C   UNL     1      -3.310  12.985  23.155  0.00  0.00    +0.000 A 
ATOM     29  N   UNL     1      -3.603  11.945  23.907  0.00  0.00    +0.000 NA
ATOM     30  N   UNL     1      -4.889  12.114  24.376  0.00  0.00    +0.000 NA
ATOM     31  C   UNL     1      -5.325  13.266  23.917  0.00  0.00    +0.000 A 
ATOM     32  N   UNL     1      -4.350  13.865  23.177  0.00  0.00    +0.000 N 
ATOM     33  C   UNL     1      -4.437  15.150  22.541  0.00  0.00    +0.000 C 
ENDBRANCH  27  28
ENDBRANCH  26  27
ENDBRANCH  19  26
ENDBRANCH   1  23
TORSDOF 6
ENDMDL
MODEL 8
REMARK VINA RESULT:      -8.9      2.906      4.245
REMARK  Name = 
REMARK  8 active torsions:
REMARK  status: ('A' for Active; 'I' for Inactive)
REMARK    1  A    between atoms: C_1  and  C_2
REMARK    2  A    between atoms: C_2  and  S_3
REMARK    3  A    between atoms: C_2  and  C_10
REMARK    4  A    between atoms: S_3  and  C_4
REMARK    5  A    between atoms: N_8  and  C_9
REMARK    6  A    between atoms: C_14  and  N_15
REMARK    7  A    between atoms: C_16  and  C_18
REMARK    8  A    between atoms: C_26  and  C_27
REMARK                            x       y       z     vdW  Elec       q    Type
REMARK                         _______ _______ _______ _____ _____    ______ ____
ROOT
ATOM      1  N   UNL     1       1.554   8.514  20.558  0.00  0.00    +0.000 N 
ATOM      2  C   UNL     1       1.785   8.549  19.198  0.00  0.00    +0.000 C 
ATOM      3  O   UNL     1       1.375   9.353  18.366  0.00  0.00    +0.000 OA
ATOM      4  H   UNL     1       1.969   7.716  21.042  0.00  0.00    +0.000 HD
ENDROOT
BRANCH   2   5
ATOM      5  C   UNL     1       2.571   7.393  18.720  0.00  0.00    +0.000 A 
ATOM      6  C   UNL     1       3.310   7.440  17.563  0.00  0.00    +0.000 A 
ATOM      7  C   UNL     1       4.009   6.291  17.205  0.00  0.00    +0.000 A 
ATOM      8  C   UNL     1       5.019   6.368  16.239  0.00  0.00    +0.000 A 
ATOM      9  C   UNL     1       5.736   5.231  15.883  0.00  0.00    +0.000 A 
ATOM     10  C   UNL     1       5.375   3.993  16.409  0.00  0.00    +0.000 A 
ATOM     11  C   UNL     1       4.334   3.894  17.340  0.00  0.00    +0.000 A 
ATOM     12  C   UNL     1       3.677   5.054  17.811  0.00  0.00    +0.000 A 
ATOM     13  C   UNL     1       2.699   5.108  18.828  0.00  0.00    +0.000 A 
ATOM     14  N   UNL     1       2.350   6.273  19.423  0.00  0.00    +0.000 NA
BRANCH  13  15
ATOM     15  C   UNL     1       1.688   4.012  19.087  0.00  0.00    +0.000 C 
ATOM     16  F   UNL     1       0.755   4.336  20.022  0.00  0.00    +0.000 F 
ATOM     17  F   UNL     1       1.021   3.584  17.985  0.00  0.00    +0.000 F 
ATOM     18  F   UNL     1       2.313   2.896  19.591  0.00  0.00    +0.000 F 
ENDBRANCH  13  15
ENDBRANCH   2   5
BRANCH   1  23
ATOM     19  C   UNL     1      -0.317  11.577  21.477  0.00  0.00    +0.000 A 
ATOM     20  C   UNL     1      -0.904  11.154  22.680  0.00  0.00    +0.000 A 
ATOM     21  C   UNL     1      -0.693   9.868  23.173  0.00  0.00    +0.000 A 
ATOM     22  C   UNL     1       0.112   8.978  22.476  0.00  0.00    +0.000 A 
ATOM     23  C   UNL     1       0.721   9.372  21.289  0.00  0.00    +0.000 A 
ATOM     24  C   UNL     1       0.515  10.665  20.797  0.00  0.00    +0.000 A 
BRANCH  19  26
ATOM     25  C   UNL     1      -1.914  13.101  20.162  0.00  0.00    +0.000 C 
ATOM     26  C   UNL     1      -0.562  12.967  20.883  0.00  0.00    +0.000 C 
BRANCH  26  27
ATOM     27  S   UNL     1       0.812  13.354  19.715  0.00  0.00    +0.000 S 
BRANCH  27  28
ATOM     28  C   UNL     1       2.009  14.034  20.749  0.00  0.00    +0.000 A 
ATOM     29  N   UNL     1       1.942  14.239  22.047  0.00  0.00    +0.000 NA
ATOM     30  N   UNL     1       3.091  14.899  22.428  0.00  0.00    +0.000 NA
ATOM     31  C   UNL     1       3.833  15.048  21.352  0.00  0.00    +0.000 A 
ATOM     32  N   UNL     1       3.207  14.483  20.281  0.00  0.00    +0.000 N 
ATOM     33  C   UNL     1       3.718  14.414  18.940  0.00  0.00    +0.000 C 
ENDBRANCH  27  28
ENDBRANCH  26  27
ENDBRANCH  19  26
ENDBRANCH   1  23
TORSDOF 6
ENDMDL
MODEL 9
REMARK VINA RESULT:      -8.9      3.280      4.108
REMARK  Name = 
REMARK  8 active torsions:
REMARK  status: ('A' for Active; 'I' for Inactive)
REMARK    1  A    between atoms: C_1  and  C_2
REMARK    2  A    between atoms: C_2  and  S_3
REMARK    3  A    between atoms: C_2  and  C_10
REMARK    4  A    between atoms: S_3  and  C_4
REMARK    5  A    between atoms: N_8  and  C_9
REMARK    6  A    between atoms: C_14  and  N_15
REMARK    7  A    between atoms: C_16  and  C_18
REMARK    8  A    between atoms: C_26  and  C_27
REMARK                            x       y       z     vdW  Elec       q    Type
REMARK                         _______ _______ _______ _____ _____    ______ ____
ROOT
ATOM      1  N   UNL     1       1.284   9.275  18.509  0.00  0.00    +0.000 N 
ATOM      2  C   UNL     1       1.702   8.379  19.472  0.00  0.00    +0.000 C 
ATOM      3  O   UNL     1       1.555   8.429  20.689  0.00  0.00    +0.000 OA
ATOM      4  H   UNL     1       1.564   9.040  17.555  0.00  0.00    +0.000 HD
ENDROOT
BRANCH   2   5
ATOM      5  C   UNL     1       2.503   7.270  18.913  0.00  0.00    +0.000 A 
ATOM      6  C   UNL     1       3.234   7.407  17.758  0.00  0.00    +0.000 A 
ATOM      7  C   UNL     1       3.948   6.296  17.318  0.00  0.00    +0.000 A 
ATOM      8  C   UNL     1       4.950   6.455  16.355  0.00  0.00    +0.000 A 
ATOM      9  C   UNL     1       5.682   5.356  15.918  0.00  0.00    +0.000 A 
ATOM     10  C   UNL     1       5.343   4.080  16.360  0.00  0.00    +0.000 A 
ATOM     11  C   UNL     1       4.310   3.901  17.288  0.00  0.00    +0.000 A 
ATOM     12  C   UNL     1       3.639   5.016  17.841  0.00  0.00    +0.000 A 
ATOM     13  C   UNL     1       2.667   4.985  18.864  0.00  0.00    +0.000 A 
ATOM     14  N   UNL     1       2.303   6.102  19.539  0.00  0.00    +0.000 NA
BRANCH  13  15
ATOM     15  C   UNL     1       1.674   3.859  19.053  0.00  0.00    +0.000 C 
ATOM     16  F   UNL     1       0.976   3.547  17.928  0.00  0.00    +0.000 F 
ATOM     17  F   UNL     1       2.209   2.704  19.528  0.00  0.00    +0.000 F 
ATOM     18  F   UNL     1       0.714   4.218  19.969  0.00  0.00    +0.000 F 
ENDBRANCH  13  15
ENDBRANCH   2   5
BRANCH   1  23
ATOM     19  C   UNL     1       0.871  12.902  19.140  0.00  0.00    +0.000 A 
ATOM     20  C   UNL     1      -0.530  12.984  19.188  0.00  0.00    +0.000 A 
ATOM     21  C   UNL     1      -1.326  11.856  19.003  0.00  0.00    +0.000 A 
ATOM     22  C   UNL     1      -0.740  10.621  18.767  0.00  0.00    +0.000 A 
ATOM     23  C   UNL     1       0.646  10.503  18.728  0.00  0.00    +0.000 A 
ATOM     24  C   UNL     1       1.446  11.634  18.923  0.00  0.00    +0.000 A 
BRANCH  19  26
ATOM     25  C   UNL     1       2.851  13.965  20.383  0.00  0.00    +0.000 C 
ATOM     26  C   UNL     1       1.775  14.128  19.297  0.00  0.00    +0.000 C 
BRANCH  26  27
ATOM     27  S   UNL     1       0.717  15.590  19.679  0.00  0.00    +0.000 S 
BRANCH  27  28
ATOM     28  C   UNL     1       1.132  16.697  18.427  0.00  0.00    +0.000 A 
ATOM     29  N   UNL     1       2.298  16.860  17.839  0.00  0.00    +0.000 NA
ATOM     30  N   UNL     1       2.187  17.927  16.973  0.00  0.00    +0.000 NA
ATOM     31  C   UNL     1       0.947  18.360  17.043  0.00  0.00    +0.000 A 
ATOM     32  N   UNL     1       0.239  17.589  17.916  0.00  0.00    +0.000 N 
ATOM     33  C   UNL     1      -1.155  17.729  18.233  0.00  0.00    +0.000 C 
ENDBRANCH  27  28
ENDBRANCH  26  27
ENDBRANCH  19  26
ENDBRANCH   1  23
TORSDOF 6
ENDMDL
