MODEL 1
REMARK VINA RESULT:     -10.6      0.000      0.000
REMARK  Name = 
REMARK  8 active torsions:
REMARK  status: ('A' for Active; 'I' for Inactive)
REMARK    1  A    between atoms: C_1  and  N_2
REMARK    2  A    between atoms: C_6  and  C_7
REMARK    3  A    between atoms: C_7  and  C_8
REMARK    4  A    between atoms: C_8  and  C_9
REMARK    5  A    between atoms: C_13  and  N_14
REMARK    6  A    between atoms: C_19  and  C_20
REMARK    7  A    between atoms: C_20  and  N_21
REMARK    8  A    between atoms: C_32  and  C_33
REMARK                            x       y       z     vdW  Elec       q    Type
REMARK                         _______ _______ _______ _____ _____    ______ ____
ROOT
ATOM      1  N   UNL     1       2.360   7.310  19.352  0.00  0.00    +0.000 N 
ATOM      2  C   UNL     1       1.613   7.669  20.540  0.00  0.00    +0.000 C 
ATOM      3  C   UNL     1       1.035   8.995  20.227  0.00  0.00    +0.000 A 
ATOM      4  C   UNL     1       1.315   9.328  18.909  0.00  0.00    +0.000 A 
ATOM      5  C   UNL     1       0.807  10.497  18.357  0.00  0.00    +0.000 A 
ATOM      6  C   UNL     1       0.007  11.330  19.170  0.00  0.00    +0.000 A 
ATOM      7  C   UNL     1      -0.220  10.977  20.527  0.00  0.00    +0.000 A 
ATOM      8  C   UNL     1       0.305   9.805  21.081  0.00  0.00    +0.000 A 
ATOM      9  C   UNL     1       2.201   8.267  18.340  0.00  0.00    +0.000 C 
ATOM     10  O   UNL     1       2.669   8.306  17.221  0.00  0.00    +0.000 OA
ENDROOT
BRANCH   1  15
ATOM     11  C   UNL     1       5.444   5.241  18.842  0.00  0.00    +0.000 A 
ATOM     12  C   UNL     1       4.965   3.985  19.237  0.00  0.00    +0.000 A 
ATOM     13  C   UNL     1       3.656   3.819  19.722  0.00  0.00    +0.000 A 
ATOM     14  C   UNL     1       2.766   4.900  19.804  0.00  0.00    +0.000 A 
ATOM     15  C   UNL     1       3.188   6.161  19.405  0.00  0.00    +0.000 A 
ATOM     16  C   UNL     1       4.524   6.290  18.972  0.00  0.00    +0.000 A 
BRANCH  11  17
ATOM     17  C   UNL     1       6.929   5.548  18.275  0.00  0.00    +0.000 C 
ATOM     18  C   UNL     1       7.975   5.952  19.347  0.00  0.00    +0.000 C 
ATOM     19  O   UNL     1       8.194   7.244  18.752  0.00  0.00    +0.000 OA
ATOM     20  C   UNL     1       7.213   6.983  17.727  0.00  0.00    +0.000 C 
BRANCH  17  21
ATOM     21  C   UNL     1       7.419   4.431  17.316  0.00  0.00    +0.000 C 
BRANCH  21  27
ATOM     22  C   UNL     1       4.776   3.365  15.926  0.00  0.00    +0.000 C 
ATOM     23  N   UNL     1       5.838   4.117  15.317  0.00  0.00    +0.000 N 
ATOM     24  C   UNL     1       5.879   4.475  14.002  0.00  0.00    +0.000 A 
ATOM     25  N   UNL     1       6.995   5.115  13.756  0.00  0.00    +0.000 NA
ATOM     26  N   UNL     1       7.707   5.170  14.928  0.00  0.00    +0.000 NA
ATOM     27  C   UNL     1       7.001   4.596  15.885  0.00  0.00    +0.000 A 
ENDBRANCH  21  27
ENDBRANCH  17  21
ENDBRANCH  11  17
ENDBRANCH   1  15
BRANCH   8  28
ATOM     28  C   UNL     1       0.085   9.473  22.538  0.00  0.00    +0.000 C 
ATOM     29  F   UNL     1       1.225   9.175  23.215  0.00  0.00    +0.000 F 
ATOM     30  F   UNL     1      -0.500  10.497  23.216  0.00  0.00    +0.000 F 
ATOM     31  F   UNL     1      -0.728   8.395  22.703  0.00  0.00    +0.000 F 
ENDBRANCH   8  28
BRANCH   6  32
ATOM     32  C   UNL     1      -0.651  12.589  18.624  0.00  0.00    +0.000 C 
BRANCH  32  33
ATOM     33  N   UNL     1      -2.080  12.781  18.909  0.00  0.00    +0.000 NA
ATOM     34  C   UNL     1      -2.367  12.970  20.328  0.00  0.00    +0.000 C 
ATOM     35  C   UNL     1      -3.834  13.341  20.574  0.00  0.00    +0.000 C 
ATOM     36  C   UNL     1      -4.778  12.389  19.900  0.00  0.00    +0.000 A 
ATOM     37  C   UNL     1      -6.089  12.224  20.353  0.00  0.00    +0.000 A 
ATOM     38  C   UNL     1      -6.941  11.348  19.690  0.00  0.00    +0.000 A 
ATOM     39  C   UNL     1      -6.453  10.677  18.583  0.00  0.00    +0.000 A 
ATOM     40  N   UNL     1      -5.196  10.821  18.111  0.00  0.00    +0.000 NA
ATOM     41  C   UNL     1      -4.375  11.682  18.767  0.00  0.00    +0.000 A 
ATOM     42  C   UNL     1      -2.942  11.768  18.267  0.00  0.00    +0.000 C 
ENDBRANCH  32  33
ENDBRANCH   6  32
TORSDOF 7
ENDMDL
MODEL 2
REMARK VINA RESULT:     -10.4      3.591     11.553
REMARK  Name = 
REMARK  8 active torsions:
REMARK  status: ('A' for Active; 'I' for Inactive)
REMARK    1  A    between atoms: C_1  and  N_2
REMARK    2  A    between atoms: C_6  and  C_7
REMARK    3  A    between atoms: C_7  and  C_8
REMARK    4  A    between atoms: C_8  and  C_9
REMARK    5  A    between atoms: C_13  and  N_14
REMARK    6  A    between atoms: C_19  and  C_20
REMARK    7  A    between atoms: C_20  and  N_21
REMARK    8  A    between atoms: C_32  and  C_33
REMARK                            x       y       z     vdW  Elec       q    Type
REMARK                         _______ _______ _______ _____ _____    ______ ____
ROOT
ATOM      1  N   UNL     1      -2.086  12.555  20.954  0.00  0.00    +0.000 N 
ATOM      2  C   UNL     1      -2.623  11.849  19.808  0.00  0.00    +0.000 C 
ATOM      3  C   UNL     1      -1.458  11.151  19.224  0.00  0.00    +0.000 A 
ATOM      4  C   UNL     1      -0.348  11.331  20.039  0.00  0.00    +0.000 A 
ATOM      5  C   UNL     1       0.854  10.702  19.738  0.00  0.00    +0.000 A 
ATOM      6  C   UNL     1       0.913   9.884  18.588  0.00  0.00    +0.000 A 
ATOM      7  C   UNL     1      -0.231   9.761  17.755  0.00  0.00    +0.000 A 
ATOM      8  C   UNL     1      -1.435  10.407  18.055  0.00  0.00    +0.000 A 
ATOM      9  C   UNL     1      -0.727  12.264  21.142  0.00  0.00    +0.000 C 
ATOM     10  O   UNL     1       0.048  12.666  21.985  0.00  0.00    +0.000 OA
ENDROOT
BRANCH   1  15
ATOM     11  C   UNL     1      -5.260  13.900  22.426  0.00  0.00    +0.000 A 
ATOM     12  C   UNL     1      -4.840  15.189  22.780  0.00  0.00    +0.000 A 
ATOM     13  C   UNL     1      -3.510  15.605  22.590  0.00  0.00    +0.000 A 
ATOM     14  C   UNL     1      -2.556  14.753  22.013  0.00  0.00    +0.000 A 
ATOM     15  C   UNL     1      -2.929  13.474  21.629  0.00  0.00    +0.000 A 
ATOM     16  C   UNL     1      -4.260  13.083  21.882  0.00  0.00    +0.000 A 
BRANCH  11  17
ATOM     17  C   UNL     1      -6.759  13.316  22.604  0.00  0.00    +0.000 C 
ATOM     18  C   UNL     1      -7.724  14.209  23.428  0.00  0.00    +0.000 C 
ATOM     19  O   UNL     1      -7.916  13.199  24.435  0.00  0.00    +0.000 OA
ATOM     20  C   UNL     1      -7.008  12.301  23.765  0.00  0.00    +0.000 C 
BRANCH  17  21
ATOM     21  C   UNL     1      -7.353  12.840  21.252  0.00  0.00    +0.000 C 
BRANCH  21  27
ATOM     22  C   UNL     1      -6.618  11.114  18.696  0.00  0.00    +0.000 C 
ATOM     23  N   UNL     1      -7.113  10.636  19.957  0.00  0.00    +0.000 N 
ATOM     24  C   UNL     1      -7.370   9.328  20.243  0.00  0.00    +0.000 A 
ATOM     25  N   UNL     1      -7.848   9.230  21.459  0.00  0.00    +0.000 NA
ATOM     26  N   UNL     1      -7.916  10.498  21.979  0.00  0.00    +0.000 NA
ATOM     27  C   UNL     1      -7.445  11.352  21.090  0.00  0.00    +0.000 A 
ENDBRANCH  21  27
ENDBRANCH  17  21
ENDBRANCH  11  17
ENDBRANCH   1  15
BRANCH   8  28
ATOM     28  C   UNL     1      -2.624  10.296  17.131  0.00  0.00    +0.000 C 
ATOM     29  F   UNL     1      -3.654   9.569  17.641  0.00  0.00    +0.000 F 
ATOM     30  F   UNL     1      -3.142  11.512  16.812  0.00  0.00    +0.000 F 
ATOM     31  F   UNL     1      -2.306   9.697  15.952  0.00  0.00    +0.000 F 
ENDBRANCH   8  28
BRANCH   6  32
ATOM     32  C   UNL     1       2.165   9.099  18.226  0.00  0.00    +0.000 C 
BRANCH  32  33
ATOM     33  N   UNL     1       2.184   7.668  18.559  0.00  0.00    +0.000 NA
ATOM     34  C   UNL     1       2.056   7.405  19.989  0.00  0.00    +0.000 C 
ATOM     35  C   UNL     1       1.901   5.908  20.287  0.00  0.00    +0.000 C 
ATOM     36  C   UNL     1       2.970   5.087  19.626  0.00  0.00    +0.000 A 
ATOM     37  C   UNL     1       3.326   3.829  20.117  0.00  0.00    +0.000 A 
ATOM     38  C   UNL     1       4.306   3.089  19.465  0.00  0.00    +0.000 A 
ATOM     39  C   UNL     1       4.886   3.630  18.332  0.00  0.00    +0.000 A 
ATOM     40  N   UNL     1       4.558   4.837  17.823  0.00  0.00    +0.000 NA
ATOM     41  C   UNL     1       3.597   5.549  18.468  0.00  0.00    +0.000 A 
ATOM     42  C   UNL     1       3.301   6.938  17.926  0.00  0.00    +0.000 C 
ENDBRANCH  32  33
ENDBRANCH   6  32
TORSDOF 7
ENDMDL
MODEL 3
REMARK VINA RESULT:     -10.2      2.269      3.803
REMARK  Name = 
REMARK  8 active torsions:
REMARK  status: ('A' for Active; 'I' for Inactive)
REMARK    1  A    between atoms: C_1  and  N_2
REMARK    2  A    between atoms: C_6  and  C_7
REMARK    3  A    between atoms: C_7  and  C_8
REMARK    4  A    between atoms: C_8  and  C_9
REMARK    5  A    between atoms: C_13  and  N_14
REMARK    6  A    between atoms: C_19  and  C_20
REMARK    7  A    between atoms: C_20  and  N_21
REMARK    8  A    between atoms: C_32  and  C_33
REMARK                            x       y       z     vdW  Elec       q    Type
REMARK                         _______ _______ _______ _____ _____    ______ ____
ROOT
ATOM      1  N   UNL     1       2.348   7.320  19.324  0.00  0.00    +0.000 N 
ATOM      2  C   UNL     1       1.599   7.703  20.503  0.00  0.00    +0.000 C 
ATOM      3  C   UNL     1       1.017   9.019  20.159  0.00  0.00    +0.000 A 
ATOM      4  C   UNL     1       1.298   9.323  18.834  0.00  0.00    +0.000 A 
ATOM      5  C   UNL     1       0.788  10.478  18.254  0.00  0.00    +0.000 A 
ATOM      6  C   UNL     1      -0.016  11.327  19.048  0.00  0.00    +0.000 A 
ATOM      7  C   UNL     1      -0.244  11.004  20.412  0.00  0.00    +0.000 A 
ATOM      8  C   UNL     1       0.283   9.847  20.994  0.00  0.00    +0.000 A 
ATOM      9  C   UNL     1       2.188   8.253  18.290  0.00  0.00    +0.000 C 
ATOM     10  O   UNL     1       2.658   8.268  17.171  0.00  0.00    +0.000 OA
ENDROOT
BRANCH   1  15
ATOM     11  C   UNL     1       5.438   5.247  18.860  0.00  0.00    +0.000 A 
ATOM     12  C   UNL     1       4.963   4.000  19.287  0.00  0.00    +0.000 A 
ATOM     13  C   UNL     1       3.655   3.842  19.777  0.00  0.00    +0.000 A 
ATOM     14  C   UNL     1       2.762   4.923  19.833  0.00  0.00    +0.000 A 
ATOM     15  C   UNL     1       3.180   6.174  19.404  0.00  0.00    +0.000 A 
ATOM     16  C   UNL     1       4.514   6.297  18.966  0.00  0.00    +0.000 A 
BRANCH  11  17
ATOM     17  C   UNL     1       6.921   5.545  18.285  0.00  0.00    +0.000 C 
ATOM     18  C   UNL     1       7.978   5.938  19.351  0.00  0.00    +0.000 C 
ATOM     19  O   UNL     1       8.202   7.230  18.758  0.00  0.00    +0.000 OA
ATOM     20  C   UNL     1       7.213   6.979  17.739  0.00  0.00    +0.000 C 
BRANCH  17  21
ATOM     21  C   UNL     1       7.397   4.427  17.320  0.00  0.00    +0.000 C 
BRANCH  21  27
ATOM     22  C   UNL     1       4.681   3.518  15.957  0.00  0.00    +0.000 C 
ATOM     23  N   UNL     1       5.785   4.195  15.334  0.00  0.00    +0.000 N 
ATOM     24  C   UNL     1       5.840   4.537  14.015  0.00  0.00    +0.000 A 
ATOM     25  N   UNL     1       6.993   5.102  13.756  0.00  0.00    +0.000 NA
ATOM     26  N   UNL     1       7.715   5.123  14.923  0.00  0.00    +0.000 NA
ATOM     27  C   UNL     1       6.980   4.605  15.890  0.00  0.00    +0.000 A 
ENDBRANCH  21  27
ENDBRANCH  17  21
ENDBRANCH  11  17
ENDBRANCH   1  15
BRANCH   8  28
ATOM     28  C   UNL     1       0.063   9.547  22.457  0.00  0.00    +0.000 C 
ATOM     29  F   UNL     1      -0.770   8.497  22.687  0.00  0.00    +0.000 F 
ATOM     30  F   UNL     1       1.224   9.257  23.103  0.00  0.00    +0.000 F 
ATOM     31  F   UNL     1      -0.488  10.599  23.121  0.00  0.00    +0.000 F 
ENDBRANCH   8  28
BRANCH   6  32
ATOM     32  C   UNL     1      -0.677  12.572  18.473  0.00  0.00    +0.000 C 
BRANCH  32  33
ATOM     33  N   UNL     1       0.104  13.817  18.486  0.00  0.00    +0.000 NA
ATOM     34  C   UNL     1       1.536  13.599  18.670  0.00  0.00    +0.000 C 
ATOM     35  C   UNL     1       2.340  14.894  18.503  0.00  0.00    +0.000 C 
ATOM     36  C   UNL     1       1.796  16.010  19.347  0.00  0.00    +0.000 A 
ATOM     37  C   UNL     1       2.599  17.085  19.733  0.00  0.00    +0.000 A 
ATOM     38  C   UNL     1       2.054  18.110  20.498  0.00  0.00    +0.000 A 
ATOM     39  C   UNL     1       0.715  18.031  20.836  0.00  0.00    +0.000 A 
ATOM     40  N   UNL     1      -0.093  17.012  20.470  0.00  0.00    +0.000 NA
ATOM     41  C   UNL     1       0.451  16.018  19.721  0.00  0.00    +0.000 A 
ATOM     42  C   UNL     1      -0.454  14.844  19.388  0.00  0.00    +0.000 C 
ENDBRANCH  32  33
ENDBRANCH   6  32
TORSDOF 7
ENDMDL
MODEL 4
REMARK VINA RESULT:     -10.1      1.435      2.372
REMARK  Name = 
REMARK  8 active torsions:
REMARK  status: ('A' for Active; 'I' for Inactive)
REMARK    1  A    between atoms: C_1  and  N_2
REMARK    2  A    between atoms: C_6  and  C_7
REMARK    3  A    between atoms: C_7  and  C_8
REMARK    4  A    between atoms: C_8  and  C_9
REMARK    5  A    between atoms: C_13  and  N_14
REMARK    6  A    between atoms: C_19  and  C_20
REMARK    7  A    between atoms: C_20  and  N_21
REMARK    8  A    between atoms: C_32  and  C_33
REMARK                            x       y       z     vdW  Elec       q    Type
REMARK                         _______ _______ _______ _____ _____    ______ ____
ROOT
ATOM      1  N   UNL     1       2.246   7.339  19.237  0.00  0.00    +0.000 N 
ATOM      2  C   UNL     1       1.559   7.658  20.472  0.00  0.00    +0.000 C 
ATOM      3  C   UNL     1       1.036   9.026  20.262  0.00  0.00    +0.000 A 
ATOM      4  C   UNL     1       1.287   9.427  18.957  0.00  0.00    +0.000 A 
ATOM      5  C   UNL     1       0.818  10.650  18.495  0.00  0.00    +0.000 A 
ATOM      6  C   UNL     1       0.088  11.468  19.386  0.00  0.00    +0.000 A 
ATOM      7  C   UNL     1      -0.110  11.042  20.727  0.00  0.00    +0.000 A 
ATOM      8  C   UNL     1       0.376   9.815  21.190  0.00  0.00    +0.000 A 
ATOM      9  C   UNL     1       2.099   8.363  18.291  0.00  0.00    +0.000 C 
ATOM     10  O   UNL     1       2.530   8.450  17.160  0.00  0.00    +0.000 OA
ENDROOT
BRANCH   1  15
ATOM     11  C   UNL     1       4.692   4.855  17.860  0.00  0.00    +0.000 A 
ATOM     12  C   UNL     1       4.522   3.809  18.776  0.00  0.00    +0.000 A 
ATOM     13  C   UNL     1       3.652   3.930  19.874  0.00  0.00    +0.000 A 
ATOM     14  C   UNL     1       2.898   5.094  20.081  0.00  0.00    +0.000 A 
ATOM     15  C   UNL     1       3.018   6.151  19.190  0.00  0.00    +0.000 A 
ATOM     16  C   UNL     1       3.938   6.004  18.131  0.00  0.00    +0.000 A 
BRANCH  11  17
ATOM     17  C   UNL     1       5.666   4.827  16.568  0.00  0.00    +0.000 C 
ATOM     18  C   UNL     1       5.266   5.786  15.416  0.00  0.00    +0.000 C 
ATOM     19  O   UNL     1       5.083   4.706  14.482  0.00  0.00    +0.000 OA
ATOM     20  C   UNL     1       5.409   3.726  15.489  0.00  0.00    +0.000 C 
BRANCH  17  21
ATOM     21  C   UNL     1       7.160   4.931  16.974  0.00  0.00    +0.000 C 
BRANCH  21  27
ATOM     22  C   UNL     1       8.117   5.690  19.900  0.00  0.00    +0.000 C 
ATOM     23  N   UNL     1       7.999   6.566  18.767  0.00  0.00    +0.000 N 
ATOM     24  C   UNL     1       8.268   7.903  18.789  0.00  0.00    +0.000 A 
ATOM     25  N   UNL     1       8.024   8.419  17.611  0.00  0.00    +0.000 NA
ATOM     26  N   UNL     1       7.576   7.406  16.800  0.00  0.00    +0.000 NA
ATOM     27  C   UNL     1       7.587   6.275  17.482  0.00  0.00    +0.000 A 
ENDBRANCH  21  27
ENDBRANCH  17  21
ENDBRANCH  11  17
ENDBRANCH   1  15
BRANCH   8  28
ATOM     28  C   UNL     1       0.190   9.404  22.630  0.00  0.00    +0.000 C 
ATOM     29  F   UNL     1      -0.560   8.282  22.793  0.00  0.00    +0.000 F 
ATOM     30  F   UNL     1       1.375   9.158  23.252  0.00  0.00    +0.000 F 
ATOM     31  F   UNL     1      -0.431  10.366  23.365  0.00  0.00    +0.000 F 
ENDBRANCH   8  28
BRANCH   6  32
ATOM     32  C   UNL     1      -0.526  12.788  18.942  0.00  0.00    +0.000 C 
BRANCH  32  33
ATOM     33  N   UNL     1      -1.980  12.939  19.091  0.00  0.00    +0.000 NA
ATOM     34  C   UNL     1      -2.399  13.188  20.467  0.00  0.00    +0.000 C 
ATOM     35  C   UNL     1      -3.894  13.515  20.563  0.00  0.00    +0.000 C 
ATOM     36  C   UNL     1      -4.742  12.494  19.861  0.00  0.00    +0.000 A 
ATOM     37  C   UNL     1      -6.081  12.303  20.205  0.00  0.00    +0.000 A 
ATOM     38  C   UNL     1      -6.840  11.362  19.518  0.00  0.00    +0.000 A 
ATOM     39  C   UNL     1      -6.233  10.656  18.495  0.00  0.00    +0.000 A 
ATOM     40  N   UNL     1      -4.945  10.824  18.128  0.00  0.00    +0.000 NA
ATOM     41  C   UNL     1      -4.215  11.747  18.806  0.00  0.00    +0.000 A 
ATOM     42  C   UNL     1      -2.747  11.863  18.430  0.00  0.00    +0.000 C 
ENDBRANCH  32  33
ENDBRANCH   6  32
TORSDOF 7
ENDMDL
MODEL 5
REMARK VINA RESULT:      -9.7      1.817      2.895
REMARK  Name = 
REMARK  8 active torsions:
REMARK  status: ('A' for Active; 'I' for Inactive)
REMARK    1  A    between atoms: C_1  and  N_2
REMARK    2  A    between atoms: C_6  and  C_7
REMARK    3  A    between atoms: C_7  and  C_8
REMARK    4  A    between atoms: C_8  and  C_9
REMARK    5  A    between atoms: C_13  and  N_14
REMARK    6  A    between atoms: C_19  and  C_20
REMARK    7  A    between atoms: C_20  and  N_21
REMARK    8  A    between atoms: C_32  and  C_33
REMARK                            x       y       z     vdW  Elec       q    Type
REMARK                         _______ _______ _______ _____ _____    ______ ____
ROOT
ATOM      1  N   UNL     1       2.333   7.334  19.393  0.00  0.00    +0.000 N 
ATOM      2  C   UNL     1       1.603   7.692  20.591  0.00  0.00    +0.000 C 
ATOM      3  C   UNL     1       1.041   9.029  20.296  0.00  0.00    +0.000 A 
ATOM      4  C   UNL     1       1.315   9.370  18.979  0.00  0.00    +0.000 A 
ATOM      5  C   UNL     1       0.820  10.552  18.442  0.00  0.00    +0.000 A 
ATOM      6  C   UNL     1       0.039  11.389  19.270  0.00  0.00    +0.000 A 
ATOM      7  C   UNL     1      -0.182  11.026  20.625  0.00  0.00    +0.000 A 
ATOM      8  C   UNL     1       0.331   9.842  21.164  0.00  0.00    +0.000 A 
ATOM      9  C   UNL     1       2.180   8.303  18.391  0.00  0.00    +0.000 C 
ATOM     10  O   UNL     1       2.639   8.346  17.269  0.00  0.00    +0.000 OA
ENDROOT
BRANCH   1  15
ATOM     11  C   UNL     1       5.387   5.228  18.848  0.00  0.00    +0.000 A 
ATOM     12  C   UNL     1       4.890   3.974  19.224  0.00  0.00    +0.000 A 
ATOM     13  C   UNL     1       3.579   3.819  19.708  0.00  0.00    +0.000 A 
ATOM     14  C   UNL     1       2.705   4.912  19.807  0.00  0.00    +0.000 A 
ATOM     15  C   UNL     1       3.145   6.172  19.427  0.00  0.00    +0.000 A 
ATOM     16  C   UNL     1       4.482   6.288  18.995  0.00  0.00    +0.000 A 
BRANCH  11  17
ATOM     17  C   UNL     1       6.876   5.522  18.286  0.00  0.00    +0.000 C 
ATOM     18  C   UNL     1       7.926   5.906  19.361  0.00  0.00    +0.000 C 
ATOM     19  O   UNL     1       8.160   7.200  18.777  0.00  0.00    +0.000 OA
ATOM     20  C   UNL     1       7.178   6.958  17.749  0.00  0.00    +0.000 C 
BRANCH  17  21
ATOM     21  C   UNL     1       7.354   4.408  17.318  0.00  0.00    +0.000 C 
BRANCH  21  27
ATOM     22  C   UNL     1       4.688   3.486  15.869  0.00  0.00    +0.000 C 
ATOM     23  N   UNL     1       5.797   4.192  15.287  0.00  0.00    +0.000 N 
ATOM     24  C   UNL     1       5.879   4.561  13.977  0.00  0.00    +0.000 A 
ATOM     25  N   UNL     1       7.029   5.149  13.759  0.00  0.00    +0.000 NA
ATOM     26  N   UNL     1       7.721   5.157  14.944  0.00  0.00    +0.000 NA
ATOM     27  C   UNL     1       6.971   4.608  15.882  0.00  0.00    +0.000 A 
ENDBRANCH  21  27
ENDBRANCH  17  21
ENDBRANCH  11  17
ENDBRANCH   1  15
BRANCH   8  28
ATOM     28  C   UNL     1       0.119   9.499  22.619  0.00  0.00    +0.000 C 
ATOM     29  F   UNL     1       1.261   9.184  23.286  0.00  0.00    +0.000 F 
ATOM     30  F   UNL     1      -0.452  10.522  23.311  0.00  0.00    +0.000 F 
ATOM     31  F   UNL     1      -0.703   8.427  22.781  0.00  0.00    +0.000 F 
ENDBRANCH   8  28
BRANCH   6  32
ATOM     32  C   UNL     1      -0.605  12.663  18.743  0.00  0.00    +0.000 C 
BRANCH  32  33
ATOM     33  N   UNL     1      -0.933  13.708  19.722  0.00  0.00    +0.000 NA
ATOM     34  C   UNL     1      -2.315  13.649  20.190  0.00  0.00    +0.000 C 
ATOM     35  C   UNL     1      -2.577  14.635  21.335  0.00  0.00    +0.000 C 
ATOM     36  C   UNL     1      -2.124  16.026  20.999  0.00  0.00    +0.000 A 
ATOM     37  C   UNL     1      -2.670  17.141  21.637  0.00  0.00    +0.000 A 
ATOM     38  C   UNL     1      -2.210  18.412  21.313  0.00  0.00    +0.000 A 
ATOM     39  C   UNL     1      -1.204  18.521  20.369  0.00  0.00    +0.000 A 
ATOM     40  N   UNL     1      -0.645  17.464  19.742  0.00  0.00    +0.000 NA
ATOM     41  C   UNL     1      -1.103  16.227  20.069  0.00  0.00    +0.000 A 
ATOM     42  C   UNL     1      -0.517  15.059  19.293  0.00  0.00    +0.000 C 
ENDBRANCH  32  33
ENDBRANCH   6  32
TORSDOF 7
ENDMDL
MODEL 6
REMARK VINA RESULT:      -9.6      2.975      4.922
REMARK  Name = 
REMARK  8 active torsions:
REMARK  status: ('A' for Active; 'I' for Inactive)
REMARK    1  A    between atoms: C_1  and  N_2
REMARK    2  A    between atoms: C_6  and  C_7
REMARK    3  A    between atoms: C_7  and  C_8
REMARK    4  A    between atoms: C_8  and  C_9
REMARK    5  A    between atoms: C_13  and  N_14
REMARK    6  A    between atoms: C_19  and  C_20
REMARK    7  A    between atoms: C_20  and  N_21
REMARK    8  A    between atoms: C_32  and  C_33
REMARK                            x       y       z     vdW  Elec       q    Type
REMARK                         _______ _______ _______ _____ _____    ______ ____
ROOT
ATOM      1  N   UNL     1       2.258   7.284  19.113  0.00  0.00    +0.000 N 
ATOM      2  C   UNL     1       1.493   7.621  20.296  0.00  0.00    +0.000 C 
ATOM      3  C   UNL     1       1.121   9.040  20.105  0.00  0.00    +0.000 A 
ATOM      4  C   UNL     1       1.527   9.464  18.847  0.00  0.00    +0.000 A 
ATOM      5  C   UNL     1       1.219  10.745  18.404  0.00  0.00    +0.000 A 
ATOM      6  C   UNL     1       0.489  11.594  19.265  0.00  0.00    +0.000 A 
ATOM      7  C   UNL     1       0.130  11.138  20.561  0.00  0.00    +0.000 A 
ATOM      8  C   UNL     1       0.455   9.853  21.007  0.00  0.00    +0.000 A 
ATOM      9  C   UNL     1       2.295   8.354  18.207  0.00  0.00    +0.000 C 
ATOM     10  O   UNL     1       2.835   8.441  17.124  0.00  0.00    +0.000 OA
ENDROOT
BRANCH   1  15
ATOM     11  C   UNL     1       4.565   4.623  17.830  0.00  0.00    +0.000 A 
ATOM     12  C   UNL     1       4.225   3.569  18.688  0.00  0.00    +0.000 A 
ATOM     13  C   UNL     1       3.285   3.737  19.720  0.00  0.00    +0.000 A 
ATOM     14  C   UNL     1       2.628   4.961  19.915  0.00  0.00    +0.000 A 
ATOM     15  C   UNL     1       2.917   6.030  19.078  0.00  0.00    +0.000 A 
ATOM     16  C   UNL     1       3.902   5.830  18.088  0.00  0.00    +0.000 A 
BRANCH  11  17
ATOM     17  C   UNL     1       5.633   4.543  16.617  0.00  0.00    +0.000 C 
ATOM     18  C   UNL     1       5.325   5.457  15.402  0.00  0.00    +0.000 C 
ATOM     19  O   UNL     1       5.207   4.342  14.500  0.00  0.00    +0.000 OA
ATOM     20  C   UNL     1       5.452   3.402  15.565  0.00  0.00    +0.000 C 
BRANCH  17  21
ATOM     21  C   UNL     1       7.093   4.660  17.130  0.00  0.00    +0.000 C 
BRANCH  21  27
ATOM     22  C   UNL     1       8.087   5.739  19.941  0.00  0.00    +0.000 C 
ATOM     23  N   UNL     1       7.961   6.482  18.717  0.00  0.00    +0.000 N 
ATOM     24  C   UNL     1       8.237   7.811  18.586  0.00  0.00    +0.000 A 
ATOM     25  N   UNL     1       7.982   8.192  17.359  0.00  0.00    +0.000 NA
ATOM     26  N   UNL     1       7.520   7.098  16.673  0.00  0.00    +0.000 NA
ATOM     27  C   UNL     1       7.533   6.051  17.478  0.00  0.00    +0.000 A 
ENDBRANCH  21  27
ENDBRANCH  17  21
ENDBRANCH  11  17
ENDBRANCH   1  15
BRANCH   8  28
ATOM     28  C   UNL     1       0.100   9.407  22.405  0.00  0.00    +0.000 C 
ATOM     29  F   UNL     1      -0.716   8.320  22.448  0.00  0.00    +0.000 F 
ATOM     30  F   UNL     1       1.200   9.082  23.136  0.00  0.00    +0.000 F 
ATOM     31  F   UNL     1      -0.549  10.375  23.106  0.00  0.00    +0.000 F 
ENDBRANCH   8  28
BRANCH   6  32
ATOM     32  C   UNL     1       0.044  12.984  18.832  0.00  0.00    +0.000 C 
BRANCH  32  33
ATOM     33  N   UNL     1       0.692  14.132  19.480  0.00  0.00    +0.000 NA
ATOM     34  C   UNL     1       0.313  15.416  18.898  0.00  0.00    +0.000 C 
ATOM     35  C   UNL     1       0.864  16.598  19.704  0.00  0.00    +0.000 C 
ATOM     36  C   UNL     1       2.339  16.473  19.954  0.00  0.00    +0.000 A 
ATOM     37  C   UNL     1       3.128  17.595  20.217  0.00  0.00    +0.000 A 
ATOM     38  C   UNL     1       4.486  17.437  20.464  0.00  0.00    +0.000 A 
ATOM     39  C   UNL     1       5.006  16.155  20.455  0.00  0.00    +0.000 A 
ATOM     40  N   UNL     1       4.271  15.048  20.216  0.00  0.00    +0.000 NA
ATOM     41  C   UNL     1       2.944  15.216  19.978  0.00  0.00    +0.000 A 
ATOM     42  C   UNL     1       2.152  13.966  19.633  0.00  0.00    +0.000 C 
ENDBRANCH  32  33
ENDBRANCH   6  32
TORSDOF 7
ENDMDL
MODEL 7
REMARK VINA RESULT:      -9.6      3.290     11.511
REMARK  Name = 
REMARK  8 active torsions:
REMARK  status: ('A' for Active; 'I' for Inactive)
REMARK    1  A    between atoms: C_1  and  N_2
REMARK    2  A    between atoms: C_6  and  C_7
REMARK    3  A    between atoms: C_7  and  C_8
REMARK    4  A    between atoms: C_8  and  C_9
REMARK    5  A    between atoms: C_13  and  N_14
REMARK    6  A    between atoms: C_19  and  C_20
REMARK    7  A    between atoms: C_20  and  N_21
REMARK    8  A    between atoms: C_32  and  C_33
REMARK                            x       y       z     vdW  Elec       q    Type
REMARK                         _______ _______ _______ _____ _____    ______ ____
ROOT
ATOM      1  N   UNL     1      -2.287  11.664  19.324  0.00  0.00    +0.000 N 
ATOM      2  C   UNL     1      -1.589  11.153  20.486  0.00  0.00    +0.000 C 
ATOM      3  C   UNL     1      -0.513  10.305  19.927  0.00  0.00    +0.000 A 
ATOM      4  C   UNL     1      -0.502  10.415  18.544  0.00  0.00    +0.000 A 
ATOM      5  C   UNL     1       0.475   9.769  17.795  0.00  0.00    +0.000 A 
ATOM      6  C   UNL     1       1.445   9.003  18.479  0.00  0.00    +0.000 A 
ATOM      7  C   UNL     1       1.373   8.878  19.891  0.00  0.00    +0.000 A 
ATOM      8  C   UNL     1       0.380   9.520  20.639  0.00  0.00    +0.000 A 
ATOM      9  C   UNL     1      -1.663  11.261  18.134  0.00  0.00    +0.000 C 
ATOM     10  O   UNL     1      -1.959  11.491  16.981  0.00  0.00    +0.000 OA
ENDROOT
BRANCH   1  15
ATOM     11  C   UNL     1      -4.597  14.198  20.840  0.00  0.00    +0.000 A 
ATOM     12  C   UNL     1      -5.805  13.815  20.245  0.00  0.00    +0.000 A 
ATOM     13  C   UNL     1      -5.863  12.768  19.308  0.00  0.00    +0.000 A 
ATOM     14  C   UNL     1      -4.714  12.045  18.952  0.00  0.00    +0.000 A 
ATOM     15  C   UNL     1      -3.497  12.375  19.530  0.00  0.00    +0.000 A 
ATOM     16  C   UNL     1      -3.478  13.462  20.426  0.00  0.00    +0.000 A 
BRANCH  11  17
ATOM     17  C   UNL     1      -4.415  15.387  21.923  0.00  0.00    +0.000 C 
ATOM     18  C   UNL     1      -5.262  16.659  21.657  0.00  0.00    +0.000 C 
ATOM     19  O   UNL     1      -4.098  17.495  21.520  0.00  0.00    +0.000 OA
ATOM     20  C   UNL     1      -3.218  16.371  21.723  0.00  0.00    +0.000 C 
BRANCH  17  21
ATOM     21  C   UNL     1      -4.522  14.860  23.378  0.00  0.00    +0.000 C 
BRANCH  21  27
ATOM     22  C   UNL     1      -7.649  15.270  23.705  0.00  0.00    +0.000 C 
ATOM     23  N   UNL     1      -6.926  14.029  23.732  0.00  0.00    +0.000 N 
ATOM     24  C   UNL     1      -7.493  12.805  23.933  0.00  0.00    +0.000 A 
ATOM     25  N   UNL     1      -6.560  11.885  23.942  0.00  0.00    +0.000 NA
ATOM     26  N   UNL     1      -5.356  12.516  23.754  0.00  0.00    +0.000 NA
ATOM     27  C   UNL     1      -5.570  13.809  23.595  0.00  0.00    +0.000 A 
ENDBRANCH  21  27
ENDBRANCH  17  21
ENDBRANCH  11  17
ENDBRANCH   1  15
BRANCH   8  28
ATOM     28  C   UNL     1       0.299   9.338  22.135  0.00  0.00    +0.000 C 
ATOM     29  F   UNL     1      -0.756   8.584  22.545  0.00  0.00    +0.000 F 
ATOM     30  F   UNL     1       1.410   8.737  22.641  0.00  0.00    +0.000 F 
ATOM     31  F   UNL     1       0.176  10.522  22.792  0.00  0.00    +0.000 F 
ENDBRANCH   8  28
BRANCH   6  32
ATOM     32  C   UNL     1       2.593   8.325  17.745  0.00  0.00    +0.000 C 
BRANCH  32  33
ATOM     33  N   UNL     1       3.006   6.996  18.218  0.00  0.00    +0.000 NA
ATOM     34  C   UNL     1       4.336   6.606  17.762  0.00  0.00    +0.000 C 
ATOM     35  C   UNL     1       4.808   5.300  18.412  0.00  0.00    +0.000 C 
ATOM     36  C   UNL     1       3.791   4.204  18.281  0.00  0.00    +0.000 A 
ATOM     37  C   UNL     1       4.161   2.859  18.346  0.00  0.00    +0.000 A 
ATOM     38  C   UNL     1       3.188   1.872  18.241  0.00  0.00    +0.000 A 
ATOM     39  C   UNL     1       1.871   2.269  18.090  0.00  0.00    +0.000 A 
ATOM     40  N   UNL     1       1.476   3.559  18.035  0.00  0.00    +0.000 NA
ATOM     41  C   UNL     1       2.437   4.513  18.141  0.00  0.00    +0.000 A 
ATOM     42  C   UNL     1       1.981   5.956  17.996  0.00  0.00    +0.000 C 
ENDBRANCH  32  33
ENDBRANCH   6  32
TORSDOF 7
ENDMDL
MODEL 8
REMARK VINA RESULT:      -9.6      2.318      3.923
REMARK  Name = 
REMARK  8 active torsions:
REMARK  status: ('A' for Active; 'I' for Inactive)
REMARK    1  A    between atoms: C_1  and  N_2
REMARK    2  A    between atoms: C_6  and  C_7
REMARK    3  A    between atoms: C_7  and  C_8
REMARK    4  A    between atoms: C_8  and  C_9
REMARK    5  A    between atoms: C_13  and  N_14
REMARK    6  A    between atoms: C_19  and  C_20
REMARK    7  A    between atoms: C_20  and  N_21
REMARK    8  A    between atoms: C_32  and  C_33
REMARK                            x       y       z     vdW  Elec       q    Type
REMARK                         _______ _______ _______ _____ _____    ______ ____
ROOT
ATOM      1  N   UNL     1       2.064   7.508  19.489  0.00  0.00    +0.000 N 
ATOM      2  C   UNL     1       1.319   7.887  20.672  0.00  0.00    +0.000 C 
ATOM      3  C   UNL     1       0.767   9.221  20.350  0.00  0.00    +0.000 A 
ATOM      4  C   UNL     1       1.060   9.542  19.031  0.00  0.00    +0.000 A 
ATOM      5  C   UNL     1       0.576  10.718  18.471  0.00  0.00    +0.000 A 
ATOM      6  C   UNL     1      -0.212  11.570  19.276  0.00  0.00    +0.000 A 
ATOM      7  C   UNL     1      -0.451  11.229  20.633  0.00  0.00    +0.000 A 
ATOM      8  C   UNL     1       0.049  10.050  21.197  0.00  0.00    +0.000 A 
ATOM      9  C   UNL     1       1.927   8.462  18.471  0.00  0.00    +0.000 C 
ATOM     10  O   UNL     1       2.401   8.487  17.354  0.00  0.00    +0.000 OA
ENDROOT
BRANCH   1  15
ATOM     11  C   UNL     1       5.056   5.334  18.878  0.00  0.00    +0.000 A 
ATOM     12  C   UNL     1       4.583   4.117  19.387  0.00  0.00    +0.000 A 
ATOM     13  C   UNL     1       3.312   4.014  19.979  0.00  0.00    +0.000 A 
ATOM     14  C   UNL     1       2.454   5.121  20.060  0.00  0.00    +0.000 A 
ATOM     15  C   UNL     1       2.870   6.343  19.551  0.00  0.00    +0.000 A 
ATOM     16  C   UNL     1       4.170   6.412  19.011  0.00  0.00    +0.000 A 
BRANCH  11  17
ATOM     17  C   UNL     1       6.498   5.567  18.183  0.00  0.00    +0.000 C 
ATOM     18  C   UNL     1       7.392   4.304  18.071  0.00  0.00    +0.000 C 
ATOM     19  O   UNL     1       8.428   4.874  18.892  0.00  0.00    +0.000 OA
ATOM     20  C   UNL     1       7.664   6.082  19.087  0.00  0.00    +0.000 C 
BRANCH  17  21
ATOM     21  C   UNL     1       6.374   6.361  16.855  0.00  0.00    +0.000 C 
BRANCH  21  27
ATOM     22  C   UNL     1       4.376   4.136  15.800  0.00  0.00    +0.000 C 
ATOM     23  N   UNL     1       5.598   4.574  15.183  0.00  0.00    +0.000 N 
ATOM     24  C   UNL     1       6.107   4.064  14.025  0.00  0.00    +0.000 A 
ATOM     25  N   UNL     1       7.249   4.647  13.755  0.00  0.00    +0.000 NA
ATOM     26  N   UNL     1       7.500   5.549  14.757  0.00  0.00    +0.000 NA
ATOM     27  C   UNL     1       6.492   5.535  15.609  0.00  0.00    +0.000 A 
ENDBRANCH  21  27
ENDBRANCH  17  21
ENDBRANCH  11  17
ENDBRANCH   1  15
BRANCH   8  28
ATOM     28  C   UNL     1      -0.183   9.730  22.653  0.00  0.00    +0.000 C 
ATOM     29  F   UNL     1      -0.776  10.734  23.353  0.00  0.00    +0.000 F 
ATOM     30  F   UNL     1      -0.976   8.636  22.819  0.00  0.00    +0.000 F 
ATOM     31  F   UNL     1       0.976   9.462  23.313  0.00  0.00    +0.000 F 
ENDBRANCH   8  28
BRANCH   6  32
ATOM     32  C   UNL     1      -0.843  12.839  18.721  0.00  0.00    +0.000 C 
BRANCH  32  33
ATOM     33  N   UNL     1      -0.082  14.088  18.863  0.00  0.00    +0.000 NA
ATOM     34  C   UNL     1       1.356  13.913  18.685  0.00  0.00    +0.000 C 
ATOM     35  C   UNL     1       2.100  15.254  18.664  0.00  0.00    +0.000 C 
ATOM     36  C   UNL     1       1.748  16.115  19.843  0.00  0.00    +0.000 A 
ATOM     37  C   UNL     1       2.612  17.114  20.295  0.00  0.00    +0.000 A 
ATOM     38  C   UNL     1       2.243  17.905  21.377  0.00  0.00    +0.000 A 
ATOM     39  C   UNL     1       1.009  17.676  21.960  0.00  0.00    +0.000 A 
ATOM     40  N   UNL     1       0.144  16.727  21.542  0.00  0.00    +0.000 NA
ATOM     41  C   UNL     1       0.517  15.962  20.482  0.00  0.00    +0.000 A 
ATOM     42  C   UNL     1      -0.435  14.849  20.080  0.00  0.00    +0.000 C 
ENDBRANCH  32  33
ENDBRANCH   6  32
TORSDOF 7
ENDMDL
MODEL 9
REMARK VINA RESULT:      -9.6      3.075     11.202
REMARK  Name = 
REMARK  8 active torsions:
REMARK  status: ('A' for Active; 'I' for Inactive)
REMARK    1  A    between atoms: C_1  and  N_2
REMARK    2  A    between atoms: C_6  and  C_7
REMARK    3  A    between atoms: C_7  and  C_8
REMARK    4  A    between atoms: C_8  and  C_9
REMARK    5  A    between atoms: C_13  and  N_14
REMARK    6  A    between atoms: C_19  and  C_20
REMARK    7  A    between atoms: C_20  and  N_21
REMARK    8  A    between atoms: C_32  and  C_33
REMARK                            x       y       z     vdW  Elec       q    Type
REMARK                         _______ _______ _______ _____ _____    ______ ____
ROOT
ATOM      1  N   UNL     1      -2.638  10.972  18.531  0.00  0.00    +0.000 N 
ATOM      2  C   UNL     1      -1.926  10.866  19.788  0.00  0.00    +0.000 C 
ATOM      3  C   UNL     1      -0.677  10.149  19.446  0.00  0.00    +0.000 A 
ATOM      4  C   UNL     1      -0.606   9.964  18.072  0.00  0.00    +0.000 A 
ATOM      5  C   UNL     1       0.518   9.382  17.500  0.00  0.00    +0.000 A 
ATOM      6  C   UNL     1       1.574   8.984  18.350  0.00  0.00    +0.000 A 
ATOM      7  C   UNL     1       1.444   9.149  19.754  0.00  0.00    +0.000 A 
ATOM      8  C   UNL     1       0.305   9.724  20.327  0.00  0.00    +0.000 A 
ATOM      9  C   UNL     1      -1.881  10.458  17.469  0.00  0.00    +0.000 C 
ATOM     10  O   UNL     1      -2.146  10.376  16.288  0.00  0.00    +0.000 OA
ENDROOT
BRANCH   1  15
ATOM     11  C   UNL     1      -5.510  13.147  19.568  0.00  0.00    +0.000 A 
ATOM     12  C   UNL     1      -6.562  12.491  18.916  0.00  0.00    +0.000 A 
ATOM     13  C   UNL     1      -6.333  11.373  18.094  0.00  0.00    +0.000 A 
ATOM     14  C   UNL     1      -5.043  10.853  17.916  0.00  0.00    +0.000 A 
ATOM     15  C   UNL     1      -3.971  11.456  18.557  0.00  0.00    +0.000 A 
ATOM     16  C   UNL     1      -4.240  12.603  19.331  0.00  0.00    +0.000 A 
BRANCH  11  17
ATOM     17  C   UNL     1      -5.658  14.440  20.530  0.00  0.00    +0.000 C 
ATOM     18  C   UNL     1      -6.317  15.681  19.873  0.00  0.00    +0.000 C 
ATOM     19  O   UNL     1      -5.144  16.494  20.059  0.00  0.00    +0.000 OA
ATOM     20  C   UNL     1      -4.427  15.394  20.656  0.00  0.00    +0.000 C 
BRANCH  17  21
ATOM     21  C   UNL     1      -6.269  14.065  21.905  0.00  0.00    +0.000 C 
BRANCH  21  27
ATOM     22  C   UNL     1      -4.791  15.625  24.237  0.00  0.00    +0.000 C 
ATOM     23  N   UNL     1      -4.671  14.231  23.908  0.00  0.00    +0.000 N 
ATOM     24  C   UNL     1      -3.859  13.349  24.557  0.00  0.00    +0.000 A 
ATOM     25  N   UNL     1      -3.949  12.171  23.991  0.00  0.00    +0.000 NA
ATOM     26  N   UNL     1      -4.828  12.282  22.944  0.00  0.00    +0.000 NA
ATOM     27  C   UNL     1      -5.294  13.517  22.904  0.00  0.00    +0.000 A 
ENDBRANCH  21  27
ENDBRANCH  17  21
ENDBRANCH  11  17
ENDBRANCH   1  15
BRANCH   8  28
ATOM     28  C   UNL     1       0.171   9.850  21.825  0.00  0.00    +0.000 C 
ATOM     29  F   UNL     1      -0.077  11.116  22.254  0.00  0.00    +0.000 F 
ATOM     30  F   UNL     1      -0.836   9.080  22.318  0.00  0.00    +0.000 F 
ATOM     31  F   UNL     1       1.300   9.462  22.477  0.00  0.00    +0.000 F 
ENDBRANCH   8  28
BRANCH   6  32
ATOM     32  C   UNL     1       2.871   8.407  17.801  0.00  0.00    +0.000 C 
BRANCH  32  33
ATOM     33  N   UNL     1       3.225   7.039  18.205  0.00  0.00    +0.000 NA
ATOM     34  C   UNL     1       4.401   6.518  17.514  0.00  0.00    +0.000 C 
ATOM     35  C   UNL     1       4.848   5.165  18.081  0.00  0.00    +0.000 C 
ATOM     36  C   UNL     1       3.716   4.180  18.151  0.00  0.00    +0.000 A 
ATOM     37  C   UNL     1       3.952   2.804  18.162  0.00  0.00    +0.000 A 
ATOM     38  C   UNL     1       2.880   1.924  18.248  0.00  0.00    +0.000 A 
ATOM     39  C   UNL     1       1.605   2.455  18.339  0.00  0.00    +0.000 A 
ATOM     40  N   UNL     1       1.342   3.779  18.344  0.00  0.00    +0.000 NA
ATOM     41  C   UNL     1       2.399   4.629  18.260  0.00  0.00    +0.000 A 
ATOM     42  C   UNL     1       2.075   6.112  18.187  0.00  0.00    +0.000 C 
ENDBRANCH  32  33
ENDBRANCH   6  32
TORSDOF 7
ENDMDL
