MODEL 1
REMARK VINA RESULT:      -8.3      0.000      0.000
REMARK  Name = 
REMARK  9 active torsions:
REMARK  status: ('A' for Active; 'I' for Inactive)
REMARK    1  A    between atoms: C_1  and  C_2
REMARK    2  A    between atoms: C_5  and  C_6
REMARK    3  A    between atoms: N_8  and  C_9
REMARK    4  A    between atoms: C_13  and  C_14
REMARK    5  A    between atoms: C_14  and  C_15
REMARK    6  A    between atoms: C_14  and  C_16
REMARK    7  A    between atoms: C_16  and  C_17
REMARK    8  A    between atoms: N_21  and  C_22
REMARK    9  A    between atoms: C_25  and  C_26
REMARK                            x       y       z     vdW  Elec       q    Type
REMARK                         _______ _______ _______ _____ _____    ______ ____
ROOT
ATOM      1  C   UNL     1       1.584   8.469  19.611  0.00  0.00    +0.000 A 
ATOM      2  C   UNL     1       1.501   8.410  21.004  0.00  0.00    +0.000 A 
ATOM      3  C   UNL     1       0.598   9.209  21.699  0.00  0.00    +0.000 A 
ATOM      4  C   UNL     1      -0.247  10.068  21.005  0.00  0.00    +0.000 A 
ATOM      5  C   UNL     1      -0.189  10.154  19.607  0.00  0.00    +0.000 A 
ATOM      6  C   UNL     1       0.756   9.367  18.920  0.00  0.00    +0.000 A 
ENDROOT
BRANCH   1   9
ATOM      7  C   UNL     1       2.769   6.328  19.140  0.00  0.00    +0.000 C 
ATOM      8  O   UNL     1       2.286   5.634  20.028  0.00  0.00    +0.000 OA
ATOM      9  N   UNL     1       2.467   7.655  18.872  0.00  0.00    +0.000 N 
ATOM     10  H   UNL     1       2.872   8.022  18.014  0.00  0.00    +0.000 HD
BRANCH   7  15
ATOM     11  C   UNL     1       6.583   3.949  15.593  0.00  0.00    +0.000 C 
ATOM     12  C   UNL     1       5.584   4.582  16.520  0.00  0.00    +0.000 A 
ATOM     13  C   UNL     1       4.282   4.067  16.567  0.00  0.00    +0.000 A 
ATOM     14  C   UNL     1       3.352   4.636  17.420  0.00  0.00    +0.000 A 
ATOM     15  C   UNL     1       3.753   5.711  18.197  0.00  0.00    +0.000 A 
ATOM     16  N   UNL     1       4.999   6.256  18.160  0.00  0.00    +0.000 NA
ATOM     17  C   UNL     1       5.917   5.688  17.329  0.00  0.00    +0.000 A 
BRANCH  17  18
ATOM     18  C   UNL     1       7.299   6.313  17.279  0.00  0.00    +0.000 C 
ATOM     19  C   UNL     1       7.491   7.794  17.510  0.00  0.00    +0.000 C 
ATOM     20  C   UNL     1       7.944   6.815  18.550  0.00  0.00    +0.000 C 
ENDBRANCH  17  18
ENDBRANCH   7  15
ENDBRANCH   1   9
BRANCH   5  21
ATOM     21  C   UNL     1      -1.158  11.055  18.844  0.00  0.00    +0.000 C 
ATOM     22  C   UNL     1      -1.425  12.345  19.634  0.00  0.00    +0.000 C 
BRANCH  21  23
ATOM     23  C   UNL     1      -2.458  10.287  18.512  0.00  0.00    +0.000 C 
BRANCH  23  24
ATOM     24  C   UNL     1      -2.834  10.373  17.067  0.00  0.00    +0.000 A 
ATOM     25  N   UNL     1      -2.164   9.809  16.079  0.00  0.00    +0.000 NA
ATOM     26  C   UNL     1      -2.842  10.127  14.933  0.00  0.00    +0.000 A 
ATOM     27  C   UNL     1      -3.937  10.904  15.218  0.00  0.00    +0.000 A 
ATOM     28  N   UNL     1      -3.922  11.058  16.577  0.00  0.00    +0.000 N 
ATOM     29  C   UNL     1      -4.888  11.807  17.341  0.00  0.00    +0.000 C 
ENDBRANCH  23  24
ENDBRANCH  21  23
ENDBRANCH   5  21
TORSDOF 6
ENDMDL
MODEL 2
REMARK VINA RESULT:      -8.2      1.589      2.482
REMARK  Name = 
REMARK  9 active torsions:
REMARK  status: ('A' for Active; 'I' for Inactive)
REMARK    1  A    between atoms: C_1  and  C_2
REMARK    2  A    between atoms: C_5  and  C_6
REMARK    3  A    between atoms: N_8  and  C_9
REMARK    4  A    between atoms: C_13  and  C_14
REMARK    5  A    between atoms: C_14  and  C_15
REMARK    6  A    between atoms: C_14  and  C_16
REMARK    7  A    between atoms: C_16  and  C_17
REMARK    8  A    between atoms: N_21  and  C_22
REMARK    9  A    between atoms: C_25  and  C_26
REMARK                            x       y       z     vdW  Elec       q    Type
REMARK                         _______ _______ _______ _____ _____    ______ ____
ROOT
ATOM      1  C   UNL     1       0.556   8.976  21.292  0.00  0.00    +0.000 A 
ATOM      2  C   UNL     1       0.249   9.369  22.596  0.00  0.00    +0.000 A 
ATOM      3  C   UNL     1      -0.435  10.557  22.841  0.00  0.00    +0.000 A 
ATOM      4  C   UNL     1      -0.834  11.360  21.779  0.00  0.00    +0.000 A 
ATOM      5  C   UNL     1      -0.541  10.997  20.457  0.00  0.00    +0.000 A 
ATOM      6  C   UNL     1       0.184   9.811  20.227  0.00  0.00    +0.000 A 
ENDROOT
BRANCH   1   9
ATOM      7  C   UNL     1       1.959   7.495  19.862  0.00  0.00    +0.000 C 
ATOM      8  O   UNL     1       2.191   8.269  18.940  0.00  0.00    +0.000 OA
ATOM      9  N   UNL     1       1.222   7.767  21.005  0.00  0.00    +0.000 N 
ATOM     10  H   UNL     1       1.250   7.040  21.716  0.00  0.00    +0.000 HD
BRANCH   7  15
ATOM     11  C   UNL     1       4.281   2.263  19.695  0.00  0.00    +0.000 C 
ATOM     12  C   UNL     1       3.670   3.635  19.729  0.00  0.00    +0.000 A 
ATOM     13  C   UNL     1       2.637   3.895  20.638  0.00  0.00    +0.000 A 
ATOM     14  C   UNL     1       2.068   5.156  20.685  0.00  0.00    +0.000 A 
ATOM     15  C   UNL     1       2.548   6.120  19.814  0.00  0.00    +0.000 A 
ATOM     16  N   UNL     1       3.531   5.899  18.900  0.00  0.00    +0.000 NA
ATOM     17  C   UNL     1       4.097   4.661  18.861  0.00  0.00    +0.000 A 
BRANCH  17  18
ATOM     18  C   UNL     1       5.181   4.418  17.827  0.00  0.00    +0.000 C 
ATOM     19  C   UNL     1       4.828   4.041  16.406  0.00  0.00    +0.000 C 
ATOM     20  C   UNL     1       5.380   5.403  16.698  0.00  0.00    +0.000 C 
ENDBRANCH  17  18
ENDBRANCH   7  15
ENDBRANCH   1   9
BRANCH   5  21
ATOM     21  C   UNL     1      -1.032  11.852  19.290  0.00  0.00    +0.000 C 
ATOM     22  C   UNL     1      -0.718  13.334  19.542  0.00  0.00    +0.000 C 
BRANCH  21  23
ATOM     23  C   UNL     1      -2.536  11.602  19.037  0.00  0.00    +0.000 C 
BRANCH  23  24
ATOM     24  C   UNL     1      -2.825  11.132  17.646  0.00  0.00    +0.000 A 
ATOM     25  N   UNL     1      -1.976  10.469  16.883  0.00  0.00    +0.000 NA
ATOM     26  C   UNL     1      -2.631  10.233  15.705  0.00  0.00    +0.000 A 
ATOM     27  C   UNL     1      -3.896  10.766  15.740  0.00  0.00    +0.000 A 
ATOM     28  N   UNL     1      -4.008  11.338  16.977  0.00  0.00    +0.000 N 
ATOM     29  C   UNL     1      -5.174  12.029  17.472  0.00  0.00    +0.000 C 
ENDBRANCH  23  24
ENDBRANCH  21  23
ENDBRANCH   5  21
TORSDOF 6
ENDMDL
MODEL 3
REMARK VINA RESULT:      -8.0      1.635      2.784
REMARK  Name = 
REMARK  9 active torsions:
REMARK  status: ('A' for Active; 'I' for Inactive)
REMARK    1  A    between atoms: C_1  and  C_2
REMARK    2  A    between atoms: C_5  and  C_6
REMARK    3  A    between atoms: N_8  and  C_9
REMARK    4  A    between atoms: C_13  and  C_14
REMARK    5  A    between atoms: C_14  and  C_15
REMARK    6  A    between atoms: C_14  and  C_16
REMARK    7  A    between atoms: C_16  and  C_17
REMARK    8  A    between atoms: N_21  and  C_22
REMARK    9  A    between atoms: C_25  and  C_26
REMARK                            x       y       z     vdW  Elec       q    Type
REMARK                         _______ _______ _______ _____ _____    ______ ____
ROOT
ATOM      1  C   UNL     1       0.919   9.208  20.124  0.00  0.00    +0.000 A 
ATOM      2  C   UNL     1       1.053   9.520  21.478  0.00  0.00    +0.000 A 
ATOM      3  C   UNL     1       0.252  10.496  22.067  0.00  0.00    +0.000 A 
ATOM      4  C   UNL     1      -0.705  11.160  21.308  0.00  0.00    +0.000 A 
ATOM      5  C   UNL     1      -0.864  10.872  19.946  0.00  0.00    +0.000 A 
ATOM      6  C   UNL     1      -0.021   9.910  19.355  0.00  0.00    +0.000 A 
ENDROOT
BRANCH   1   9
ATOM      7  C   UNL     1       2.260   8.285  18.237  0.00  0.00    +0.000 C 
ATOM      8  O   UNL     1       2.222   9.246  17.477  0.00  0.00    +0.000 OA
ATOM      9  N   UNL     1       1.693   8.207  19.500  0.00  0.00    +0.000 N 
ATOM     10  H   UNL     1       1.943   7.377  20.032  0.00  0.00    +0.000 HD
BRANCH   7  15
ATOM     11  C   UNL     1       5.118   3.604  16.592  0.00  0.00    +0.000 C 
ATOM     12  C   UNL     1       4.367   4.828  17.033  0.00  0.00    +0.000 A 
ATOM     13  C   UNL     1       4.970   6.083  16.884  0.00  0.00    +0.000 A 
ATOM     14  C   UNL     1       4.288   7.221  17.281  0.00  0.00    +0.000 A 
ATOM     15  C   UNL     1       3.022   7.066  17.820  0.00  0.00    +0.000 A 
ATOM     16  N   UNL     1       2.413   5.863  18.004  0.00  0.00    +0.000 NA
ATOM     17  C   UNL     1       3.081   4.745  17.605  0.00  0.00    +0.000 A 
BRANCH  17  18
ATOM     18  C   UNL     1       2.403   3.407  17.830  0.00  0.00    +0.000 C 
ATOM     19  C   UNL     1       2.539   2.678  19.148  0.00  0.00    +0.000 C 
ATOM     20  C   UNL     1       1.229   3.306  18.777  0.00  0.00    +0.000 C 
ENDBRANCH  17  18
ENDBRANCH   7  15
ENDBRANCH   1   9
BRANCH   5  21
ATOM     21  C   UNL     1      -1.955  11.562  19.128  0.00  0.00    +0.000 C 
ATOM     22  C   UNL     1      -2.605  12.688  19.946  0.00  0.00    +0.000 C 
BRANCH  21  23
ATOM     23  C   UNL     1      -2.987  10.526  18.628  0.00  0.00    +0.000 C 
BRANCH  23  24
ATOM     24  C   UNL     1      -3.114  10.501  17.138  0.00  0.00    +0.000 A 
ATOM     25  N   UNL     1      -2.303   9.853  16.322  0.00  0.00    +0.000 NA
ATOM     26  C   UNL     1      -2.771  10.088  15.058  0.00  0.00    +0.000 A 
ATOM     27  C   UNL     1      -3.878  10.899  15.094  0.00  0.00    +0.000 A 
ATOM     28  N   UNL     1      -4.087  11.159  16.421  0.00  0.00    +0.000 N 
ATOM     29  C   UNL     1      -5.148  11.978  16.952  0.00  0.00    +0.000 C 
ENDBRANCH  23  24
ENDBRANCH  21  23
ENDBRANCH   5  21
TORSDOF 6
ENDMDL
MODEL 4
REMARK VINA RESULT:      -8.0      1.554      2.692
REMARK  Name = 
REMARK  9 active torsions:
REMARK  status: ('A' for Active; 'I' for Inactive)
REMARK    1  A    between atoms: C_1  and  C_2
REMARK    2  A    between atoms: C_5  and  C_6
REMARK    3  A    between atoms: N_8  and  C_9
REMARK    4  A    between atoms: C_13  and  C_14
REMARK    5  A    between atoms: C_14  and  C_15
REMARK    6  A    between atoms: C_14  and  C_16
REMARK    7  A    between atoms: C_16  and  C_17
REMARK    8  A    between atoms: N_21  and  C_22
REMARK    9  A    between atoms: C_25  and  C_26
REMARK                            x       y       z     vdW  Elec       q    Type
REMARK                         _______ _______ _______ _____ _____    ______ ____
ROOT
ATOM      1  C   UNL     1       1.107   9.103  20.142  0.00  0.00    +0.000 A 
ATOM      2  C   UNL     1       0.892   8.899  21.507  0.00  0.00    +0.000 A 
ATOM      3  C   UNL     1       0.128   9.796  22.250  0.00  0.00    +0.000 A 
ATOM      4  C   UNL     1      -0.443  10.901  21.630  0.00  0.00    +0.000 A 
ATOM      5  C   UNL     1      -0.245  11.137  20.262  0.00  0.00    +0.000 A 
ATOM      6  C   UNL     1       0.561  10.242  19.531  0.00  0.00    +0.000 A 
ENDROOT
BRANCH   1   9
ATOM      7  C   UNL     1       2.142   6.885  19.676  0.00  0.00    +0.000 C 
ATOM      8  O   UNL     1       1.764   6.275  20.671  0.00  0.00    +0.000 OA
ATOM      9  N   UNL     1       1.852   8.202  19.353  0.00  0.00    +0.000 N 
ATOM     10  H   UNL     1       2.146   8.490  18.423  0.00  0.00    +0.000 HD
BRANCH   7  15
ATOM     11  C   UNL     1       5.229   4.102  15.737  0.00  0.00    +0.000 C 
ATOM     12  C   UNL     1       4.421   4.825  16.777  0.00  0.00    +0.000 A 
ATOM     13  C   UNL     1       4.705   6.171  17.041  0.00  0.00    +0.000 A 
ATOM     14  C   UNL     1       3.966   6.852  17.992  0.00  0.00    +0.000 A 
ATOM     15  C   UNL     1       2.965   6.161  18.657  0.00  0.00    +0.000 A 
ATOM     16  N   UNL     1       2.677   4.848  18.448  0.00  0.00    +0.000 NA
ATOM     17  C   UNL     1       3.398   4.182  17.504  0.00  0.00    +0.000 A 
BRANCH  17  18
ATOM     18  C   UNL     1       3.083   2.713  17.289  0.00  0.00    +0.000 C 
ATOM     19  C   UNL     1       3.597   1.660  18.244  0.00  0.00    +0.000 C 
ATOM     20  C   UNL     1       2.138   2.000  18.228  0.00  0.00    +0.000 C 
ENDBRANCH  17  18
ENDBRANCH   7  15
ENDBRANCH   1   9
BRANCH   5  21
ATOM     21  C   UNL     1      -0.921  12.321  19.572  0.00  0.00    +0.000 C 
ATOM     22  C   UNL     1      -0.588  13.629  20.304  0.00  0.00    +0.000 C 
BRANCH  21  23
ATOM     23  C   UNL     1      -2.444  12.079  19.461  0.00  0.00    +0.000 C 
BRANCH  23  24
ATOM     24  C   UNL     1      -2.868  11.640  18.095  0.00  0.00    +0.000 A 
ATOM     25  N   UNL     1      -2.042  11.344  17.109  0.00  0.00    +0.000 NA
ATOM     26  C   UNL     1      -2.831  10.992  16.048  0.00  0.00    +0.000 A 
ATOM     27  C   UNL     1      -4.160  11.082  16.381  0.00  0.00    +0.000 A 
ATOM     28  N   UNL     1      -4.173  11.498  17.684  0.00  0.00    +0.000 N 
ATOM     29  C   UNL     1      -5.358  11.737  18.471  0.00  0.00    +0.000 C 
ENDBRANCH  23  24
ENDBRANCH  21  23
ENDBRANCH   5  21
TORSDOF 6
ENDMDL
MODEL 5
REMARK VINA RESULT:      -8.0      3.192      8.725
REMARK  Name = 
REMARK  9 active torsions:
REMARK  status: ('A' for Active; 'I' for Inactive)
REMARK    1  A    between atoms: C_1  and  C_2
REMARK    2  A    between atoms: C_5  and  C_6
REMARK    3  A    between atoms: N_8  and  C_9
REMARK    4  A    between atoms: C_13  and  C_14
REMARK    5  A    between atoms: C_14  and  C_15
REMARK    6  A    between atoms: C_14  and  C_16
REMARK    7  A    between atoms: C_16  and  C_17
REMARK    8  A    between atoms: N_21  and  C_22
REMARK    9  A    between atoms: C_25  and  C_26
REMARK                            x       y       z     vdW  Elec       q    Type
REMARK                         _______ _______ _______ _____ _____    ______ ____
ROOT
ATOM      1  C   UNL     1       1.864   5.076  20.667  0.00  0.00    +0.000 A 
ATOM      2  C   UNL     1       2.094   4.092  21.630  0.00  0.00    +0.000 A 
ATOM      3  C   UNL     1       2.602   2.846  21.270  0.00  0.00    +0.000 A 
ATOM      4  C   UNL     1       2.901   2.577  19.939  0.00  0.00    +0.000 A 
ATOM      5  C   UNL     1       2.679   3.541  18.946  0.00  0.00    +0.000 A 
ATOM      6  C   UNL     1       2.129   4.784  19.321  0.00  0.00    +0.000 A 
ENDROOT
BRANCH   1   9
ATOM      7  C   UNL     1       1.688   7.541  20.347  0.00  0.00    +0.000 C 
ATOM      8  O   UNL     1       2.396   7.664  19.354  0.00  0.00    +0.000 OA
ATOM      9  N   UNL     1       1.376   6.357  20.999  0.00  0.00    +0.000 N 
ATOM     10  H   UNL     1       0.669   6.441  21.725  0.00  0.00    +0.000 HD
BRANCH   7  15
ATOM     11  C   UNL     1      -0.853  12.204  22.490  0.00  0.00    +0.000 C 
ATOM     12  C   UNL     1      -0.177  10.986  21.927  0.00  0.00    +0.000 A 
ATOM     13  C   UNL     1      -0.198   9.797  22.666  0.00  0.00    +0.000 A 
ATOM     14  C   UNL     1       0.414   8.664  22.158  0.00  0.00    +0.000 A 
ATOM     15  C   UNL     1       1.036   8.759  20.923  0.00  0.00    +0.000 A 
ATOM     16  N   UNL     1       1.100   9.901  20.187  0.00  0.00    +0.000 NA
ATOM     17  C   UNL     1       0.488  11.012  20.684  0.00  0.00    +0.000 A 
BRANCH  17  18
ATOM     18  C   UNL     1       0.580  12.287  19.866  0.00  0.00    +0.000 C 
ATOM     19  C   UNL     1       1.778  13.201  19.982  0.00  0.00    +0.000 C 
ATOM     20  C   UNL     1       1.581  12.389  18.738  0.00  0.00    +0.000 C 
ENDBRANCH  17  18
ENDBRANCH   7  15
ENDBRANCH   1   9
BRANCH   5  21
ATOM     21  C   UNL     1       3.062   3.262  17.494  0.00  0.00    +0.000 C 
ATOM     22  C   UNL     1       3.929   1.999  17.401  0.00  0.00    +0.000 C 
BRANCH  21  23
ATOM     23  C   UNL     1       3.753   4.499  16.874  0.00  0.00    +0.000 C 
BRANCH  23  24
ATOM     24  C   UNL     1       5.205   4.591  17.222  0.00  0.00    +0.000 A 
ATOM     25  N   UNL     1       5.676   4.945  18.403  0.00  0.00    +0.000 NA
ATOM     26  C   UNL     1       7.040   4.897  18.296  0.00  0.00    +0.000 A 
ATOM     27  C   UNL     1       7.413   4.518  17.030  0.00  0.00    +0.000 A 
ATOM     28  N   UNL     1       6.239   4.329  16.354  0.00  0.00    +0.000 N 
ATOM     29  C   UNL     1       6.129   3.923  14.974  0.00  0.00    +0.000 C 
ENDBRANCH  23  24
ENDBRANCH  21  23
ENDBRANCH   5  21
TORSDOF 6
ENDMDL
MODEL 6
REMARK VINA RESULT:      -8.0      2.435      9.022
REMARK  Name = 
REMARK  9 active torsions:
REMARK  status: ('A' for Active; 'I' for Inactive)
REMARK    1  A    between atoms: C_1  and  C_2
REMARK    2  A    between atoms: C_5  and  C_6
REMARK    3  A    between atoms: N_8  and  C_9
REMARK    4  A    between atoms: C_13  and  C_14
REMARK    5  A    between atoms: C_14  and  C_15
REMARK    6  A    between atoms: C_14  and  C_16
REMARK    7  A    between atoms: C_16  and  C_17
REMARK    8  A    between atoms: N_21  and  C_22
REMARK    9  A    between atoms: C_25  and  C_26
REMARK                            x       y       z     vdW  Elec       q    Type
REMARK                         _______ _______ _______ _____ _____    ______ ____
ROOT
ATOM      1  C   UNL     1       2.876   5.624  18.899  0.00  0.00    +0.000 A 
ATOM      2  C   UNL     1       2.723   4.262  19.167  0.00  0.00    +0.000 A 
ATOM      3  C   UNL     1       3.443   3.309  18.452  0.00  0.00    +0.000 A 
ATOM      4  C   UNL     1       4.340   3.710  17.469  0.00  0.00    +0.000 A 
ATOM      5  C   UNL     1       4.517   5.069  17.172  0.00  0.00    +0.000 A 
ATOM      6  C   UNL     1       3.753   6.020  17.878  0.00  0.00    +0.000 A 
ENDROOT
BRANCH   1   9
ATOM      7  C   UNL     1       1.922   7.908  19.185  0.00  0.00    +0.000 C 
ATOM      8  O   UNL     1       2.205   8.381  18.089  0.00  0.00    +0.000 OA
ATOM      9  N   UNL     1       2.184   6.618  19.622  0.00  0.00    +0.000 N 
ATOM     10  H   UNL     1       1.757   6.371  20.511  0.00  0.00    +0.000 HD
BRANCH   7  15
ATOM     11  C   UNL     1      -0.990  11.145  22.904  0.00  0.00    +0.000 C 
ATOM     12  C   UNL     1      -0.221  10.304  21.925  0.00  0.00    +0.000 A 
ATOM     13  C   UNL     1       0.516   9.213  22.401  0.00  0.00    +0.000 A 
ATOM     14  C   UNL     1       1.225   8.425  21.510  0.00  0.00    +0.000 A 
ATOM     15  C   UNL     1       1.178   8.758  20.166  0.00  0.00    +0.000 A 
ATOM     16  N   UNL     1       0.495   9.824  19.669  0.00  0.00    +0.000 NA
ATOM     17  C   UNL     1      -0.210  10.593  20.545  0.00  0.00    +0.000 A 
BRANCH  17  18
ATOM     18  C   UNL     1      -0.954  11.790  19.985  0.00  0.00    +0.000 C 
ATOM     19  C   UNL     1      -0.209  13.014  19.503  0.00  0.00    +0.000 C 
ATOM     20  C   UNL     1      -0.870  12.108  18.509  0.00  0.00    +0.000 C 
ENDBRANCH  17  18
ENDBRANCH   7  15
ENDBRANCH   1   9
BRANCH   5  21
ATOM     21  C   UNL     1       5.545   5.509  16.132  0.00  0.00    +0.000 C 
ATOM     22  C   UNL     1       5.330   4.751  14.813  0.00  0.00    +0.000 C 
BRANCH  21  23
ATOM     23  C   UNL     1       6.978   5.335  16.686  0.00  0.00    +0.000 C 
BRANCH  23  24
ATOM     24  C   UNL     1       7.493   6.563  17.367  0.00  0.00    +0.000 A 
ATOM     25  N   UNL     1       7.535   7.765  16.824  0.00  0.00    +0.000 NA
ATOM     26  C   UNL     1       8.068   8.592  17.776  0.00  0.00    +0.000 A 
ATOM     27  C   UNL     1       8.367   7.888  18.916  0.00  0.00    +0.000 A 
ATOM     28  N   UNL     1       8.000   6.598  18.645  0.00  0.00    +0.000 N 
ATOM     29  C   UNL     1       8.130   5.487  19.556  0.00  0.00    +0.000 C 
ENDBRANCH  23  24
ENDBRANCH  21  23
ENDBRANCH   5  21
TORSDOF 6
ENDMDL
MODEL 7
REMARK VINA RESULT:      -7.9      0.977      1.094
REMARK  Name = 
REMARK  9 active torsions:
REMARK  status: ('A' for Active; 'I' for Inactive)
REMARK    1  A    between atoms: C_1  and  C_2
REMARK    2  A    between atoms: C_5  and  C_6
REMARK    3  A    between atoms: N_8  and  C_9
REMARK    4  A    between atoms: C_13  and  C_14
REMARK    5  A    between atoms: C_14  and  C_15
REMARK    6  A    between atoms: C_14  and  C_16
REMARK    7  A    between atoms: C_16  and  C_17
REMARK    8  A    between atoms: N_21  and  C_22
REMARK    9  A    between atoms: C_25  and  C_26
REMARK                            x       y       z     vdW  Elec       q    Type
REMARK                         _______ _______ _______ _____ _____    ______ ____
ROOT
ATOM      1  C   UNL     1       1.457   8.590  20.018  0.00  0.00    +0.000 A 
ATOM      2  C   UNL     1       1.239   8.430  21.387  0.00  0.00    +0.000 A 
ATOM      3  C   UNL     1       0.452   9.334  22.095  0.00  0.00    +0.000 A 
ATOM      4  C   UNL     1      -0.141  10.404  21.433  0.00  0.00    +0.000 A 
ATOM      5  C   UNL     1       0.059  10.596  20.059  0.00  0.00    +0.000 A 
ATOM      6  C   UNL     1       0.889   9.693  19.364  0.00  0.00    +0.000 A 
ENDROOT
BRANCH   1   9
ATOM      7  C   UNL     1       2.558   6.386  19.642  0.00  0.00    +0.000 C 
ATOM      8  O   UNL     1       2.203   5.809  20.665  0.00  0.00    +0.000 OA
ATOM      9  N   UNL     1       2.226   7.678  19.264  0.00  0.00    +0.000 N 
ATOM     10  H   UNL     1       2.507   7.935  18.321  0.00  0.00    +0.000 HD
BRANCH   7  15
ATOM     11  C   UNL     1       5.810   3.508  15.909  0.00  0.00    +0.000 C 
ATOM     12  C   UNL     1       4.961   4.272  16.886  0.00  0.00    +0.000 A 
ATOM     13  C   UNL     1       3.567   4.178  16.791  0.00  0.00    +0.000 A 
ATOM     14  C   UNL     1       2.772   4.871  17.688  0.00  0.00    +0.000 A 
ATOM     15  C   UNL     1       3.399   5.644  18.652  0.00  0.00    +0.000 A 
ATOM     16  N   UNL     1       4.748   5.781  18.760  0.00  0.00    +0.000 NA
ATOM     17  C   UNL     1       5.530   5.091  17.884  0.00  0.00    +0.000 A 
BRANCH  17  18
ATOM     18  C   UNL     1       7.033   5.263  17.999  0.00  0.00    +0.000 C 
ATOM     19  C   UNL     1       7.673   6.625  17.857  0.00  0.00    +0.000 C 
ATOM     20  C   UNL     1       7.621   5.966  19.201  0.00  0.00    +0.000 C 
ENDBRANCH  17  18
ENDBRANCH   7  15
ENDBRANCH   1   9
BRANCH   5  21
ATOM     21  C   UNL     1      -0.640  11.738  19.325  0.00  0.00    +0.000 C 
ATOM     22  C   UNL     1      -0.101  13.093  19.806  0.00  0.00    +0.000 C 
BRANCH  21  23
ATOM     23  C   UNL     1      -2.173  11.623  19.487  0.00  0.00    +0.000 C 
BRANCH  23  24
ATOM     24  C   UNL     1      -2.888  11.469  18.182  0.00  0.00    +0.000 A 
ATOM     25  N   UNL     1      -2.309  11.163  17.036  0.00  0.00    +0.000 NA
ATOM     26  C   UNL     1      -3.311  11.119  16.105  0.00  0.00    +0.000 A 
ATOM     27  C   UNL     1      -4.522  11.411  16.683  0.00  0.00    +0.000 A 
ATOM     28  N   UNL     1      -4.242  11.635  18.003  0.00  0.00    +0.000 N 
ATOM     29  C   UNL     1      -5.212  11.980  19.013  0.00  0.00    +0.000 C 
ENDBRANCH  23  24
ENDBRANCH  21  23
ENDBRANCH   5  21
TORSDOF 6
ENDMDL
MODEL 8
REMARK VINA RESULT:      -7.8      2.041      3.274
REMARK  Name = 
REMARK  9 active torsions:
REMARK  status: ('A' for Active; 'I' for Inactive)
REMARK    1  A    between atoms: C_1  and  C_2
REMARK    2  A    between atoms: C_5  and  C_6
REMARK    3  A    between atoms: N_8  and  C_9
REMARK    4  A    between atoms: C_13  and  C_14
REMARK    5  A    between atoms: C_14  and  C_15
REMARK    6  A    between atoms: C_14  and  C_16
REMARK    7  A    between atoms: C_16  and  C_17
REMARK    8  A    between atoms: N_21  and  C_22
REMARK    9  A    between atoms: C_25  and  C_26
REMARK                            x       y       z     vdW  Elec       q    Type
REMARK                         _______ _______ _______ _____ _____    ______ ____
ROOT
ATOM      1  C   UNL     1       0.503   9.238  21.123  0.00  0.00    +0.000 A 
ATOM      2  C   UNL     1       0.181   9.211  22.482  0.00  0.00    +0.000 A 
ATOM      3  C   UNL     1      -0.565  10.235  23.059  0.00  0.00    +0.000 A 
ATOM      4  C   UNL     1      -1.012  11.293  22.276  0.00  0.00    +0.000 A 
ATOM      5  C   UNL     1      -0.706  11.353  20.910  0.00  0.00    +0.000 A 
ATOM      6  C   UNL     1       0.082  10.329  20.348  0.00  0.00    +0.000 A 
ENDROOT
BRANCH   1   9
ATOM      7  C   UNL     1       1.834   8.271  19.252  0.00  0.00    +0.000 C 
ATOM      8  O   UNL     1       1.870   9.245  18.508  0.00  0.00    +0.000 OA
ATOM      9  N   UNL     1       1.233   8.204  20.500  0.00  0.00    +0.000 N 
ATOM     10  H   UNL     1       1.421   7.352  21.021  0.00  0.00    +0.000 HD
BRANCH   7  15
ATOM     11  C   UNL     1       4.444   3.442  17.619  0.00  0.00    +0.000 C 
ATOM     12  C   UNL     1       3.762   4.708  18.057  0.00  0.00    +0.000 A 
ATOM     13  C   UNL     1       4.108   5.914  17.436  0.00  0.00    +0.000 A 
ATOM     14  C   UNL     1       3.484   7.087  17.825  0.00  0.00    +0.000 A 
ATOM     15  C   UNL     1       2.534   7.017  18.831  0.00  0.00    +0.000 A 
ATOM     16  N   UNL     1       2.189   5.869  19.475  0.00  0.00    +0.000 NA
ATOM     17  C   UNL     1       2.796   4.714  19.085  0.00  0.00    +0.000 A 
BRANCH  17  18
ATOM     18  C   UNL     1       2.420   3.442  19.821  0.00  0.00    +0.000 C 
ATOM     19  C   UNL     1       1.084   3.312  20.516  0.00  0.00    +0.000 C 
ATOM     20  C   UNL     1       1.346   2.537  19.261  0.00  0.00    +0.000 C 
ENDBRANCH  17  18
ENDBRANCH   7  15
ENDBRANCH   1   9
BRANCH   5  21
ATOM     21  C   UNL     1      -1.247  12.487  20.041  0.00  0.00    +0.000 C 
ATOM     22  C   UNL     1      -0.992  13.845  20.713  0.00  0.00    +0.000 C 
BRANCH  21  23
ATOM     23  C   UNL     1      -2.744  12.256  19.729  0.00  0.00    +0.000 C 
BRANCH  23  24
ATOM     24  C   UNL     1      -2.978  11.746  18.342  0.00  0.00    +0.000 A 
ATOM     25  N   UNL     1      -2.030  11.512  17.454  0.00  0.00    +0.000 NA
ATOM     26  C   UNL     1      -2.667  11.058  16.331  0.00  0.00    +0.000 A 
ATOM     27  C   UNL     1      -4.025  11.021  16.526  0.00  0.00    +0.000 A 
ATOM     28  N   UNL     1      -4.214  11.463  17.807  0.00  0.00    +0.000 N 
ATOM     29  C   UNL     1      -5.492  11.597  18.462  0.00  0.00    +0.000 C 
ENDBRANCH  23  24
ENDBRANCH  21  23
ENDBRANCH   5  21
TORSDOF 6
ENDMDL
MODEL 9
REMARK VINA RESULT:      -7.8      1.970      3.329
REMARK  Name = 
REMARK  9 active torsions:
REMARK  status: ('A' for Active; 'I' for Inactive)
REMARK    1  A    between atoms: C_1  and  C_2
REMARK    2  A    between atoms: C_5  and  C_6
REMARK    3  A    between atoms: N_8  and  C_9
REMARK    4  A    between atoms: C_13  and  C_14
REMARK    5  A    between atoms: C_14  and  C_15
REMARK    6  A    between atoms: C_14  and  C_16
REMARK    7  A    between atoms: C_16  and  C_17
REMARK    8  A    between atoms: N_21  and  C_22
REMARK    9  A    between atoms: C_25  and  C_26
REMARK                            x       y       z     vdW  Elec       q    Type
REMARK                         _______ _______ _______ _____ _____    ______ ____
ROOT
ATOM      1  C   UNL     1       1.492  10.457  18.239  0.00  0.00    +0.000 A 
ATOM      2  C   UNL     1       2.311  11.587  18.287  0.00  0.00    +0.000 A 
ATOM      3  C   UNL     1       1.767  12.855  18.477  0.00  0.00    +0.000 A 
ATOM      4  C   UNL     1       0.394  13.004  18.639  0.00  0.00    +0.000 A 
ATOM      5  C   UNL     1      -0.458  11.891  18.595  0.00  0.00    +0.000 A 
ATOM      6  C   UNL     1       0.104  10.619  18.363  0.00  0.00    +0.000 A 
ENDROOT
BRANCH   1   9
ATOM      7  C   UNL     1       2.080   8.177  19.055  0.00  0.00    +0.000 C 
ATOM      8  O   UNL     1       1.662   8.263  20.205  0.00  0.00    +0.000 OA
ATOM      9  N   UNL     1       2.011   9.155  18.075  0.00  0.00    +0.000 N 
ATOM     10  H   UNL     1       2.292   8.853  17.146  0.00  0.00    +0.000 HD
BRANCH   7  15
ATOM     11  C   UNL     1       4.358   3.221  17.310  0.00  0.00    +0.000 C 
ATOM     12  C   UNL     1       3.762   4.519  17.778  0.00  0.00    +0.000 A 
ATOM     13  C   UNL     1       4.237   5.718  17.232  0.00  0.00    +0.000 A 
ATOM     14  C   UNL     1       3.694   6.922  17.648  0.00  0.00    +0.000 A 
ATOM     15  C   UNL     1       2.693   6.888  18.606  0.00  0.00    +0.000 A 
ATOM     16  N   UNL     1       2.224   5.747  19.178  0.00  0.00    +0.000 NA
ATOM     17  C   UNL     1       2.751   4.563  18.760  0.00  0.00    +0.000 A 
BRANCH  17  18
ATOM     18  C   UNL     1       2.236   3.295  19.416  0.00  0.00    +0.000 C 
ATOM     19  C   UNL     1       0.961   3.304  20.229  0.00  0.00    +0.000 C 
ATOM     20  C   UNL     1       0.984   2.630  18.891  0.00  0.00    +0.000 C 
ENDBRANCH  17  18
ENDBRANCH   7  15
ENDBRANCH   1   9
BRANCH   5  21
ATOM     21  C   UNL     1      -1.958  12.051  18.830  0.00  0.00    +0.000 C 
ATOM     22  C   UNL     1      -2.230  12.498  20.273  0.00  0.00    +0.000 C 
BRANCH  21  23
ATOM     23  C   UNL     1      -2.700  10.743  18.468  0.00  0.00    +0.000 C 
BRANCH  23  24
ATOM     24  C   UNL     1      -3.029  10.642  17.012  0.00  0.00    +0.000 A 
ATOM     25  N   UNL     1      -2.282  10.031  16.112  0.00  0.00    +0.000 NA
ATOM     26  C   UNL     1      -2.939  10.168  14.919  0.00  0.00    +0.000 A 
ATOM     27  C   UNL     1      -4.101  10.880  15.086  0.00  0.00    +0.000 A 
ATOM     28  N   UNL     1      -4.147  11.180  16.420  0.00  0.00    +0.000 N 
ATOM     29  C   UNL     1      -5.196  11.928  17.069  0.00  0.00    +0.000 C 
ENDBRANCH  23  24
ENDBRANCH  21  23
ENDBRANCH   5  21
TORSDOF 6
ENDMDL
