MODEL 1
REMARK VINA RESULT:      -9.4      0.000      0.000
REMARK  Name = 
REMARK  11 active torsions:
REMARK  status: ('A' for Active; 'I' for Inactive)
REMARK    1  A    between atoms: CB_1  and  CA_2
REMARK    2  A    between atoms: CA_2  and  C_3
REMARK    3  A    between atoms: CA_2  and  N_5
REMARK    4  A    between atoms: C_3  and  O_4
REMARK    5  A    between atoms: C_8  and  C_9
REMARK    6  A    between atoms: C_9  and  C_10
REMARK    7  A    between atoms: C_9  and  C_11
REMARK    8  A    between atoms: C_11  and  C_12
REMARK    9  A    between atoms: N_16  and  C_17
REMARK   10  A    between atoms: C_19  and  N_20
REMARK   11  A    between atoms: C_27  and  C_28
REMARK                            x       y       z     vdW  Elec       q    Type
REMARK                         _______ _______ _______ _____ _____    ______ ____
ROOT
ATOM      1  N   ALA A   1       2.752   3.422  19.315  0.00  0.00    +0.000 N 
ATOM      2  C   UNK A   0       3.082   4.705  18.851  0.00  0.00    +0.000 A 
ATOM      3  C   UNK A   0       4.048   4.774  17.852  0.00  0.00    +0.000 A 
ATOM      4  C   UNK A   0       4.437   6.014  17.352  0.00  0.00    +0.000 A 
ATOM      5  C   UNK A   0       3.732   7.135  17.793  0.00  0.00    +0.000 A 
ATOM      6  C   UNK A   0       2.716   6.996  18.739  0.00  0.00    +0.000 A 
ATOM      7  N   UNK A   0       2.429   5.792  19.284  0.00  0.00    +0.000 NA
ATOM      8  H   ALA A   1       2.036   3.077  18.679  0.00  0.00    +0.000 HD
ENDROOT
BRANCH   6   9
ATOM      9  N   UNK A   0       1.949   8.122  19.115  0.00  0.00    +0.000 N 
ATOM     10  C   UNK A   0       1.330   8.250  20.423  0.00  0.00    +0.000 C 
ATOM     11  C   UNK A   0       0.743   9.624  20.401  0.00  0.00    +0.000 A 
ATOM     12  C   UNK A   0       1.005  10.211  19.164  0.00  0.00    +0.000 A 
ATOM     13  C   UNK A   0       0.574  11.484  18.836  0.00  0.00    +0.000 A 
ATOM     14  C   UNK A   0      -0.148  12.189  19.799  0.00  0.00    +0.000 A 
ATOM     15  C   UNK A   0      -0.411  11.616  21.056  0.00  0.00    +0.000 A 
ATOM     16  C   UNK A   0       0.036  10.319  21.382  0.00  0.00    +0.000 A 
ATOM     17  C   UNK A   0       1.781   9.270  18.344  0.00  0.00    +0.000 C 
ATOM     18  O   UNK A   0       2.147   9.550  17.215  0.00  0.00    +0.000 OA
BRANCH  16  19
ATOM     19  C   UNK A   0      -0.247   9.749  22.748  0.00  0.00    +0.000 C 
ATOM     20  F   UNK A   0      -0.957   8.588  22.718  0.00  0.00    +0.000 F 
ATOM     21  F   UNK A   0       0.890   9.474  23.441  0.00  0.00    +0.000 F 
ATOM     22  F   UNK A   0      -0.967  10.603  23.528  0.00  0.00    +0.000 F 
ENDBRANCH  16  19
ENDBRANCH   6   9
BRANCH   1  24
ATOM     23  CB  ALA A   1       0.779   2.987  20.636  0.00  0.00    +0.000 C 
ATOM     24  CA  ALA A   1       2.278   3.323  20.706  0.00  0.00    +0.000 C 
BRANCH  24  25
ATOM     25  C   ALA A   1       3.016   2.210  21.485  0.00  0.00    +0.000 C 
BRANCH  25  26
ATOM     26  O   ALA A   1       4.381   2.088  21.081  0.00  0.00    +0.000 OA
ATOM     27  H   ALA A   1       4.607   1.143  21.163  0.00  0.00    +0.000 HD
ENDBRANCH  25  26
ENDBRANCH  24  25
ENDBRANCH   1  24
BRANCH   4  28
ATOM     28  C   UNK A   0       5.614   6.171  16.404  0.00  0.00    +0.000 C 
ATOM     29  C   UNK A   0       6.728   6.977  17.088  0.00  0.00    +0.000 C 
BRANCH  28  30
ATOM     30  C   UNK A   0       6.179   4.835  15.888  0.00  0.00    +0.000 C 
BRANCH  30  31
ATOM     31  C   UNK A   0       6.918   4.989  14.604  0.00  0.00    +0.000 A 
ATOM     32  N   UNK A   0       8.011   5.698  14.408  0.00  0.00    +0.000 NA
ATOM     33  N   UNK A   0       8.369   5.575  13.085  0.00  0.00    +0.000 NA
ATOM     34  C   UNK A   0       7.491   4.791  12.506  0.00  0.00    +0.000 A 
ATOM     35  N   UNK A   0       6.562   4.398  13.419  0.00  0.00    +0.000 N 
ATOM     36  C   UNK A   0       5.445   3.527  13.176  0.00  0.00    +0.000 C 
ENDBRANCH  30  31
ENDBRANCH  28  30
ENDBRANCH   4  28
TORSDOF 8
ENDMDL
MODEL 2
REMARK VINA RESULT:      -9.0      1.410      1.614
REMARK  Name = 
REMARK  11 active torsions:
REMARK  status: ('A' for Active; 'I' for Inactive)
REMARK    1  A    between atoms: CB_1  and  CA_2
REMARK    2  A    between atoms: CA_2  and  C_3
REMARK    3  A    between atoms: CA_2  and  N_5
REMARK    4  A    between atoms: C_3  and  O_4
REMARK    5  A    between atoms: C_8  and  C_9
REMARK    6  A    between atoms: C_9  and  C_10
REMARK    7  A    between atoms: C_9  and  C_11
REMARK    8  A    between atoms: C_11  and  C_12
REMARK    9  A    between atoms: N_16  and  C_17
REMARK   10  A    between atoms: C_19  and  N_20
REMARK   11  A    between atoms: C_27  and  C_28
REMARK                            x       y       z     vdW  Elec       q    Type
REMARK                         _______ _______ _______ _____ _____    ______ ____
ROOT
ATOM      1  N   ALA A   1       3.112   2.674  19.269  0.00  0.00    +0.000 N 
ATOM      2  C   UNK A   0       3.586   3.989  19.132  0.00  0.00    +0.000 A 
ATOM      3  C   UNK A   0       4.883   4.134  18.650  0.00  0.00    +0.000 A 
ATOM      4  C   UNK A   0       5.427   5.407  18.502  0.00  0.00    +0.000 A 
ATOM      5  C   UNK A   0       4.582   6.496  18.723  0.00  0.00    +0.000 A 
ATOM      6  C   UNK A   0       3.263   6.289  19.128  0.00  0.00    +0.000 A 
ATOM      7  N   UNK A   0       2.793   5.043  19.364  0.00  0.00    +0.000 NA
ATOM      8  H   ALA A   1       2.740   2.422  18.356  0.00  0.00    +0.000 HD
ENDROOT
BRANCH   6   9
ATOM      9  N   UNK A   0       2.390   7.391  19.265  0.00  0.00    +0.000 N 
ATOM     10  C   UNK A   0       1.720   7.713  20.514  0.00  0.00    +0.000 C 
ATOM     11  C   UNK A   0       1.017   8.998  20.215  0.00  0.00    +0.000 A 
ATOM     12  C   UNK A   0       1.267   9.355  18.890  0.00  0.00    +0.000 A 
ATOM     13  C   UNK A   0       0.738  10.496  18.314  0.00  0.00    +0.000 A 
ATOM     14  C   UNK A   0      -0.073  11.305  19.110  0.00  0.00    +0.000 A 
ATOM     15  C   UNK A   0      -0.326  10.964  20.450  0.00  0.00    +0.000 A 
ATOM     16  C   UNK A   0       0.222   9.801  21.031  0.00  0.00    +0.000 A 
ATOM     17  C   UNK A   0       2.147   8.348  18.281  0.00  0.00    +0.000 C 
ATOM     18  O   UNK A   0       2.524   8.437  17.126  0.00  0.00    +0.000 OA
BRANCH  16  19
ATOM     19  C   UNK A   0      -0.056   9.483  22.477  0.00  0.00    +0.000 C 
ATOM     20  F   UNK A   0      -0.918   8.444  22.651  0.00  0.00    +0.000 F 
ATOM     21  F   UNK A   0       1.073   9.151  23.160  0.00  0.00    +0.000 F 
ATOM     22  F   UNK A   0      -0.603  10.536  23.145  0.00  0.00    +0.000 F 
ENDBRANCH  16  19
ENDBRANCH   6   9
BRANCH   1  24
ATOM     23  CB  ALA A   1       2.540   3.241  21.544  0.00  0.00    +0.000 C 
ATOM     24  CA  ALA A   1       2.095   2.442  20.308  0.00  0.00    +0.000 C 
BRANCH  24  25
ATOM     25  C   ALA A   1       0.698   2.928  19.860  0.00  0.00    +0.000 C 
BRANCH  25  26
ATOM     26  O   ALA A   1       0.341   4.169  20.472  0.00  0.00    +0.000 OA
ATOM     27  H   ALA A   1       0.815   4.863  19.979  0.00  0.00    +0.000 HD
ENDBRANCH  25  26
ENDBRANCH  24  25
ENDBRANCH   1  24
BRANCH   4  28
ATOM     28  C   UNK A   0       6.892   5.628  18.165  0.00  0.00    +0.000 C 
ATOM     29  C   UNK A   0       7.702   5.797  19.458  0.00  0.00    +0.000 C 
BRANCH  28  30
ATOM     30  C   UNK A   0       7.507   4.507  17.307  0.00  0.00    +0.000 C 
BRANCH  30  31
ATOM     31  C   UNK A   0       7.186   4.658  15.860  0.00  0.00    +0.000 A 
ATOM     32  N   UNK A   0       7.772   5.474  15.007  0.00  0.00    +0.000 NA
ATOM     33  N   UNK A   0       7.181   5.304  13.778  0.00  0.00    +0.000 NA
ATOM     34  C   UNK A   0       6.253   4.386  13.904  0.00  0.00    +0.000 A 
ATOM     35  N   UNK A   0       6.220   3.950  15.193  0.00  0.00    +0.000 N 
ATOM     36  C   UNK A   0       5.349   2.940  15.728  0.00  0.00    +0.000 C 
ENDBRANCH  30  31
ENDBRANCH  28  30
ENDBRANCH   4  28
TORSDOF 8
ENDMDL
MODEL 3
REMARK VINA RESULT:      -8.9      0.944      1.158
REMARK  Name = 
REMARK  11 active torsions:
REMARK  status: ('A' for Active; 'I' for Inactive)
REMARK    1  A    between atoms: CB_1  and  CA_2
REMARK    2  A    between atoms: CA_2  and  C_3
REMARK    3  A    between atoms: CA_2  and  N_5
REMARK    4  A    between atoms: C_3  and  O_4
REMARK    5  A    between atoms: C_8  and  C_9
REMARK    6  A    between atoms: C_9  and  C_10
REMARK    7  A    between atoms: C_9  and  C_11
REMARK    8  A    between atoms: C_11  and  C_12
REMARK    9  A    between atoms: N_16  and  C_17
REMARK   10  A    between atoms: C_19  and  N_20
REMARK   11  A    between atoms: C_27  and  C_28
REMARK                            x       y       z     vdW  Elec       q    Type
REMARK                         _______ _______ _______ _____ _____    ______ ____
ROOT
ATOM      1  N   ALA A   1       2.638   3.228  18.655  0.00  0.00    +0.000 N 
ATOM      2  C   UNK A   0       3.150   4.534  18.585  0.00  0.00    +0.000 A 
ATOM      3  C   UNK A   0       4.402   4.678  17.996  0.00  0.00    +0.000 A 
ATOM      4  C   UNK A   0       4.982   5.941  17.905  0.00  0.00    +0.000 A 
ATOM      5  C   UNK A   0       4.206   7.034  18.297  0.00  0.00    +0.000 A 
ATOM      6  C   UNK A   0       2.922   6.834  18.806  0.00  0.00    +0.000 A 
ATOM      7  N   UNK A   0       2.425   5.589  18.979  0.00  0.00    +0.000 NA
ATOM      8  H   ALA A   1       2.173   3.070  17.763  0.00  0.00    +0.000 HD
ENDROOT
BRANCH   6   9
ATOM      9  N   UNK A   0       2.111   7.949  19.118  0.00  0.00    +0.000 N 
ATOM     10  C   UNK A   0       1.496   8.133  20.421  0.00  0.00    +0.000 C 
ATOM     11  C   UNK A   0       0.851   9.478  20.319  0.00  0.00    +0.000 A 
ATOM     12  C   UNK A   0       1.080   9.996  19.045  0.00  0.00    +0.000 A 
ATOM     13  C   UNK A   0       0.593  11.227  18.642  0.00  0.00    +0.000 A 
ATOM     14  C   UNK A   0      -0.151  11.960  19.566  0.00  0.00    +0.000 A 
ATOM     15  C   UNK A   0      -0.382  11.456  20.859  0.00  0.00    +0.000 A 
ATOM     16  C   UNK A   0       0.122  10.202  21.261  0.00  0.00    +0.000 A 
ATOM     17  C   UNK A   0       1.889   9.039  18.278  0.00  0.00    +0.000 C 
ATOM     18  O   UNK A   0       2.236   9.262  17.131  0.00  0.00    +0.000 OA
BRANCH  16  19
ATOM     19  C   UNK A   0      -0.128   9.708  22.663  0.00  0.00    +0.000 C 
ATOM     20  F   UNK A   0      -0.786  10.604  23.448  0.00  0.00    +0.000 F 
ATOM     21  F   UNK A   0      -0.876   8.572  22.685  0.00  0.00    +0.000 F 
ATOM     22  F   UNK A   0       1.026   9.412  23.323  0.00  0.00    +0.000 F 
ENDBRANCH  16  19
ENDBRANCH   6   9
BRANCH   1  24
ATOM     23  CB  ALA A   1       0.724   1.880  19.244  0.00  0.00    +0.000 C 
ATOM     24  CA  ALA A   1       1.711   2.939  19.762  0.00  0.00    +0.000 C 
BRANCH  24  25
ATOM     25  C   ALA A   1       2.453   2.386  21.000  0.00  0.00    +0.000 C 
BRANCH  25  26
ATOM     26  O   ALA A   1       2.110   3.096  22.192  0.00  0.00    +0.000 OA
ATOM     27  H   ALA A   1       1.683   2.448  22.782  0.00  0.00    +0.000 HD
ENDBRANCH  25  26
ENDBRANCH  24  25
ENDBRANCH   1  24
BRANCH   4  28
ATOM     28  C   UNK A   0       6.417   6.142  17.450  0.00  0.00    +0.000 C 
ATOM     29  C   UNK A   0       7.254   6.706  18.607  0.00  0.00    +0.000 C 
BRANCH  28  30
ATOM     30  C   UNK A   0       7.080   4.865  16.901  0.00  0.00    +0.000 C 
BRANCH  30  31
ATOM     31  C   UNK A   0       7.071   4.816  15.413  0.00  0.00    +0.000 A 
ATOM     32  N   UNK A   0       7.810   5.544  14.599  0.00  0.00    +0.000 NA
ATOM     33  N   UNK A   0       7.496   5.191  13.307  0.00  0.00    +0.000 NA
ATOM     34  C   UNK A   0       6.581   4.254  13.360  0.00  0.00    +0.000 A 
ATOM     35  N   UNK A   0       6.282   3.985  14.660  0.00  0.00    +0.000 N 
ATOM     36  C   UNK A   0       5.336   3.011  15.132  0.00  0.00    +0.000 C 
ENDBRANCH  30  31
ENDBRANCH  28  30
ENDBRANCH   4  28
TORSDOF 8
ENDMDL
MODEL 4
REMARK VINA RESULT:      -8.8      0.846      1.253
REMARK  Name = 
REMARK  11 active torsions:
REMARK  status: ('A' for Active; 'I' for Inactive)
REMARK    1  A    between atoms: CB_1  and  CA_2
REMARK    2  A    between atoms: CA_2  and  C_3
REMARK    3  A    between atoms: CA_2  and  N_5
REMARK    4  A    between atoms: C_3  and  O_4
REMARK    5  A    between atoms: C_8  and  C_9
REMARK    6  A    between atoms: C_9  and  C_10
REMARK    7  A    between atoms: C_9  and  C_11
REMARK    8  A    between atoms: C_11  and  C_12
REMARK    9  A    between atoms: N_16  and  C_17
REMARK   10  A    between atoms: C_19  and  N_20
REMARK   11  A    between atoms: C_27  and  C_28
REMARK                            x       y       z     vdW  Elec       q    Type
REMARK                         _______ _______ _______ _____ _____    ______ ____
ROOT
ATOM      1  N   ALA A   1       2.495   3.437  18.340  0.00  0.00    +0.000 N 
ATOM      2  C   UNK A   0       2.977   4.744  18.169  0.00  0.00    +0.000 A 
ATOM      3  C   UNK A   0       4.085   4.893  17.339  0.00  0.00    +0.000 A 
ATOM      4  C   UNK A   0       4.628   6.158  17.133  0.00  0.00    +0.000 A 
ATOM      5  C   UNK A   0       3.943   7.248  17.672  0.00  0.00    +0.000 A 
ATOM      6  C   UNK A   0       2.789   7.044  18.430  0.00  0.00    +0.000 A 
ATOM      7  N   UNK A   0       2.342   5.797  18.700  0.00  0.00    +0.000 NA
ATOM      8  H   ALA A   1       1.861   3.275  17.560  0.00  0.00    +0.000 HD
ENDROOT
BRANCH   6   9
ATOM      9  N   UNK A   0       2.053   8.156  18.898  0.00  0.00    +0.000 N 
ATOM     10  C   UNK A   0       1.420   8.186  20.206  0.00  0.00    +0.000 C 
ATOM     11  C   UNK A   0       0.877   9.574  20.302  0.00  0.00    +0.000 A 
ATOM     12  C   UNK A   0       1.174  10.261  19.126  0.00  0.00    +0.000 A 
ATOM     13  C   UNK A   0       0.787  11.572  18.911  0.00  0.00    +0.000 A 
ATOM     14  C   UNK A   0       0.075  12.210  19.926  0.00  0.00    +0.000 A 
ATOM     15  C   UNK A   0      -0.223  11.534  21.123  0.00  0.00    +0.000 A 
ATOM     16  C   UNK A   0       0.179  10.199  21.335  0.00  0.00    +0.000 A 
ATOM     17  C   UNK A   0       1.930   9.374  18.232  0.00  0.00    +0.000 C 
ATOM     18  O   UNK A   0       2.321   9.743  17.138  0.00  0.00    +0.000 OA
BRANCH  16  19
ATOM     19  C   UNK A   0      -0.140   9.518  22.641  0.00  0.00    +0.000 C 
ATOM     20  F   UNK A   0      -0.855   8.369  22.495  0.00  0.00    +0.000 F 
ATOM     21  F   UNK A   0       0.979   9.178  23.335  0.00  0.00    +0.000 F 
ATOM     22  F   UNK A   0      -0.874  10.308  23.473  0.00  0.00    +0.000 F 
ENDBRANCH  16  19
ENDBRANCH   6   9
BRANCH   1  24
ATOM     23  CB  ALA A   1       0.894   1.939  19.351  0.00  0.00    +0.000 C 
ATOM     24  CA  ALA A   1       1.811   3.145  19.611  0.00  0.00    +0.000 C 
BRANCH  24  25
ATOM     25  C   ALA A   1       2.814   2.793  20.733  0.00  0.00    +0.000 C 
BRANCH  25  26
ATOM     26  O   ALA A   1       2.210   2.846  22.028  0.00  0.00    +0.000 OA
ATOM     27  H   ALA A   1       2.058   1.921  22.296  0.00  0.00    +0.000 HD
ENDBRANCH  25  26
ENDBRANCH  24  25
ENDBRANCH   1  24
BRANCH   4  28
ATOM     28  C   UNK A   0       5.942   6.364  16.398  0.00  0.00    +0.000 C 
ATOM     29  C   UNK A   0       6.844   7.311  17.203  0.00  0.00    +0.000 C 
BRANCH  28  30
ATOM     30  C   UNK A   0       6.698   5.057  16.097  0.00  0.00    +0.000 C 
BRANCH  30  31
ATOM     31  C   UNK A   0       6.418   4.543  14.727  0.00  0.00    +0.000 A 
ATOM     32  N   UNK A   0       5.413   3.770  14.369  0.00  0.00    +0.000 NA
ATOM     33  N   UNK A   0       5.521   3.525  13.020  0.00  0.00    +0.000 NA
ATOM     34  C   UNK A   0       6.583   4.158  12.583  0.00  0.00    +0.000 A 
ATOM     35  N   UNK A   0       7.178   4.811  13.619  0.00  0.00    +0.000 N 
ATOM     36  C   UNK A   0       8.361   5.625  13.544  0.00  0.00    +0.000 C 
ENDBRANCH  30  31
ENDBRANCH  28  30
ENDBRANCH   4  28
TORSDOF 8
ENDMDL
MODEL 5
REMARK VINA RESULT:      -8.8      2.187      2.743
REMARK  Name = 
REMARK  11 active torsions:
REMARK  status: ('A' for Active; 'I' for Inactive)
REMARK    1  A    between atoms: CB_1  and  CA_2
REMARK    2  A    between atoms: CA_2  and  C_3
REMARK    3  A    between atoms: CA_2  and  N_5
REMARK    4  A    between atoms: C_3  and  O_4
REMARK    5  A    between atoms: C_8  and  C_9
REMARK    6  A    between atoms: C_9  and  C_10
REMARK    7  A    between atoms: C_9  and  C_11
REMARK    8  A    between atoms: C_11  and  C_12
REMARK    9  A    between atoms: N_16  and  C_17
REMARK   10  A    between atoms: C_19  and  N_20
REMARK   11  A    between atoms: C_27  and  C_28
REMARK                            x       y       z     vdW  Elec       q    Type
REMARK                         _______ _______ _______ _____ _____    ______ ____
ROOT
ATOM      1  N   ALA A   1       2.743   2.559  17.809  0.00  0.00    +0.000 N 
ATOM      2  C   UNK A   0       3.230   3.875  17.864  0.00  0.00    +0.000 A 
ATOM      3  C   UNK A   0       4.295   4.178  17.020  0.00  0.00    +0.000 A 
ATOM      4  C   UNK A   0       4.841   5.459  17.030  0.00  0.00    +0.000 A 
ATOM      5  C   UNK A   0       4.196   6.427  17.802  0.00  0.00    +0.000 A 
ATOM      6  C   UNK A   0       3.081   6.084  18.567  0.00  0.00    +0.000 A 
ATOM      7  N   UNK A   0       2.635   4.808  18.618  0.00  0.00    +0.000 NA
ATOM      8  H   ALA A   1       2.068   2.550  17.047  0.00  0.00    +0.000 HD
ENDROOT
BRANCH   6   9
ATOM      9  N   UNK A   0       2.382   7.086  19.277  0.00  0.00    +0.000 N 
ATOM     10  C   UNK A   0       2.253   8.449  18.790  0.00  0.00    +0.000 C 
ATOM     11  C   UNK A   0       1.352   9.096  19.792  0.00  0.00    +0.000 A 
ATOM     12  C   UNK A   0       1.018   8.163  20.772  0.00  0.00    +0.000 A 
ATOM     13  C   UNK A   0       0.203   8.471  21.848  0.00  0.00    +0.000 A 
ATOM     14  C   UNK A   0      -0.292   9.772  21.930  0.00  0.00    +0.000 A 
ATOM     15  C   UNK A   0       0.027  10.722  20.943  0.00  0.00    +0.000 A 
ATOM     16  C   UNK A   0       0.855  10.398  19.849  0.00  0.00    +0.000 A 
ATOM     17  C   UNK A   0       1.657   6.880  20.449  0.00  0.00    +0.000 C 
ATOM     18  O   UNK A   0       1.511   5.893  21.150  0.00  0.00    +0.000 OA
BRANCH  16  19
ATOM     19  C   UNK A   0       1.155  11.438  18.801  0.00  0.00    +0.000 C 
ATOM     20  F   UNK A   0       0.065  12.160  18.421  0.00  0.00    +0.000 F 
ATOM     21  F   UNK A   0       2.076  12.346  19.222  0.00  0.00    +0.000 F 
ATOM     22  F   UNK A   0       1.657  10.894  17.658  0.00  0.00    +0.000 F 
ENDBRANCH  16  19
ENDBRANCH   6   9
BRANCH   1  24
ATOM     23  CB  ALA A   1       2.990   2.519  20.210  0.00  0.00    +0.000 C 
ATOM     24  CA  ALA A   1       2.123   2.032  19.036  0.00  0.00    +0.000 C 
BRANCH  24  25
ATOM     25  C   ALA A   1       0.679   2.551  19.217  0.00  0.00    +0.000 C 
BRANCH  25  26
ATOM     26  O   ALA A   1       0.530   3.314  20.416  0.00  0.00    +0.000 OA
ATOM     27  H   ALA A   1      -0.409   3.572  20.461  0.00  0.00    +0.000 HD
ENDBRANCH  25  26
ENDBRANCH  24  25
ENDBRANCH   1  24
BRANCH   4  28
ATOM     28  C   UNK A   0       6.117   5.800  16.279  0.00  0.00    +0.000 C 
ATOM     29  C   UNK A   0       7.116   6.471  17.233  0.00  0.00    +0.000 C 
BRANCH  28  30
ATOM     30  C   UNK A   0       6.780   4.589  15.598  0.00  0.00    +0.000 C 
BRANCH  30  31
ATOM     31  C   UNK A   0       7.260   4.903  14.223  0.00  0.00    +0.000 A 
ATOM     32  N   UNK A   0       8.251   5.712  13.904  0.00  0.00    +0.000 NA
ATOM     33  N   UNK A   0       8.368   5.724  12.534  0.00  0.00    +0.000 NA
ATOM     34  C   UNK A   0       7.452   4.921  12.048  0.00  0.00    +0.000 A 
ATOM     35  N   UNK A   0       6.733   4.383  13.070  0.00  0.00    +0.000 N 
ATOM     36  C   UNK A   0       5.649   3.446  12.948  0.00  0.00    +0.000 C 
ENDBRANCH  30  31
ENDBRANCH  28  30
ENDBRANCH   4  28
TORSDOF 8
ENDMDL
MODEL 6
REMARK VINA RESULT:      -8.7      2.027      2.932
REMARK  Name = 
REMARK  11 active torsions:
REMARK  status: ('A' for Active; 'I' for Inactive)
REMARK    1  A    between atoms: CB_1  and  CA_2
REMARK    2  A    between atoms: CA_2  and  C_3
REMARK    3  A    between atoms: CA_2  and  N_5
REMARK    4  A    between atoms: C_3  and  O_4
REMARK    5  A    between atoms: C_8  and  C_9
REMARK    6  A    between atoms: C_9  and  C_10
REMARK    7  A    between atoms: C_9  and  C_11
REMARK    8  A    between atoms: C_11  and  C_12
REMARK    9  A    between atoms: N_16  and  C_17
REMARK   10  A    between atoms: C_19  and  N_20
REMARK   11  A    between atoms: C_27  and  C_28
REMARK                            x       y       z     vdW  Elec       q    Type
REMARK                         _______ _______ _______ _____ _____    ______ ____
ROOT
ATOM      1  N   ALA A   1       2.585   2.229  19.028  0.00  0.00    +0.000 N 
ATOM      2  C   UNK A   0       3.112   3.405  18.470  0.00  0.00    +0.000 A 
ATOM      3  C   UNK A   0       4.070   3.244  17.474  0.00  0.00    +0.000 A 
ATOM      4  C   UNK A   0       4.648   4.365  16.884  0.00  0.00    +0.000 A 
ATOM      5  C   UNK A   0       4.133   5.614  17.235  0.00  0.00    +0.000 A 
ATOM      6  C   UNK A   0       3.113   5.710  18.182  0.00  0.00    +0.000 A 
ATOM      7  N   UNK A   0       2.642   4.611  18.815  0.00  0.00    +0.000 NA
ATOM      8  H   ALA A   1       1.820   1.955  18.415  0.00  0.00    +0.000 HD
ENDROOT
BRANCH   6   9
ATOM      9  N   UNK A   0       2.537   6.968  18.467  0.00  0.00    +0.000 N 
ATOM     10  C   UNK A   0       1.827   7.246  19.704  0.00  0.00    +0.000 C 
ATOM     11  C   UNK A   0       1.512   8.704  19.609  0.00  0.00    +0.000 A 
ATOM     12  C   UNK A   0       1.999   9.196  18.398  0.00  0.00    +0.000 A 
ATOM     13  C   UNK A   0       1.847  10.517  18.016  0.00  0.00    +0.000 A 
ATOM     14  C   UNK A   0       1.179  11.371  18.894  0.00  0.00    +0.000 A 
ATOM     15  C   UNK A   0       0.692  10.892  20.123  0.00  0.00    +0.000 A 
ATOM     16  C   UNK A   0       0.855   9.545  20.506  0.00  0.00    +0.000 A 
ATOM     17  C   UNK A   0       2.662   8.105  17.671  0.00  0.00    +0.000 C 
ATOM     18  O   UNK A   0       3.183   8.280  16.583  0.00  0.00    +0.000 OA
BRANCH  16  19
ATOM     19  C   UNK A   0       0.337   9.077  21.841  0.00  0.00    +0.000 C 
ATOM     20  F   UNK A   0      -0.616   8.110  21.748  0.00  0.00    +0.000 F 
ATOM     21  F   UNK A   0       1.320   8.558  22.625  0.00  0.00    +0.000 F 
ATOM     22  F   UNK A   0      -0.226  10.085  22.562  0.00  0.00    +0.000 F 
ENDBRANCH  16  19
ENDBRANCH   6   9
BRANCH   1  24
ATOM     23  CB  ALA A   1       3.361   2.459  21.303  0.00  0.00    +0.000 C 
ATOM     24  CA  ALA A   1       2.110   2.312  20.419  0.00  0.00    +0.000 C 
BRANCH  24  25
ATOM     25  C   ALA A   1       1.185   3.531  20.637  0.00  0.00    +0.000 C 
BRANCH  25  26
ATOM     26  O   ALA A   1      -0.031   3.420  19.893  0.00  0.00    +0.000 OA
ATOM     27  H   ALA A   1      -0.166   4.282  19.461  0.00  0.00    +0.000 HD
ENDBRANCH  25  26
ENDBRANCH  24  25
ENDBRANCH   1  24
BRANCH   4  28
ATOM     28  C   UNK A   0       5.829   4.261  15.934  0.00  0.00    +0.000 C 
ATOM     29  C   UNK A   0       5.324   4.176  14.486  0.00  0.00    +0.000 C 
BRANCH  28  30
ATOM     30  C   UNK A   0       6.838   5.417  16.067  0.00  0.00    +0.000 C 
BRANCH  30  31
ATOM     31  C   UNK A   0       7.390   5.531  17.446  0.00  0.00    +0.000 A 
ATOM     32  N   UNK A   0       7.681   4.535  18.259  0.00  0.00    +0.000 NA
ATOM     33  N   UNK A   0       8.165   5.068  19.431  0.00  0.00    +0.000 NA
ATOM     34  C   UNK A   0       8.166   6.374  19.305  0.00  0.00    +0.000 A 
ATOM     35  N   UNK A   0       7.689   6.710  18.076  0.00  0.00    +0.000 N 
ATOM     36  C   UNK A   0       7.546   8.042  17.554  0.00  0.00    +0.000 C 
ENDBRANCH  30  31
ENDBRANCH  28  30
ENDBRANCH   4  28
TORSDOF 8
ENDMDL
MODEL 7
REMARK VINA RESULT:      -8.4      2.209      2.946
REMARK  Name = 
REMARK  11 active torsions:
REMARK  status: ('A' for Active; 'I' for Inactive)
REMARK    1  A    between atoms: CB_1  and  CA_2
REMARK    2  A    between atoms: CA_2  and  C_3
REMARK    3  A    between atoms: CA_2  and  N_5
REMARK    4  A    between atoms: C_3  and  O_4
REMARK    5  A    between atoms: C_8  and  C_9
REMARK    6  A    between atoms: C_9  and  C_10
REMARK    7  A    between atoms: C_9  and  C_11
REMARK    8  A    between atoms: C_11  and  C_12
REMARK    9  A    between atoms: N_16  and  C_17
REMARK   10  A    between atoms: C_19  and  N_20
REMARK   11  A    between atoms: C_27  and  C_28
REMARK                            x       y       z     vdW  Elec       q    Type
REMARK                         _______ _______ _______ _____ _____    ______ ____
ROOT
ATOM      1  N   ALA A   1       2.704   2.601  17.522  0.00  0.00    +0.000 N 
ATOM      2  C   UNK A   0       3.193   3.913  17.627  0.00  0.00    +0.000 A 
ATOM      3  C   UNK A   0       4.237   4.257  16.773  0.00  0.00    +0.000 A 
ATOM      4  C   UNK A   0       4.784   5.536  16.830  0.00  0.00    +0.000 A 
ATOM      5  C   UNK A   0       4.158   6.466  17.663  0.00  0.00    +0.000 A 
ATOM      6  C   UNK A   0       3.061   6.086  18.437  0.00  0.00    +0.000 A 
ATOM      7  N   UNK A   0       2.616   4.809  18.439  0.00  0.00    +0.000 NA
ATOM      8  H   ALA A   1       2.012   2.627  16.777  0.00  0.00    +0.000 HD
ENDROOT
BRANCH   6   9
ATOM      9  N   UNK A   0       2.379   7.053  19.209  0.00  0.00    +0.000 N 
ATOM     10  C   UNK A   0       2.079   8.386  18.714  0.00  0.00    +0.000 C 
ATOM     11  C   UNK A   0       1.264   8.993  19.810  0.00  0.00    +0.000 A 
ATOM     12  C   UNK A   0       1.134   8.068  20.845  0.00  0.00    +0.000 A 
ATOM     13  C   UNK A   0       0.441   8.346  22.010  0.00  0.00    +0.000 A 
ATOM     14  C   UNK A   0      -0.144   9.607  22.128  0.00  0.00    +0.000 A 
ATOM     15  C   UNK A   0      -0.031  10.547  21.088  0.00  0.00    +0.000 A 
ATOM     16  C   UNK A   0       0.675  10.253  19.903  0.00  0.00    +0.000 A 
ATOM     17  C   UNK A   0       1.828   6.829  20.469  0.00  0.00    +0.000 C 
ATOM     18  O   UNK A   0       1.853   5.856  21.204  0.00  0.00    +0.000 OA
BRANCH  16  19
ATOM     19  C   UNK A   0       0.754  11.280  18.803  0.00  0.00    +0.000 C 
ATOM     20  F   UNK A   0      -0.095  11.036  17.767  0.00  0.00    +0.000 F 
ATOM     21  F   UNK A   0       0.458  12.533  19.242  0.00  0.00    +0.000 F 
ATOM     22  F   UNK A   0       1.997  11.357  18.253  0.00  0.00    +0.000 F 
ENDBRANCH  16  19
ENDBRANCH   6   9
BRANCH   1  24
ATOM     23  CB  ALA A   1       3.001   2.458  19.913  0.00  0.00    +0.000 C 
ATOM     24  CA  ALA A   1       2.114   2.016  18.737  0.00  0.00    +0.000 C 
BRANCH  24  25
ATOM     25  C   ALA A   1       0.670   2.515  18.970  0.00  0.00    +0.000 C 
BRANCH  25  26
ATOM     26  O   ALA A   1       0.569   3.340  20.132  0.00  0.00    +0.000 OA
ATOM     27  H   ALA A   1      -0.363   3.301  20.415  0.00  0.00    +0.000 HD
ENDBRANCH  25  26
ENDBRANCH  24  25
ENDBRANCH   1  24
BRANCH   4  28
ATOM     28  C   UNK A   0       6.042   5.913  16.067  0.00  0.00    +0.000 C 
ATOM     29  C   UNK A   0       6.892   6.874  16.911  0.00  0.00    +0.000 C 
BRANCH  28  30
ATOM     30  C   UNK A   0       6.893   4.705  15.636  0.00  0.00    +0.000 C 
BRANCH  30  31
ATOM     31  C   UNK A   0       6.656   4.320  14.217  0.00  0.00    +0.000 A 
ATOM     32  N   UNK A   0       5.733   3.490  13.773  0.00  0.00    +0.000 NA
ATOM     33  N   UNK A   0       5.853   3.410  12.405  0.00  0.00    +0.000 NA
ATOM     34  C   UNK A   0       6.838   4.196  12.044  0.00  0.00    +0.000 A 
ATOM     35  N   UNK A   0       7.372   4.789  13.147  0.00  0.00    +0.000 N 
ATOM     36  C   UNK A   0       8.461   5.727  13.165  0.00  0.00    +0.000 C 
ENDBRANCH  30  31
ENDBRANCH  28  30
ENDBRANCH   4  28
TORSDOF 8
ENDMDL
MODEL 8
REMARK VINA RESULT:      -8.4      1.444      1.984
REMARK  Name = 
REMARK  11 active torsions:
REMARK  status: ('A' for Active; 'I' for Inactive)
REMARK    1  A    between atoms: CB_1  and  CA_2
REMARK    2  A    between atoms: CA_2  and  C_3
REMARK    3  A    between atoms: CA_2  and  N_5
REMARK    4  A    between atoms: C_3  and  O_4
REMARK    5  A    between atoms: C_8  and  C_9
REMARK    6  A    between atoms: C_9  and  C_10
REMARK    7  A    between atoms: C_9  and  C_11
REMARK    8  A    between atoms: C_11  and  C_12
REMARK    9  A    between atoms: N_16  and  C_17
REMARK   10  A    between atoms: C_19  and  N_20
REMARK   11  A    between atoms: C_27  and  C_28
REMARK                            x       y       z     vdW  Elec       q    Type
REMARK                         _______ _______ _______ _____ _____    ______ ____
ROOT
ATOM      1  N   ALA A   1       3.213   2.853  19.007  0.00  0.00    +0.000 N 
ATOM      2  C   UNK A   0       3.641   4.190  19.037  0.00  0.00    +0.000 A 
ATOM      3  C   UNK A   0       4.972   4.423  18.702  0.00  0.00    +0.000 A 
ATOM      4  C   UNK A   0       5.472   5.722  18.725  0.00  0.00    +0.000 A 
ATOM      5  C   UNK A   0       4.564   6.757  18.956  0.00  0.00    +0.000 A 
ATOM      6  C   UNK A   0       3.221   6.468  19.205  0.00  0.00    +0.000 A 
ATOM      7  N   UNK A   0       2.785   5.191  19.280  0.00  0.00    +0.000 NA
ATOM      8  H   ALA A   1       2.943   2.675  18.042  0.00  0.00    +0.000 HD
ENDROOT
BRANCH   6   9
ATOM      9  N   UNK A   0       2.293   7.523  19.352  0.00  0.00    +0.000 N 
ATOM     10  C   UNK A   0       1.609   7.801  20.603  0.00  0.00    +0.000 C 
ATOM     11  C   UNK A   0       0.840   9.049  20.315  0.00  0.00    +0.000 A 
ATOM     12  C   UNK A   0       1.070   9.429  18.993  0.00  0.00    +0.000 A 
ATOM     13  C   UNK A   0       0.481  10.546  18.426  0.00  0.00    +0.000 A 
ATOM     14  C   UNK A   0      -0.369  11.305  19.229  0.00  0.00    +0.000 A 
ATOM     15  C   UNK A   0      -0.603  10.942  20.567  0.00  0.00    +0.000 A 
ATOM     16  C   UNK A   0       0.005   9.804  21.138  0.00  0.00    +0.000 A 
ATOM     17  C   UNK A   0       2.000   8.474  18.376  0.00  0.00    +0.000 C 
ATOM     18  O   UNK A   0       2.370   8.591  17.221  0.00  0.00    +0.000 OA
BRANCH  16  19
ATOM     19  C   UNK A   0      -0.254   9.461  22.582  0.00  0.00    +0.000 C 
ATOM     20  F   UNK A   0       0.880   9.343  23.326  0.00  0.00    +0.000 F 
ATOM     21  F   UNK A   0      -1.016  10.397  23.208  0.00  0.00    +0.000 F 
ATOM     22  F   UNK A   0      -0.915   8.279  22.725  0.00  0.00    +0.000 F 
ENDBRANCH  16  19
ENDBRANCH   6   9
BRANCH   1  24
ATOM     23  CB  ALA A   1       2.525   2.958  21.318  0.00  0.00    +0.000 C 
ATOM     24  CA  ALA A   1       2.110   2.491  19.913  0.00  0.00    +0.000 C 
BRANCH  24  25
ATOM     25  C   ALA A   1       0.789   3.185  19.512  0.00  0.00    +0.000 C 
BRANCH  25  26
ATOM     26  O   ALA A   1       0.384   4.162  20.474  0.00  0.00    +0.000 OA
ATOM     27  H   ALA A   1      -0.576   4.047  20.593  0.00  0.00    +0.000 HD
ENDBRANCH  25  26
ENDBRANCH  24  25
ENDBRANCH   1  24
BRANCH   4  28
ATOM     28  C   UNK A   0       6.952   6.023  18.558  0.00  0.00    +0.000 C 
ATOM     29  C   UNK A   0       7.779   4.792  18.957  0.00  0.00    +0.000 C 
BRANCH  28  30
ATOM     30  C   UNK A   0       7.338   6.473  17.137  0.00  0.00    +0.000 C 
BRANCH  30  31
ATOM     31  C   UNK A   0       6.821   5.549  16.089  0.00  0.00    +0.000 A 
ATOM     32  N   UNK A   0       7.349   4.396  15.730  0.00  0.00    +0.000 NA
ATOM     33  N   UNK A   0       6.569   3.860  14.733  0.00  0.00    +0.000 NA
ATOM     34  C   UNK A   0       5.581   4.693  14.509  0.00  0.00    +0.000 A 
ATOM     35  N   UNK A   0       5.697   5.767  15.337  0.00  0.00    +0.000 N 
ATOM     36  C   UNK A   0       4.803   6.890  15.404  0.00  0.00    +0.000 C 
ENDBRANCH  30  31
ENDBRANCH  28  30
ENDBRANCH   4  28
TORSDOF 8
ENDMDL
MODEL 9
REMARK VINA RESULT:      -8.2      1.811      2.893
REMARK  Name = 
REMARK  11 active torsions:
REMARK  status: ('A' for Active; 'I' for Inactive)
REMARK    1  A    between atoms: CB_1  and  CA_2
REMARK    2  A    between atoms: CA_2  and  C_3
REMARK    3  A    between atoms: CA_2  and  N_5
REMARK    4  A    between atoms: C_3  and  O_4
REMARK    5  A    between atoms: C_8  and  C_9
REMARK    6  A    between atoms: C_9  and  C_10
REMARK    7  A    between atoms: C_9  and  C_11
REMARK    8  A    between atoms: C_11  and  C_12
REMARK    9  A    between atoms: N_16  and  C_17
REMARK   10  A    between atoms: C_19  and  N_20
REMARK   11  A    between atoms: C_27  and  C_28
REMARK                            x       y       z     vdW  Elec       q    Type
REMARK                         _______ _______ _______ _____ _____    ______ ____
ROOT
ATOM      1  N   ALA A   1       2.378   2.040  18.466  0.00  0.00    +0.000 N 
ATOM      2  C   UNK A   0       3.020   3.226  18.075  0.00  0.00    +0.000 A 
ATOM      3  C   UNK A   0       4.091   3.091  17.196  0.00  0.00    +0.000 A 
ATOM      4  C   UNK A   0       4.786   4.222  16.776  0.00  0.00    +0.000 A 
ATOM      5  C   UNK A   0       4.281   5.466  17.160  0.00  0.00    +0.000 A 
ATOM      6  C   UNK A   0       3.153   5.542  17.978  0.00  0.00    +0.000 A 
ATOM      7  N   UNK A   0       2.561   4.425  18.455  0.00  0.00    +0.000 NA
ATOM      8  H   ALA A   1       1.687   1.852  17.743  0.00  0.00    +0.000 HD
ENDROOT
BRANCH   6   9
ATOM      9  N   UNK A   0       2.598   6.804  18.290  0.00  0.00    +0.000 N 
ATOM     10  C   UNK A   0       1.891   7.066  19.531  0.00  0.00    +0.000 C 
ATOM     11  C   UNK A   0       1.600   8.531  19.468  0.00  0.00    +0.000 A 
ATOM     12  C   UNK A   0       2.098   9.041  18.270  0.00  0.00    +0.000 A 
ATOM     13  C   UNK A   0       1.969  10.373  17.916  0.00  0.00    +0.000 A 
ATOM     14  C   UNK A   0       1.313  11.218  18.812  0.00  0.00    +0.000 A 
ATOM     15  C   UNK A   0       0.815  10.721  20.030  0.00  0.00    +0.000 A 
ATOM     16  C   UNK A   0       0.955   9.362  20.383  0.00  0.00    +0.000 A 
ATOM     17  C   UNK A   0       2.744   7.956  17.519  0.00  0.00    +0.000 C 
ATOM     18  O   UNK A   0       3.270   8.146  16.436  0.00  0.00    +0.000 OA
BRANCH  16  19
ATOM     19  C   UNK A   0       0.427   8.873  21.707  0.00  0.00    +0.000 C 
ATOM     20  F   UNK A   0       1.389   8.361  22.522  0.00  0.00    +0.000 F 
ATOM     21  F   UNK A   0      -0.180   9.861  22.419  0.00  0.00    +0.000 F 
ATOM     22  F   UNK A   0      -0.501   7.887  21.564  0.00  0.00    +0.000 F 
ENDBRANCH  16  19
ENDBRANCH   6   9
BRANCH   1  24
ATOM     23  CB  ALA A   1       2.778   2.570  20.788  0.00  0.00    +0.000 C 
ATOM     24  CA  ALA A   1       1.733   2.042  19.790  0.00  0.00    +0.000 C 
BRANCH  24  25
ATOM     25  C   ALA A   1       0.489   2.959  19.819  0.00  0.00    +0.000 C 
BRANCH  25  26
ATOM     26  O   ALA A   1       0.624   4.014  20.774  0.00  0.00    +0.000 OA
ATOM     27  H   ALA A   1      -0.249   4.111  21.198  0.00  0.00    +0.000 HD
ENDBRANCH  25  26
ENDBRANCH  24  25
ENDBRANCH   1  24
BRANCH   4  28
ATOM     28  C   UNK A   0       6.073   4.130  15.975  0.00  0.00    +0.000 C 
ATOM     29  C   UNK A   0       6.031   5.127  14.808  0.00  0.00    +0.000 C 
BRANCH  28  30
ATOM     30  C   UNK A   0       7.344   4.361  16.813  0.00  0.00    +0.000 C 
BRANCH  30  31
ATOM     31  C   UNK A   0       7.534   5.794  17.172  0.00  0.00    +0.000 A 
ATOM     32  N   UNK A   0       7.584   6.812  16.336  0.00  0.00    +0.000 NA
ATOM     33  N   UNK A   0       7.772   7.960  17.071  0.00  0.00    +0.000 NA
ATOM     34  C   UNK A   0       7.825   7.619  18.336  0.00  0.00    +0.000 A 
ATOM     35  N   UNK A   0       7.680   6.270  18.448  0.00  0.00    +0.000 N 
ATOM     36  C   UNK A   0       7.671   5.515  19.671  0.00  0.00    +0.000 C 
ENDBRANCH  30  31
ENDBRANCH  28  30
ENDBRANCH   4  28
TORSDOF 8
ENDMDL
