MODEL 1
REMARK VINA RESULT:     -10.0      0.000      0.000
REMARK  Name = 
REMARK  9 active torsions:
REMARK  status: ('A' for Active; 'I' for Inactive)
REMARK    1  A    between atoms: C_1  and  C_2
REMARK    2  A    between atoms: C_2  and  C_3
REMARK    3  A    between atoms: C_2  and  N_34
REMARK    4  A    between atoms: C_7  and  C_8
REMARK    5  A    between atoms: N_14  and  C_15
REMARK    6  A    between atoms: C_19  and  C_20
REMARK    7  A    between atoms: C_20  and  C_21
REMARK    8  A    between atoms: C_21  and  C_22
REMARK    9  A    between atoms: N_26  and  C_27
REMARK                            x       y       z     vdW  Elec       q    Type
REMARK                         _______ _______ _______ _____ _____    ______ ____
ROOT
ATOM      1  C   UNL     1       4.035   4.615  17.852  0.00  0.00    +0.000 A 
ATOM      2  C   UNL     1       3.657   5.963  17.821  0.00  0.00    +0.000 A 
ATOM      3  C   UNL     1       2.755   6.401  18.767  0.00  0.00    +0.000 A 
ATOM      4  C   UNL     1       2.192   5.564  19.726  0.00  0.00    +0.000 A 
ATOM      5  C   UNL     1       2.493   4.207  19.746  0.00  0.00    +0.000 A 
ATOM      6  C   UNL     1       3.436   3.749  18.803  0.00  0.00    +0.000 A 
ATOM      7  C   UNL     1       1.354   6.377  20.657  0.00  0.00    +0.000 C 
ATOM      8  N   UNL     1       1.481   7.730  20.130  0.00  0.00    +0.000 N 
ATOM      9  C   UNL     1       2.300   7.771  19.004  0.00  0.00    +0.000 C 
ATOM     10  O   UNL     1       2.660   8.700  18.304  0.00  0.00    +0.000 OA
ENDROOT
BRANCH   8  11
ATOM     11  C   UNL     1       0.842   8.838  20.735  0.00  0.00    +0.000 A 
ATOM     12  C   UNL     1       0.812   9.002  22.120  0.00  0.00    +0.000 A 
ATOM     13  C   UNL     1       0.203  10.115  22.691  0.00  0.00    +0.000 A 
ATOM     14  C   UNL     1      -0.430  11.056  21.882  0.00  0.00    +0.000 A 
ATOM     15  C   UNL     1      -0.484  10.908  20.484  0.00  0.00    +0.000 A 
ATOM     16  C   UNL     1       0.207   9.806  19.941  0.00  0.00    +0.000 A 
BRANCH  15  17
ATOM     17  C   UNL     1      -1.321  11.903  19.553  0.00  0.00    +0.000 C 
ATOM     18  C   UNL     1      -1.335  13.421  19.903  0.00  0.00    +0.000 C 
ATOM     19  O   UNL     1      -1.062  13.764  18.515  0.00  0.00    +0.000 OA
ATOM     20  C   UNL     1      -0.563  12.422  18.296  0.00  0.00    +0.000 C 
BRANCH  17  21
ATOM     21  C   UNL     1      -2.715  11.342  19.221  0.00  0.00    +0.000 C 
BRANCH  21  22
ATOM     22  C   UNL     1      -2.847  10.896  17.799  0.00  0.00    +0.000 A 
ATOM     23  N   UNL     1      -2.016  10.095  17.158  0.00  0.00    +0.000 NA
ATOM     24  N   UNL     1      -2.494   9.900  15.886  0.00  0.00    +0.000 NA
ATOM     25  C   UNL     1      -3.608  10.585  15.775  0.00  0.00    +0.000 A 
ATOM     26  N   UNL     1      -3.859  11.242  16.942  0.00  0.00    +0.000 N 
ATOM     27  C   UNL     1      -4.982  12.105  17.187  0.00  0.00    +0.000 C 
ENDBRANCH  21  22
ENDBRANCH  17  21
ENDBRANCH  15  17
ENDBRANCH   8  11
BRANCH   5  28
ATOM     28  C   UNL     1       1.880   3.242  20.727  0.00  0.00    +0.000 C 
ATOM     29  F   UNL     1       0.528   3.361  20.831  0.00  0.00    +0.000 F 
ATOM     30  F   UNL     1       2.113   1.944  20.391  0.00  0.00    +0.000 F 
ATOM     31  F   UNL     1       2.363   3.400  21.989  0.00  0.00    +0.000 F 
ENDBRANCH   5  28
BRANCH   1  33
ATOM     32  C   UNL     1       4.929   4.795  15.577  0.00  0.00    +0.000 C 
ATOM     33  C   UNL     1       5.187   4.156  16.957  0.00  0.00    +0.000 C 
BRANCH  33  34
ATOM     34  N   UNL     1       6.508   4.487  17.516  0.00  0.00    +0.000 NA
ATOM     35  C   UNL     1       7.198   5.581  16.809  0.00  0.00    +0.000 C 
ATOM     36  C   UNL     1       7.448   6.683  17.826  0.00  0.00    +0.000 C 
ATOM     37  C   UNL     1       7.510   5.941  19.136  0.00  0.00    +0.000 C 
ATOM     38  F   UNL     1       8.754   5.416  19.300  0.00  0.00    +0.000 F 
ATOM     39  C   UNL     1       6.495   4.826  18.950  0.00  0.00    +0.000 C 
ENDBRANCH  33  34
ENDBRANCH   1  33
TORSDOF 7
ENDMDL
MODEL 2
REMARK VINA RESULT:     -10.0      0.728      1.258
REMARK  Name = 
REMARK  9 active torsions:
REMARK  status: ('A' for Active; 'I' for Inactive)
REMARK    1  A    between atoms: C_1  and  C_2
REMARK    2  A    between atoms: C_2  and  C_3
REMARK    3  A    between atoms: C_2  and  N_34
REMARK    4  A    between atoms: C_7  and  C_8
REMARK    5  A    between atoms: N_14  and  C_15
REMARK    6  A    between atoms: C_19  and  C_20
REMARK    7  A    between atoms: C_20  and  C_21
REMARK    8  A    between atoms: C_21  and  C_22
REMARK    9  A    between atoms: N_26  and  C_27
REMARK                            x       y       z     vdW  Elec       q    Type
REMARK                         _______ _______ _______ _____ _____    ______ ____
ROOT
ATOM      1  C   UNL     1       4.037   4.803  17.907  0.00  0.00    +0.000 A 
ATOM      2  C   UNL     1       3.624   6.139  17.822  0.00  0.00    +0.000 A 
ATOM      3  C   UNL     1       2.737   6.600  18.771  0.00  0.00    +0.000 A 
ATOM      4  C   UNL     1       2.220   5.798  19.783  0.00  0.00    +0.000 A 
ATOM      5  C   UNL     1       2.555   4.451  19.860  0.00  0.00    +0.000 A 
ATOM      6  C   UNL     1       3.484   3.971  18.915  0.00  0.00    +0.000 A 
ATOM      7  C   UNL     1       1.386   6.635  20.696  0.00  0.00    +0.000 C 
ATOM      8  N   UNL     1       1.466   7.964  20.102  0.00  0.00    +0.000 N 
ATOM      9  C   UNL     1       2.254   7.970  18.953  0.00  0.00    +0.000 C 
ATOM     10  O   UNL     1       2.572   8.871  18.200  0.00  0.00    +0.000 OA
ENDROOT
BRANCH   8  11
ATOM     11  C   UNL     1       0.815   9.084  20.670  0.00  0.00    +0.000 A 
ATOM     12  C   UNL     1       0.453   9.118  22.018  0.00  0.00    +0.000 A 
ATOM     13  C   UNL     1      -0.160  10.243  22.561  0.00  0.00    +0.000 A 
ATOM     14  C   UNL     1      -0.464  11.333  21.749  0.00  0.00    +0.000 A 
ATOM     15  C   UNL     1      -0.178  11.327  20.371  0.00  0.00    +0.000 A 
ATOM     16  C   UNL     1       0.507  10.199  19.876  0.00  0.00    +0.000 A 
BRANCH  15  17
ATOM     17  C   UNL     1      -0.643  12.509  19.399  0.00  0.00    +0.000 C 
ATOM     18  C   UNL     1      -1.522  13.655  19.984  0.00  0.00    +0.000 C 
ATOM     19  O   UNL     1      -0.675  14.655  19.348  0.00  0.00    +0.000 OA
ATOM     20  C   UNL     1       0.381  13.670  19.239  0.00  0.00    +0.000 C 
BRANCH  17  21
ATOM     21  C   UNL     1      -1.157  11.975  18.050  0.00  0.00    +0.000 C 
BRANCH  21  22
ATOM     22  C   UNL     1      -2.628  11.708  18.044  0.00  0.00    +0.000 A 
ATOM     23  N   UNL     1      -3.450  11.877  19.063  0.00  0.00    +0.000 NA
ATOM     24  N   UNL     1      -4.721  11.554  18.655  0.00  0.00    +0.000 NA
ATOM     25  C   UNL     1      -4.650  11.195  17.394  0.00  0.00    +0.000 A 
ATOM     26  N   UNL     1      -3.355  11.257  16.973  0.00  0.00    +0.000 N 
ATOM     27  C   UNL     1      -2.891  10.919  15.656  0.00  0.00    +0.000 C 
ENDBRANCH  21  22
ENDBRANCH  17  21
ENDBRANCH  15  17
ENDBRANCH   8  11
BRANCH   5  28
ATOM     28  C   UNL     1       1.992   3.521  20.902  0.00  0.00    +0.000 C 
ATOM     29  F   UNL     1       2.244   3.921  22.178  0.00  0.00    +0.000 F 
ATOM     30  F   UNL     1       0.639   3.400  20.812  0.00  0.00    +0.000 F 
ATOM     31  F   UNL     1       2.492   2.260  20.803  0.00  0.00    +0.000 F 
ENDBRANCH   5  28
BRANCH   1  33
ATOM     32  C   UNL     1       4.969   5.043  15.654  0.00  0.00    +0.000 C 
ATOM     33  C   UNL     1       5.176   4.329  17.005  0.00  0.00    +0.000 C 
BRANCH  33  34
ATOM     34  N   UNL     1       6.505   4.568  17.593  0.00  0.00    +0.000 NA
ATOM     35  C   UNL     1       7.258   5.657  16.945  0.00  0.00    +0.000 C 
ATOM     36  C   UNL     1       7.548   6.697  18.015  0.00  0.00    +0.000 C 
ATOM     37  C   UNL     1       7.557   5.894  19.290  0.00  0.00    +0.000 C 
ATOM     38  F   UNL     1       8.770   5.300  19.442  0.00  0.00    +0.000 F 
ATOM     39  C   UNL     1       6.490   4.841  19.041  0.00  0.00    +0.000 C 
ENDBRANCH  33  34
ENDBRANCH   1  33
TORSDOF 7
ENDMDL
MODEL 3
REMARK VINA RESULT:      -9.9      2.935      9.224
REMARK  Name = 
REMARK  9 active torsions:
REMARK  status: ('A' for Active; 'I' for Inactive)
REMARK    1  A    between atoms: C_1  and  C_2
REMARK    2  A    between atoms: C_2  and  C_3
REMARK    3  A    between atoms: C_2  and  N_34
REMARK    4  A    between atoms: C_7  and  C_8
REMARK    5  A    between atoms: N_14  and  C_15
REMARK    6  A    between atoms: C_19  and  C_20
REMARK    7  A    between atoms: C_20  and  C_21
REMARK    8  A    between atoms: C_21  and  C_22
REMARK    9  A    between atoms: N_26  and  C_27
REMARK                            x       y       z     vdW  Elec       q    Type
REMARK                         _______ _______ _______ _____ _____    ______ ____
ROOT
ATOM      1  C   UNL     1      -0.269  11.366  19.413  0.00  0.00    +0.000 A 
ATOM      2  C   UNL     1       0.591  10.596  18.619  0.00  0.00    +0.000 A 
ATOM      3  C   UNL     1       1.129   9.454  19.174  0.00  0.00    +0.000 A 
ATOM      4  C   UNL     1       0.875   9.051  20.481  0.00  0.00    +0.000 A 
ATOM      5  C   UNL     1       0.080   9.823  21.319  0.00  0.00    +0.000 A 
ATOM      6  C   UNL     1      -0.501  10.979  20.758  0.00  0.00    +0.000 A 
ATOM      7  C   UNL     1       1.516   7.723  20.718  0.00  0.00    +0.000 C 
ATOM      8  N   UNL     1       2.161   7.427  19.445  0.00  0.00    +0.000 N 
ATOM      9  C   UNL     1       1.954   8.442  18.513  0.00  0.00    +0.000 C 
ATOM     10  O   UNL     1       2.308   8.554  17.354  0.00  0.00    +0.000 OA
ENDROOT
BRANCH   8  11
ATOM     11  C   UNL     1       2.885   6.232  19.226  0.00  0.00    +0.000 A 
ATOM     12  C   UNL     1       2.839   5.169  20.130  0.00  0.00    +0.000 A 
ATOM     13  C   UNL     1       3.537   3.992  19.878  0.00  0.00    +0.000 A 
ATOM     14  C   UNL     1       4.333   3.882  18.740  0.00  0.00    +0.000 A 
ATOM     15  C   UNL     1       4.465   4.945  17.829  0.00  0.00    +0.000 A 
ATOM     16  C   UNL     1       3.686   6.091  18.082  0.00  0.00    +0.000 A 
BRANCH  15  17
ATOM     17  C   UNL     1       5.479   4.887  16.593  0.00  0.00    +0.000 C 
ATOM     18  C   UNL     1       5.179   3.900  15.425  0.00  0.00    +0.000 C 
ATOM     19  O   UNL     1       5.434   4.948  14.447  0.00  0.00    +0.000 OA
ATOM     20  C   UNL     1       5.219   5.942  15.478  0.00  0.00    +0.000 C 
BRANCH  17  21
ATOM     21  C   UNL     1       6.947   4.855  17.055  0.00  0.00    +0.000 C 
BRANCH  21  22
ATOM     22  C   UNL     1       7.458   6.194  17.481  0.00  0.00    +0.000 A 
ATOM     23  N   UNL     1       7.513   7.278  16.729  0.00  0.00    +0.000 NA
ATOM     24  N   UNL     1       8.014   8.308  17.486  0.00  0.00    +0.000 NA
ATOM     25  C   UNL     1       8.255   7.834  18.686  0.00  0.00    +0.000 A 
ATOM     26  N   UNL     1       7.941   6.508  18.726  0.00  0.00    +0.000 N 
ATOM     27  C   UNL     1       8.089   5.651  19.870  0.00  0.00    +0.000 C 
ENDBRANCH  21  22
ENDBRANCH  17  21
ENDBRANCH  15  17
ENDBRANCH   8  11
BRANCH   5  28
ATOM     28  C   UNL     1      -0.192   9.465  22.757  0.00  0.00    +0.000 C 
ATOM     29  F   UNL     1      -0.901   8.313  22.903  0.00  0.00    +0.000 F 
ATOM     30  F   UNL     1       0.952   9.290  23.472  0.00  0.00    +0.000 F 
ATOM     31  F   UNL     1      -0.904  10.424  23.409  0.00  0.00    +0.000 F 
ENDBRANCH   5  28
BRANCH   1  33
ATOM     32  C   UNL     1       0.008  13.354  18.008  0.00  0.00    +0.000 C 
ATOM     33  C   UNL     1      -1.042  12.510  18.758  0.00  0.00    +0.000 C 
BRANCH  33  34
ATOM     34  N   UNL     1      -2.135  12.037  17.893  0.00  0.00    +0.000 NA
ATOM     35  C   UNL     1      -1.841  10.772  17.196  0.00  0.00    +0.000 C 
ATOM     36  C   UNL     1      -2.900   9.769  17.623  0.00  0.00    +0.000 C 
ATOM     37  C   UNL     1      -4.079  10.638  17.980  0.00  0.00    +0.000 C 
ATOM     38  F   UNL     1      -4.754  10.970  16.848  0.00  0.00    +0.000 F 
ATOM     39  C   UNL     1      -3.429  11.873  18.580  0.00  0.00    +0.000 C 
ENDBRANCH  33  34
ENDBRANCH   1  33
TORSDOF 7
ENDMDL
MODEL 4
REMARK VINA RESULT:      -9.9      2.294      3.292
REMARK  Name = 
REMARK  9 active torsions:
REMARK  status: ('A' for Active; 'I' for Inactive)
REMARK    1  A    between atoms: C_1  and  C_2
REMARK    2  A    between atoms: C_2  and  C_3
REMARK    3  A    between atoms: C_2  and  N_34
REMARK    4  A    between atoms: C_7  and  C_8
REMARK    5  A    between atoms: N_14  and  C_15
REMARK    6  A    between atoms: C_19  and  C_20
REMARK    7  A    between atoms: C_20  and  C_21
REMARK    8  A    between atoms: C_21  and  C_22
REMARK    9  A    between atoms: N_26  and  C_27
REMARK                            x       y       z     vdW  Elec       q    Type
REMARK                         _______ _______ _______ _____ _____    ______ ____
ROOT
ATOM      1  C   UNL     1       4.023   4.835  17.947  0.00  0.00    +0.000 A 
ATOM      2  C   UNL     1       3.603   6.171  17.937  0.00  0.00    +0.000 A 
ATOM      3  C   UNL     1       2.712   6.573  18.909  0.00  0.00    +0.000 A 
ATOM      4  C   UNL     1       2.199   5.713  19.874  0.00  0.00    +0.000 A 
ATOM      5  C   UNL     1       2.541   4.366  19.876  0.00  0.00    +0.000 A 
ATOM      6  C   UNL     1       3.474   3.944  18.907  0.00  0.00    +0.000 A 
ATOM      7  C   UNL     1       1.360   6.493  20.832  0.00  0.00    +0.000 C 
ATOM      8  N   UNL     1       1.432   7.854  20.312  0.00  0.00    +0.000 N 
ATOM      9  C   UNL     1       2.222   7.928  19.167  0.00  0.00    +0.000 C 
ATOM     10  O   UNL     1       2.535   8.872  18.466  0.00  0.00    +0.000 OA
ENDROOT
BRANCH   8  11
ATOM     11  C   UNL     1       0.775   8.937  20.942  0.00  0.00    +0.000 A 
ATOM     12  C   UNL     1       0.281   8.840  22.243  0.00  0.00    +0.000 A 
ATOM     13  C   UNL     1      -0.336   9.929  22.852  0.00  0.00    +0.000 A 
ATOM     14  C   UNL     1      -0.511  11.116  22.146  0.00  0.00    +0.000 A 
ATOM     15  C   UNL     1      -0.088  11.248  20.810  0.00  0.00    +0.000 A 
ATOM     16  C   UNL     1       0.596  10.148  20.256  0.00  0.00    +0.000 A 
BRANCH  15  17
ATOM     17  C   UNL     1      -0.404  12.553  19.941  0.00  0.00    +0.000 C 
ATOM     18  C   UNL     1       0.497  12.866  18.708  0.00  0.00    +0.000 C 
ATOM     19  O   UNL     1      -0.680  13.112  17.887  0.00  0.00    +0.000 OA
ATOM     20  C   UNL     1      -1.480  12.361  18.832  0.00  0.00    +0.000 C 
BRANCH  17  21
ATOM     21  C   UNL     1      -0.672  13.782  20.828  0.00  0.00    +0.000 C 
BRANCH  21  22
ATOM     22  C   UNL     1       0.576  14.496  21.237  0.00  0.00    +0.000 A 
ATOM     23  N   UNL     1       1.432  14.095  22.159  0.00  0.00    +0.000 NA
ATOM     24  N   UNL     1       2.461  15.003  22.221  0.00  0.00    +0.000 NA
ATOM     25  C   UNL     1       2.214  15.940  21.336  0.00  0.00    +0.000 A 
ATOM     26  N   UNL     1       1.033  15.676  20.708  0.00  0.00    +0.000 N 
ATOM     27  C   UNL     1       0.431  16.492  19.690  0.00  0.00    +0.000 C 
ENDBRANCH  21  22
ENDBRANCH  17  21
ENDBRANCH  15  17
ENDBRANCH   8  11
BRANCH   5  28
ATOM     28  C   UNL     1       1.983   3.376  20.864  0.00  0.00    +0.000 C 
ATOM     29  F   UNL     1       2.264   3.685  22.159  0.00  0.00    +0.000 F 
ATOM     30  F   UNL     1       0.627   3.281  20.792  0.00  0.00    +0.000 F 
ATOM     31  F   UNL     1       2.462   2.117  20.672  0.00  0.00    +0.000 F 
ENDBRANCH   5  28
BRANCH   1  33
ATOM     32  C   UNL     1       4.954   5.203  15.711  0.00  0.00    +0.000 C 
ATOM     33  C   UNL     1       5.166   4.418  17.021  0.00  0.00    +0.000 C 
BRANCH  33  34
ATOM     34  N   UNL     1       6.492   4.633  17.622  0.00  0.00    +0.000 NA
ATOM     35  C   UNL     1       7.271   5.709  16.982  0.00  0.00    +0.000 C 
ATOM     36  C   UNL     1       7.570   6.744  18.054  0.00  0.00    +0.000 C 
ATOM     37  C   UNL     1       7.551   5.941  19.329  0.00  0.00    +0.000 C 
ATOM     38  F   UNL     1       8.752   5.326  19.493  0.00  0.00    +0.000 F 
ATOM     39  C   UNL     1       6.468   4.907  19.070  0.00  0.00    +0.000 C 
ENDBRANCH  33  34
ENDBRANCH   1  33
TORSDOF 7
ENDMDL
MODEL 5
REMARK VINA RESULT:      -9.8      1.967      2.909
REMARK  Name = 
REMARK  9 active torsions:
REMARK  status: ('A' for Active; 'I' for Inactive)
REMARK    1  A    between atoms: C_1  and  C_2
REMARK    2  A    between atoms: C_2  and  C_3
REMARK    3  A    between atoms: C_2  and  N_34
REMARK    4  A    between atoms: C_7  and  C_8
REMARK    5  A    between atoms: N_14  and  C_15
REMARK    6  A    between atoms: C_19  and  C_20
REMARK    7  A    between atoms: C_20  and  C_21
REMARK    8  A    between atoms: C_21  and  C_22
REMARK    9  A    between atoms: N_26  and  C_27
REMARK                            x       y       z     vdW  Elec       q    Type
REMARK                         _______ _______ _______ _____ _____    ______ ____
ROOT
ATOM      1  C   UNL     1       4.071   4.814  17.824  0.00  0.00    +0.000 A 
ATOM      2  C   UNL     1       3.644   6.148  17.831  0.00  0.00    +0.000 A 
ATOM      3  C   UNL     1       2.740   6.531  18.799  0.00  0.00    +0.000 A 
ATOM      4  C   UNL     1       2.221   5.652  19.744  0.00  0.00    +0.000 A 
ATOM      5  C   UNL     1       2.570   4.307  19.728  0.00  0.00    +0.000 A 
ATOM      6  C   UNL     1       3.516   3.906  18.763  0.00  0.00    +0.000 A 
ATOM      7  C   UNL     1       1.367   6.412  20.705  0.00  0.00    +0.000 C 
ATOM      8  N   UNL     1       1.438   7.781  20.208  0.00  0.00    +0.000 N 
ATOM      9  C   UNL     1       2.240   7.878  19.073  0.00  0.00    +0.000 C 
ATOM     10  O   UNL     1       2.557   8.835  18.391  0.00  0.00    +0.000 OA
ENDROOT
BRANCH   8  11
ATOM     11  C   UNL     1       0.769   8.851  20.848  0.00  0.00    +0.000 A 
ATOM     12  C   UNL     1       0.627   8.904  22.235  0.00  0.00    +0.000 A 
ATOM     13  C   UNL     1      -0.010   9.981  22.843  0.00  0.00    +0.000 A 
ATOM     14  C   UNL     1      -0.560  10.997  22.065  0.00  0.00    +0.000 A 
ATOM     15  C   UNL     1      -0.502  10.962  20.659  0.00  0.00    +0.000 A 
ATOM     16  C   UNL     1       0.215   9.892  20.087  0.00  0.00    +0.000 A 
BRANCH  15  17
ATOM     17  C   UNL     1      -1.245  12.045  19.748  0.00  0.00    +0.000 C 
ATOM     18  C   UNL     1      -2.662  11.710  19.193  0.00  0.00    +0.000 C 
ATOM     19  O   UNL     1      -3.155  13.016  19.606  0.00  0.00    +0.000 OA
ATOM     20  C   UNL     1      -2.047  13.125  20.532  0.00  0.00    +0.000 C 
BRANCH  17  21
ATOM     21  C   UNL     1      -0.304  12.650  18.691  0.00  0.00    +0.000 C 
BRANCH  21  22
ATOM     22  C   UNL     1       0.205  14.005  19.063  0.00  0.00    +0.000 A 
ATOM     23  N   UNL     1      -0.311  15.159  18.681  0.00  0.00    +0.000 NA
ATOM     24  N   UNL     1       0.418  16.173  19.254  0.00  0.00    +0.000 NA
ATOM     25  C   UNL     1       1.364  15.618  19.976  0.00  0.00    +0.000 A 
ATOM     26  N   UNL     1       1.283  14.262  19.871  0.00  0.00    +0.000 N 
ATOM     27  C   UNL     1       2.165  13.324  20.509  0.00  0.00    +0.000 C 
ENDBRANCH  21  22
ENDBRANCH  17  21
ENDBRANCH  15  17
ENDBRANCH   8  11
BRANCH   5  28
ATOM     28  C   UNL     1       2.006   3.298  20.694  0.00  0.00    +0.000 C 
ATOM     29  F   UNL     1       2.509   2.045  20.523  0.00  0.00    +0.000 F 
ATOM     30  F   UNL     1       2.257   3.625  21.990  0.00  0.00    +0.000 F 
ATOM     31  F   UNL     1       0.655   3.172  20.589  0.00  0.00    +0.000 F 
ENDBRANCH   5  28
BRANCH   1  33
ATOM     32  C   UNL     1       5.029   5.229  15.607  0.00  0.00    +0.000 C 
ATOM     33  C   UNL     1       5.227   4.419  16.905  0.00  0.00    +0.000 C 
BRANCH  33  34
ATOM     34  N   UNL     1       6.545   4.625  17.526  0.00  0.00    +0.000 NA
ATOM     35  C   UNL     1       7.307   5.749  16.953  0.00  0.00    +0.000 C 
ATOM     36  C   UNL     1       7.579   6.728  18.083  0.00  0.00    +0.000 C 
ATOM     37  C   UNL     1       7.568   5.855  19.311  0.00  0.00    +0.000 C 
ATOM     38  F   UNL     1       8.779   5.254  19.449  0.00  0.00    +0.000 F 
ATOM     39  C   UNL     1       6.507   4.817  18.987  0.00  0.00    +0.000 C 
ENDBRANCH  33  34
ENDBRANCH   1  33
TORSDOF 7
ENDMDL
MODEL 6
REMARK VINA RESULT:      -9.8      0.816      1.088
REMARK  Name = 
REMARK  9 active torsions:
REMARK  status: ('A' for Active; 'I' for Inactive)
REMARK    1  A    between atoms: C_1  and  C_2
REMARK    2  A    between atoms: C_2  and  C_3
REMARK    3  A    between atoms: C_2  and  N_34
REMARK    4  A    between atoms: C_7  and  C_8
REMARK    5  A    between atoms: N_14  and  C_15
REMARK    6  A    between atoms: C_19  and  C_20
REMARK    7  A    between atoms: C_20  and  C_21
REMARK    8  A    between atoms: C_21  and  C_22
REMARK    9  A    between atoms: N_26  and  C_27
REMARK                            x       y       z     vdW  Elec       q    Type
REMARK                         _______ _______ _______ _____ _____    ______ ____
ROOT
ATOM      1  C   UNL     1       3.987   4.991  17.935  0.00  0.00    +0.000 A 
ATOM      2  C   UNL     1       3.533   6.316  17.922  0.00  0.00    +0.000 A 
ATOM      3  C   UNL     1       2.653   6.705  18.909  0.00  0.00    +0.000 A 
ATOM      4  C   UNL     1       2.182   5.840  19.892  0.00  0.00    +0.000 A 
ATOM      5  C   UNL     1       2.559   4.503  19.899  0.00  0.00    +0.000 A 
ATOM      6  C   UNL     1       3.482   4.096  18.913  0.00  0.00    +0.000 A 
ATOM      7  C   UNL     1       1.343   6.608  20.860  0.00  0.00    +0.000 C 
ATOM      8  N   UNL     1       1.370   7.965  20.328  0.00  0.00    +0.000 N 
ATOM      9  C   UNL     1       2.133   8.049  19.166  0.00  0.00    +0.000 C 
ATOM     10  O   UNL     1       2.408   8.994  18.450  0.00  0.00    +0.000 OA
ENDROOT
BRANCH   8  11
ATOM     11  C   UNL     1       0.698   9.037  20.961  0.00  0.00    +0.000 A 
ATOM     12  C   UNL     1       0.206   8.928  22.263  0.00  0.00    +0.000 A 
ATOM     13  C   UNL     1      -0.425  10.007  22.876  0.00  0.00    +0.000 A 
ATOM     14  C   UNL     1      -0.617  11.194  22.174  0.00  0.00    +0.000 A 
ATOM     15  C   UNL     1      -0.197  11.336  20.838  0.00  0.00    +0.000 A 
ATOM     16  C   UNL     1       0.502  10.248  20.280  0.00  0.00    +0.000 A 
BRANCH  15  17
ATOM     17  C   UNL     1      -0.531  12.640  19.974  0.00  0.00    +0.000 C 
ATOM     18  C   UNL     1       0.228  13.963  20.293  0.00  0.00    +0.000 C 
ATOM     19  O   UNL     1       0.498  14.172  18.878  0.00  0.00    +0.000 OA
ATOM     20  C   UNL     1       0.259  12.764  18.639  0.00  0.00    +0.000 C 
BRANCH  17  21
ATOM     21  C   UNL     1      -2.047  12.836  19.792  0.00  0.00    +0.000 C 
BRANCH  21  22
ATOM     22  C   UNL     1      -2.657  11.854  18.844  0.00  0.00    +0.000 A 
ATOM     23  N   UNL     1      -1.997  11.040  18.040  0.00  0.00    +0.000 NA
ATOM     24  N   UNL     1      -2.908  10.276  17.352  0.00  0.00    +0.000 NA
ATOM     25  C   UNL     1      -4.106  10.638  17.749  0.00  0.00    +0.000 A 
ATOM     26  N   UNL     1      -4.000  11.638  18.669  0.00  0.00    +0.000 N 
ATOM     27  C   UNL     1      -5.102  12.297  19.313  0.00  0.00    +0.000 C 
ENDBRANCH  21  22
ENDBRANCH  17  21
ENDBRANCH  15  17
ENDBRANCH   8  11
BRANCH   5  28
ATOM     28  C   UNL     1       2.046   3.507  20.906  0.00  0.00    +0.000 C 
ATOM     29  F   UNL     1       2.369   3.822  22.190  0.00  0.00    +0.000 F 
ATOM     30  F   UNL     1       0.690   3.398  20.882  0.00  0.00    +0.000 F 
ATOM     31  F   UNL     1       2.532   2.254  20.698  0.00  0.00    +0.000 F 
ENDBRANCH   5  28
BRANCH   1  33
ATOM     32  C   UNL     1       4.952   5.478  15.736  0.00  0.00    +0.000 C 
ATOM     33  C   UNL     1       5.121   4.595  16.989  0.00  0.00    +0.000 C 
BRANCH  33  34
ATOM     34  N   UNL     1       6.450   4.716  17.611  0.00  0.00    +0.000 NA
ATOM     35  C   UNL     1       7.308   5.745  16.996  0.00  0.00    +0.000 C 
ATOM     36  C   UNL     1       7.657   6.746  18.085  0.00  0.00    +0.000 C 
ATOM     37  C   UNL     1       7.567   5.931  19.349  0.00  0.00    +0.000 C 
ATOM     38  F   UNL     1       8.722   5.236  19.523  0.00  0.00    +0.000 F 
ATOM     39  C   UNL     1       6.422   4.974  19.062  0.00  0.00    +0.000 C 
ENDBRANCH  33  34
ENDBRANCH   1  33
TORSDOF 7
ENDMDL
MODEL 7
REMARK VINA RESULT:      -9.7      2.205      3.231
REMARK  Name = 
REMARK  9 active torsions:
REMARK  status: ('A' for Active; 'I' for Inactive)
REMARK    1  A    between atoms: C_1  and  C_2
REMARK    2  A    between atoms: C_2  and  C_3
REMARK    3  A    between atoms: C_2  and  N_34
REMARK    4  A    between atoms: C_7  and  C_8
REMARK    5  A    between atoms: N_14  and  C_15
REMARK    6  A    between atoms: C_19  and  C_20
REMARK    7  A    between atoms: C_20  and  C_21
REMARK    8  A    between atoms: C_21  and  C_22
REMARK    9  A    between atoms: N_26  and  C_27
REMARK                            x       y       z     vdW  Elec       q    Type
REMARK                         _______ _______ _______ _____ _____    ______ ____
ROOT
ATOM      1  C   UNL     1       3.997   5.176  17.807  0.00  0.00    +0.000 A 
ATOM      2  C   UNL     1       3.522   6.490  17.898  0.00  0.00    +0.000 A 
ATOM      3  C   UNL     1       2.642   6.787  18.917  0.00  0.00    +0.000 A 
ATOM      4  C   UNL     1       2.193   5.843  19.834  0.00  0.00    +0.000 A 
ATOM      5  C   UNL     1       2.592   4.515  19.736  0.00  0.00    +0.000 A 
ATOM      6  C   UNL     1       3.514   4.200  18.717  0.00  0.00    +0.000 A 
ATOM      7  C   UNL     1       1.349   6.520  20.864  0.00  0.00    +0.000 C 
ATOM      8  N   UNL     1       1.350   7.914  20.436  0.00  0.00    +0.000 N 
ATOM      9  C   UNL     1       2.103   8.099  19.279  0.00  0.00    +0.000 C 
ATOM     10  O   UNL     1       2.357   9.100  18.635  0.00  0.00    +0.000 OA
ENDROOT
BRANCH   8  11
ATOM     11  C   UNL     1       0.666   8.923  21.154  0.00  0.00    +0.000 A 
ATOM     12  C   UNL     1       0.263   8.738  22.477  0.00  0.00    +0.000 A 
ATOM     13  C   UNL     1      -0.382   9.756  23.172  0.00  0.00    +0.000 A 
ATOM     14  C   UNL     1      -0.679  10.958  22.534  0.00  0.00    +0.000 A 
ATOM     15  C   UNL     1      -0.352  11.174  21.182  0.00  0.00    +0.000 A 
ATOM     16  C   UNL     1       0.365  10.147  20.537  0.00  0.00    +0.000 A 
BRANCH  15  17
ATOM     17  C   UNL     1      -0.806  12.491  20.396  0.00  0.00    +0.000 C 
ATOM     18  C   UNL     1      -2.162  12.474  19.629  0.00  0.00    +0.000 C 
ATOM     19  O   UNL     1      -2.527  13.760  20.206  0.00  0.00    +0.000 OA
ATOM     20  C   UNL     1      -1.556  13.546  21.260  0.00  0.00    +0.000 C 
BRANCH  17  21
ATOM     21  C   UNL     1       0.349  13.098  19.579  0.00  0.00    +0.000 C 
BRANCH  21  22
ATOM     22  C   UNL     1       1.359  13.805  20.424  0.00  0.00    +0.000 A 
ATOM     23  N   UNL     1       2.272  13.229  21.185  0.00  0.00    +0.000 NA
ATOM     24  N   UNL     1       3.027  14.211  21.778  0.00  0.00    +0.000 NA
ATOM     25  C   UNL     1       2.562  15.368  21.366  0.00  0.00    +0.000 A 
ATOM     26  N   UNL     1       1.504  15.164  20.532  0.00  0.00    +0.000 N 
ATOM     27  C   UNL     1       0.729  16.198  19.902  0.00  0.00    +0.000 C 
ENDBRANCH  21  22
ENDBRANCH  17  21
ENDBRANCH  15  17
ENDBRANCH   8  11
BRANCH   5  28
ATOM     28  C   UNL     1       2.103   3.437  20.669  0.00  0.00    +0.000 C 
ATOM     29  F   UNL     1       0.757   3.247  20.618  0.00  0.00    +0.000 F 
ATOM     30  F   UNL     1       2.659   2.226  20.395  0.00  0.00    +0.000 F 
ATOM     31  F   UNL     1       2.392   3.702  21.971  0.00  0.00    +0.000 F 
ENDBRANCH   5  28
BRANCH   1  33
ATOM     32  C   UNL     1       4.987   5.900  15.685  0.00  0.00    +0.000 C 
ATOM     33  C   UNL     1       5.130   4.872  16.826  0.00  0.00    +0.000 C 
BRANCH  33  34
ATOM     34  N   UNL     1       6.456   4.891  17.465  0.00  0.00    +0.000 NA
ATOM     35  C   UNL     1       7.338   5.969  16.980  0.00  0.00    +0.000 C 
ATOM     36  C   UNL     1       7.699   6.826  18.181  0.00  0.00    +0.000 C 
ATOM     37  C   UNL     1       7.584   5.869  19.340  0.00  0.00    +0.000 C 
ATOM     38  F   UNL     1       8.724   5.136  19.436  0.00  0.00    +0.000 F 
ATOM     39  C   UNL     1       6.423   4.976  18.936  0.00  0.00    +0.000 C 
ENDBRANCH  33  34
ENDBRANCH   1  33
TORSDOF 7
ENDMDL
MODEL 8
REMARK VINA RESULT:      -9.7      2.658      3.676
REMARK  Name = 
REMARK  9 active torsions:
REMARK  status: ('A' for Active; 'I' for Inactive)
REMARK    1  A    between atoms: C_1  and  C_2
REMARK    2  A    between atoms: C_2  and  C_3
REMARK    3  A    between atoms: C_2  and  N_34
REMARK    4  A    between atoms: C_7  and  C_8
REMARK    5  A    between atoms: N_14  and  C_15
REMARK    6  A    between atoms: C_19  and  C_20
REMARK    7  A    between atoms: C_20  and  C_21
REMARK    8  A    between atoms: C_21  and  C_22
REMARK    9  A    between atoms: N_26  and  C_27
REMARK                            x       y       z     vdW  Elec       q    Type
REMARK                         _______ _______ _______ _____ _____    ______ ____
ROOT
ATOM      1  C   UNL     1       4.018   4.763  17.924  0.00  0.00    +0.000 A 
ATOM      2  C   UNL     1       3.625   6.104  17.832  0.00  0.00    +0.000 A 
ATOM      3  C   UNL     1       2.752   6.586  18.784  0.00  0.00    +0.000 A 
ATOM      4  C   UNL     1       2.233   5.799  19.808  0.00  0.00    +0.000 A 
ATOM      5  C   UNL     1       2.549   4.449  19.893  0.00  0.00    +0.000 A 
ATOM      6  C   UNL     1       3.462   3.947  18.943  0.00  0.00    +0.000 A 
ATOM      7  C   UNL     1       1.420   6.656  20.721  0.00  0.00    +0.000 C 
ATOM      8  N   UNL     1       1.514   7.979  20.115  0.00  0.00    +0.000 N 
ATOM      9  C   UNL     1       2.292   7.964  18.960  0.00  0.00    +0.000 C 
ATOM     10  O   UNL     1       2.616   8.854  18.197  0.00  0.00    +0.000 OA
ENDROOT
BRANCH   8  11
ATOM     11  C   UNL     1       0.885   9.113  20.680  0.00  0.00    +0.000 A 
ATOM     12  C   UNL     1       0.041   9.010  21.787  0.00  0.00    +0.000 A 
ATOM     13  C   UNL     1      -0.543  10.144  22.343  0.00  0.00    +0.000 A 
ATOM     14  C   UNL     1      -0.329  11.394  21.766  0.00  0.00    +0.000 A 
ATOM     15  C   UNL     1       0.462  11.547  20.612  0.00  0.00    +0.000 A 
ATOM     16  C   UNL     1       1.093  10.385  20.125  0.00  0.00    +0.000 A 
BRANCH  15  17
ATOM     17  C   UNL     1       0.606  12.949  19.858  0.00  0.00    +0.000 C 
ATOM     18  C   UNL     1      -0.105  13.136  18.484  0.00  0.00    +0.000 C 
ATOM     19  O   UNL     1      -0.636  14.423  18.912  0.00  0.00    +0.000 OA
ATOM     20  C   UNL     1      -0.420  14.037  20.291  0.00  0.00    +0.000 C 
BRANCH  17  21
ATOM     21  C   UNL     1       2.058  13.460  19.868  0.00  0.00    +0.000 C 
BRANCH  21  22
ATOM     22  C   UNL     1       2.283  14.575  20.838  0.00  0.00    +0.000 A 
ATOM     23  N   UNL     1       2.440  14.447  22.143  0.00  0.00    +0.000 NA
ATOM     24  N   UNL     1       2.652  15.693  22.680  0.00  0.00    +0.000 NA
ATOM     25  C   UNL     1       2.622  16.557  21.693  0.00  0.00    +0.000 A 
ATOM     26  N   UNL     1       2.374  15.906  20.522  0.00  0.00    +0.000 N 
ATOM     27  C   UNL     1       2.253  16.528  19.232  0.00  0.00    +0.000 C 
ENDBRANCH  21  22
ENDBRANCH  17  21
ENDBRANCH  15  17
ENDBRANCH   8  11
BRANCH   5  28
ATOM     28  C   UNL     1       1.981   3.535  20.947  0.00  0.00    +0.000 C 
ATOM     29  F   UNL     1       0.622   3.472  20.934  0.00  0.00    +0.000 F 
ATOM     30  F   UNL     1       2.413   2.252  20.808  0.00  0.00    +0.000 F 
ATOM     31  F   UNL     1       2.323   3.915  22.208  0.00  0.00    +0.000 F 
ENDBRANCH   5  28
BRANCH   1  33
ATOM     32  C   UNL     1       4.899   4.925  15.643  0.00  0.00    +0.000 C 
ATOM     33  C   UNL     1       5.142   4.265  17.015  0.00  0.00    +0.000 C 
BRANCH  33  34
ATOM     34  N   UNL     1       6.481   4.538  17.564  0.00  0.00    +0.000 NA
ATOM     35  C   UNL     1       7.213   5.601  16.854  0.00  0.00    +0.000 C 
ATOM     36  C   UNL     1       7.518   6.690  17.870  0.00  0.00    +0.000 C 
ATOM     37  C   UNL     1       7.558   5.944  19.179  0.00  0.00    +0.000 C 
ATOM     38  F   UNL     1       8.778   5.365  19.332  0.00  0.00    +0.000 F 
ATOM     39  C   UNL     1       6.494   4.875  18.999  0.00  0.00    +0.000 C 
ENDBRANCH  33  34
ENDBRANCH   1  33
TORSDOF 7
ENDMDL
MODEL 9
REMARK VINA RESULT:      -9.6      1.568      2.226
REMARK  Name = 
REMARK  9 active torsions:
REMARK  status: ('A' for Active; 'I' for Inactive)
REMARK    1  A    between atoms: C_1  and  C_2
REMARK    2  A    between atoms: C_2  and  C_3
REMARK    3  A    between atoms: C_2  and  N_34
REMARK    4  A    between atoms: C_7  and  C_8
REMARK    5  A    between atoms: N_14  and  C_15
REMARK    6  A    between atoms: C_19  and  C_20
REMARK    7  A    between atoms: C_20  and  C_21
REMARK    8  A    between atoms: C_21  and  C_22
REMARK    9  A    between atoms: N_26  and  C_27
REMARK                            x       y       z     vdW  Elec       q    Type
REMARK                         _______ _______ _______ _____ _____    ______ ____
ROOT
ATOM      1  C   UNL     1       4.022   4.981  17.854  0.00  0.00    +0.000 A 
ATOM      2  C   UNL     1       3.576   6.309  17.889  0.00  0.00    +0.000 A 
ATOM      3  C   UNL     1       2.679   6.661  18.874  0.00  0.00    +0.000 A 
ATOM      4  C   UNL     1       2.184   5.759  19.811  0.00  0.00    +0.000 A 
ATOM      5  C   UNL     1       2.552   4.420  19.767  0.00  0.00    +0.000 A 
ATOM      6  C   UNL     1       3.492   4.049  18.783  0.00  0.00    +0.000 A 
ATOM      7  C   UNL     1       1.331   6.491  20.794  0.00  0.00    +0.000 C 
ATOM      8  N   UNL     1       1.377   7.869  20.321  0.00  0.00    +0.000 N 
ATOM      9  C   UNL     1       2.163   7.996  19.178  0.00  0.00    +0.000 C 
ATOM     10  O   UNL     1       2.458   8.969  18.509  0.00  0.00    +0.000 OA
ENDROOT
BRANCH   8  11
ATOM     11  C   UNL     1       0.700   8.917  20.987  0.00  0.00    +0.000 A 
ATOM     12  C   UNL     1       0.440   8.870  22.357  0.00  0.00    +0.000 A 
ATOM     13  C   UNL     1      -0.202   9.927  22.995  0.00  0.00    +0.000 A 
ATOM     14  C   UNL     1      -0.637  11.026  22.259  0.00  0.00    +0.000 A 
ATOM     15  C   UNL     1      -0.457  11.097  20.865  0.00  0.00    +0.000 A 
ATOM     16  C   UNL     1       0.261  10.041  20.270  0.00  0.00    +0.000 A 
BRANCH  15  17
ATOM     17  C   UNL     1      -1.070  12.284  19.985  0.00  0.00    +0.000 C 
ATOM     18  C   UNL     1      -0.162  12.975  18.925  0.00  0.00    +0.000 C 
ATOM     19  O   UNL     1      -1.217  12.875  17.927  0.00  0.00    +0.000 OA
ATOM     20  C   UNL     1      -1.840  11.828  18.711  0.00  0.00    +0.000 C 
BRANCH  17  21
ATOM     21  C   UNL     1      -1.872  13.279  20.843  0.00  0.00    +0.000 C 
BRANCH  21  22
ATOM     22  C   UNL     1      -3.337  12.984  20.871  0.00  0.00    +0.000 A 
ATOM     23  N   UNL     1      -4.140  12.945  19.823  0.00  0.00    +0.000 NA
ATOM     24  N   UNL     1      -5.401  12.613  20.254  0.00  0.00    +0.000 NA
ATOM     25  C   UNL     1      -5.344  12.455  21.556  0.00  0.00    +0.000 A 
ATOM     26  N   UNL     1      -4.075  12.697  21.990  0.00  0.00    +0.000 N 
ATOM     27  C   UNL     1      -3.638  12.638  23.359  0.00  0.00    +0.000 C 
ENDBRANCH  21  22
ENDBRANCH  17  21
ENDBRANCH  15  17
ENDBRANCH   8  11
BRANCH   5  28
ATOM     28  C   UNL     1       2.014   3.386  20.722  0.00  0.00    +0.000 C 
ATOM     29  F   UNL     1       0.656   3.387  20.812  0.00  0.00    +0.000 F 
ATOM     30  F   UNL     1       2.360   2.120  20.363  0.00  0.00    +0.000 F 
ATOM     31  F   UNL     1       2.470   3.559  21.992  0.00  0.00    +0.000 F 
ENDBRANCH   5  28
BRANCH   1  33
ATOM     32  C   UNL     1       5.003   5.520  15.674  0.00  0.00    +0.000 C 
ATOM     33  C   UNL     1       5.171   4.618  16.914  0.00  0.00    +0.000 C 
BRANCH  33  34
ATOM     34  N   UNL     1       6.491   4.745  17.553  0.00  0.00    +0.000 NA
ATOM     35  C   UNL     1       7.315   5.841  17.011  0.00  0.00    +0.000 C 
ATOM     36  C   UNL     1       7.622   6.782  18.164  0.00  0.00    +0.000 C 
ATOM     37  C   UNL     1       7.554   5.886  19.374  0.00  0.00    +0.000 C 
ATOM     38  F   UNL     1       8.733   5.223  19.512  0.00  0.00    +0.000 F 
ATOM     39  C   UNL     1       6.446   4.909  19.017  0.00  0.00    +0.000 C 
ENDBRANCH  33  34
ENDBRANCH   1  33
TORSDOF 7
ENDMDL
