MODEL 1
REMARK VINA RESULT:      -9.8      0.000      0.000
REMARK  Name = 
REMARK  8 active torsions:
REMARK  status: ('A' for Active; 'I' for Inactive)
REMARK    1  A    between atoms: C_1  and  N_2
REMARK    2  A    between atoms: C_6  and  C_7
REMARK    3  A    between atoms: C_7  and  C_8
REMARK    4  A    between atoms: C_8  and  C_9
REMARK    5  A    between atoms: C_13  and  N_14
REMARK    6  A    between atoms: C_19  and  C_20
REMARK    7  A    between atoms: C_20  and  N_21
REMARK    8  A    between atoms: C_27  and  C_28
REMARK                            x       y       z     vdW  Elec       q    Type
REMARK                         _______ _______ _______ _____ _____    ______ ____
ROOT
ATOM      1  N   UNL     1       2.461   7.469  18.921  0.00  0.00    +0.000 N 
ATOM      2  C   UNL     1       1.844   7.708  20.221  0.00  0.00    +0.000 C 
ATOM      3  C   UNL     1       0.971   8.885  19.944  0.00  0.00    +0.000 A 
ATOM      4  C   UNL     1       1.199   9.351  18.659  0.00  0.00    +0.000 A 
ATOM      5  C   UNL     1       0.508  10.387  18.091  0.00  0.00    +0.000 A 
ATOM      6  C   UNL     1      -0.448  10.971  18.899  0.00  0.00    +0.000 A 
ATOM      7  N   UNL     1      -0.696  10.537  20.180  0.00  0.00    +0.000 NA
ATOM      8  C   UNL     1       0.006   9.494  20.708  0.00  0.00    +0.000 A 
ATOM      9  C   UNL     1       2.164   8.480  18.013  0.00  0.00    +0.000 C 
ATOM     10  O   UNL     1       2.548   8.649  16.869  0.00  0.00    +0.000 OA
ENDROOT
BRANCH   1  15
ATOM     11  C   UNL     1       4.409   4.715  17.297  0.00  0.00    +0.000 A 
ATOM     12  C   UNL     1       3.665   3.619  17.793  0.00  0.00    +0.000 A 
ATOM     13  C   UNL     1       2.578   3.783  18.642  0.00  0.00    +0.000 A 
ATOM     14  C   UNL     1       2.178   5.063  18.990  0.00  0.00    +0.000 A 
ATOM     15  C   UNL     1       2.877   6.182  18.527  0.00  0.00    +0.000 A 
ATOM     16  C   UNL     1       3.998   6.002  17.712  0.00  0.00    +0.000 A 
BRANCH  11  17
ATOM     17  C   UNL     1       5.634   4.477  16.290  0.00  0.00    +0.000 C 
ATOM     18  C   UNL     1       5.656   5.417  15.047  0.00  0.00    +0.000 C 
ATOM     19  O   UNL     1       5.570   4.312  14.130  0.00  0.00    +0.000 OA
ATOM     20  C   UNL     1       5.513   3.363  15.216  0.00  0.00    +0.000 C 
BRANCH  17  21
ATOM     21  C   UNL     1       6.971   4.514  17.058  0.00  0.00    +0.000 C 
BRANCH  21  27
ATOM     22  C   UNL     1       7.988   5.608  19.882  0.00  0.00    +0.000 C 
ATOM     23  N   UNL     1       7.850   6.334  18.647  0.00  0.00    +0.000 N 
ATOM     24  C   UNL     1       8.072   7.672  18.508  0.00  0.00    +0.000 A 
ATOM     25  N   UNL     1       7.874   8.024  17.262  0.00  0.00    +0.000 NA
ATOM     26  N   UNL     1       7.496   6.900  16.571  0.00  0.00    +0.000 NA
ATOM     27  C   UNL     1       7.459   5.883  17.409  0.00  0.00    +0.000 A 
ENDBRANCH  21  27
ENDBRANCH  17  21
ENDBRANCH  11  17
ENDBRANCH   1  15
BRANCH   8  28
ATOM     28  C   UNL     1      -0.329   9.004  22.095  0.00  0.00    +0.000 C 
ATOM     29  C   UNL     1       0.529   9.414  23.271  0.00  0.00    +0.000 C 
ATOM     30  C   UNL     1      -0.859   9.967  23.131  0.00  0.00    +0.000 C 
ENDBRANCH   8  28
BRANCH   6  31
ATOM     31  C   UNL     1      -1.247  12.142  18.361  0.00  0.00    +0.000 C 
BRANCH  31  32
ATOM     32  N   UNL     1      -2.525  11.847  17.689  0.00  0.00    +0.000 NA
ATOM     33  C   UNL     1      -3.369  10.860  18.367  0.00  0.00    +0.000 C 
ATOM     34  C   UNL     1      -3.045   9.522  17.729  0.00  0.00    +0.000 C 
ATOM     35  C   UNL     1      -2.612   9.869  16.315  0.00  0.00    +0.000 C 
ATOM     36  C   UNL     1      -2.353  11.372  16.314  0.00  0.00    +0.000 C 
ENDBRANCH  31  32
ENDBRANCH   6  31
TORSDOF 7
ENDMDL
MODEL 2
REMARK VINA RESULT:      -9.4      1.130      2.006
REMARK  Name = 
REMARK  8 active torsions:
REMARK  status: ('A' for Active; 'I' for Inactive)
REMARK    1  A    between atoms: C_1  and  N_2
REMARK    2  A    between atoms: C_6  and  C_7
REMARK    3  A    between atoms: C_7  and  C_8
REMARK    4  A    between atoms: C_8  and  C_9
REMARK    5  A    between atoms: C_13  and  N_14
REMARK    6  A    between atoms: C_19  and  C_20
REMARK    7  A    between atoms: C_20  and  N_21
REMARK    8  A    between atoms: C_27  and  C_28
REMARK                            x       y       z     vdW  Elec       q    Type
REMARK                         _______ _______ _______ _____ _____    ______ ____
ROOT
ATOM      1  N   UNL     1       2.515   7.496  19.005  0.00  0.00    +0.000 N 
ATOM      2  C   UNL     1       1.863   7.734  20.288  0.00  0.00    +0.000 C 
ATOM      3  C   UNL     1       1.025   8.933  19.997  0.00  0.00    +0.000 A 
ATOM      4  C   UNL     1       1.305   9.409  18.726  0.00  0.00    +0.000 A 
ATOM      5  C   UNL     1       0.657  10.467  18.149  0.00  0.00    +0.000 A 
ATOM      6  C   UNL     1      -0.312  11.063  18.933  0.00  0.00    +0.000 A 
ATOM      7  N   UNL     1      -0.611  10.621  20.201  0.00  0.00    +0.000 NA
ATOM      8  C   UNL     1       0.050   9.555  20.737  0.00  0.00    +0.000 A 
ATOM      9  C   UNL     1       2.271   8.524  18.100  0.00  0.00    +0.000 C 
ATOM     10  O   UNL     1       2.696   8.698  16.972  0.00  0.00    +0.000 OA
ENDROOT
BRANCH   1  15
ATOM     11  C   UNL     1       4.402   4.723  17.342  0.00  0.00    +0.000 A 
ATOM     12  C   UNL     1       3.673   3.633  17.871  0.00  0.00    +0.000 A 
ATOM     13  C   UNL     1       2.615   3.808  18.755  0.00  0.00    +0.000 A 
ATOM     14  C   UNL     1       2.229   5.091  19.104  0.00  0.00    +0.000 A 
ATOM     15  C   UNL     1       2.915   6.205  18.608  0.00  0.00    +0.000 A 
ATOM     16  C   UNL     1       4.009   6.014  17.759  0.00  0.00    +0.000 A 
BRANCH  11  17
ATOM     17  C   UNL     1       5.593   4.473  16.296  0.00  0.00    +0.000 C 
ATOM     18  C   UNL     1       5.586   5.413  15.053  0.00  0.00    +0.000 C 
ATOM     19  O   UNL     1       5.460   4.308  14.140  0.00  0.00    +0.000 OA
ATOM     20  C   UNL     1       5.428   3.360  15.228  0.00  0.00    +0.000 C 
BRANCH  17  21
ATOM     21  C   UNL     1       6.953   4.497  17.023  0.00  0.00    +0.000 C 
BRANCH  21  27
ATOM     22  C   UNL     1       7.925   5.565  19.873  0.00  0.00    +0.000 C 
ATOM     23  N   UNL     1       7.818   6.299  18.640  0.00  0.00    +0.000 N 
ATOM     24  C   UNL     1       8.056   7.636  18.513  0.00  0.00    +0.000 A 
ATOM     25  N   UNL     1       7.886   7.997  17.265  0.00  0.00    +0.000 NA
ATOM     26  N   UNL     1       7.511   6.881  16.560  0.00  0.00    +0.000 NA
ATOM     27  C   UNL     1       7.448   5.859  17.391  0.00  0.00    +0.000 A 
ENDBRANCH  21  27
ENDBRANCH  17  21
ENDBRANCH  11  17
ENDBRANCH   1  15
BRANCH   8  28
ATOM     28  C   UNL     1      -0.340   9.057  22.107  0.00  0.00    +0.000 C 
ATOM     29  C   UNL     1       0.493   9.428  23.314  0.00  0.00    +0.000 C 
ATOM     30  C   UNL     1      -0.874  10.021  23.140  0.00  0.00    +0.000 C 
ENDBRANCH   8  28
BRANCH   6  31
ATOM     31  C   UNL     1      -1.067  12.259  18.385  0.00  0.00    +0.000 C 
BRANCH  31  32
ATOM     32  N   UNL     1      -0.550  13.600  18.708  0.00  0.00    +0.000 NA
ATOM     33  C   UNL     1       0.910  13.705  18.769  0.00  0.00    +0.000 C 
ATOM     34  C   UNL     1       1.284  13.516  20.227  0.00  0.00    +0.000 C 
ATOM     35  C   UNL     1       0.075  14.015  20.998  0.00  0.00    +0.000 C 
ATOM     36  C   UNL     1      -1.057  14.119  19.980  0.00  0.00    +0.000 C 
ENDBRANCH  31  32
ENDBRANCH   6  31
TORSDOF 7
ENDMDL
MODEL 3
REMARK VINA RESULT:      -9.3      2.908      9.581
REMARK  Name = 
REMARK  8 active torsions:
REMARK  status: ('A' for Active; 'I' for Inactive)
REMARK    1  A    between atoms: C_1  and  N_2
REMARK    2  A    between atoms: C_6  and  C_7
REMARK    3  A    between atoms: C_7  and  C_8
REMARK    4  A    between atoms: C_8  and  C_9
REMARK    5  A    between atoms: C_13  and  N_14
REMARK    6  A    between atoms: C_19  and  C_20
REMARK    7  A    between atoms: C_20  and  N_21
REMARK    8  A    between atoms: C_27  and  C_28
REMARK                            x       y       z     vdW  Elec       q    Type
REMARK                         _______ _______ _______ _____ _____    ______ ____
ROOT
ATOM      1  N   UNL     1       1.435   9.455  19.084  0.00  0.00    +0.000 N 
ATOM      2  C   UNL     1       2.486   9.014  18.174  0.00  0.00    +0.000 C 
ATOM      3  C   UNL     1       2.749   7.624  18.647  0.00  0.00    +0.000 A 
ATOM      4  C   UNL     1       2.029   7.373  19.804  0.00  0.00    +0.000 A 
ATOM      5  C   UNL     1       2.017   6.166  20.448  0.00  0.00    +0.000 A 
ATOM      6  C   UNL     1       2.798   5.184  19.871  0.00  0.00    +0.000 A 
ATOM      7  N   UNL     1       3.531   5.400  18.727  0.00  0.00    +0.000 NA
ATOM      8  C   UNL     1       3.508   6.614  18.108  0.00  0.00    +0.000 A 
ATOM      9  C   UNL     1       1.217   8.539  20.107  0.00  0.00    +0.000 C 
ATOM     10  O   UNL     1       0.474   8.596  21.072  0.00  0.00    +0.000 OA
ENDROOT
BRANCH   1  15
ATOM     11  C   UNL     1      -1.700  10.995  17.736  0.00  0.00    +0.000 A 
ATOM     12  C   UNL     1      -1.378  12.352  17.971  0.00  0.00    +0.000 A 
ATOM     13  C   UNL     1      -0.184  12.739  18.567  0.00  0.00    +0.000 A 
ATOM     14  C   UNL     1       0.746  11.772  18.910  0.00  0.00    +0.000 A 
ATOM     15  C   UNL     1       0.479  10.415  18.699  0.00  0.00    +0.000 A 
ATOM     16  C   UNL     1      -0.746  10.036  18.143  0.00  0.00    +0.000 A 
BRANCH  11  17
ATOM     17  C   UNL     1      -3.075  10.599  17.012  0.00  0.00    +0.000 C 
ATOM     18  C   UNL     1      -2.938   9.555  15.864  0.00  0.00    +0.000 C 
ATOM     19  O   UNL     1      -3.471  10.465  14.886  0.00  0.00    +0.000 OA
ATOM     20  C   UNL     1      -3.610  11.509  15.874  0.00  0.00    +0.000 C 
BRANCH  17  21
ATOM     21  C   UNL     1      -4.122  10.163  18.058  0.00  0.00    +0.000 C 
BRANCH  21  27
ATOM     22  C   UNL     1      -4.077  12.631  20.087  0.00  0.00    +0.000 C 
ATOM     23  N   UNL     1      -5.160  12.193  19.247  0.00  0.00    +0.000 N 
ATOM     24  C   UNL     1      -6.407  12.744  19.244  0.00  0.00    +0.000 A 
ATOM     25  N   UNL     1      -7.157  12.130  18.361  0.00  0.00    +0.000 NA
ATOM     26  N   UNL     1      -6.395  11.146  17.786  0.00  0.00    +0.000 NA
ATOM     27  C   UNL     1      -5.196  11.166  18.333  0.00  0.00    +0.000 A 
ENDBRANCH  21  27
ENDBRANCH  17  21
ENDBRANCH  11  17
ENDBRANCH   1  15
BRANCH   8  28
ATOM     28  C   UNL     1       4.275   6.803  16.823  0.00  0.00    +0.000 C 
ATOM     29  C   UNL     1       5.788   6.826  16.840  0.00  0.00    +0.000 C 
ATOM     30  C   UNL     1       5.066   5.657  16.237  0.00  0.00    +0.000 C 
ENDBRANCH   8  28
BRANCH   6  31
ATOM     31  C   UNL     1       2.865   3.819  20.529  0.00  0.00    +0.000 C 
BRANCH  31  32
ATOM     32  N   UNL     1       2.264   2.683  19.808  0.00  0.00    +0.000 NA
ATOM     33  C   UNL     1       3.220   1.706  19.280  0.00  0.00    +0.000 C 
ATOM     34  C   UNL     1       3.488   2.114  17.844  0.00  0.00    +0.000 C 
ATOM     35  C   UNL     1       2.213   2.811  17.402  0.00  0.00    +0.000 C 
ATOM     36  C   UNL     1       1.429   3.099  18.678  0.00  0.00    +0.000 C 
ENDBRANCH  31  32
ENDBRANCH   6  31
TORSDOF 7
ENDMDL
MODEL 4
REMARK VINA RESULT:      -9.2      2.076      3.415
REMARK  Name = 
REMARK  8 active torsions:
REMARK  status: ('A' for Active; 'I' for Inactive)
REMARK    1  A    between atoms: C_1  and  N_2
REMARK    2  A    between atoms: C_6  and  C_7
REMARK    3  A    between atoms: C_7  and  C_8
REMARK    4  A    between atoms: C_8  and  C_9
REMARK    5  A    between atoms: C_13  and  N_14
REMARK    6  A    between atoms: C_19  and  C_20
REMARK    7  A    between atoms: C_20  and  N_21
REMARK    8  A    between atoms: C_27  and  C_28
REMARK                            x       y       z     vdW  Elec       q    Type
REMARK                         _______ _______ _______ _____ _____    ______ ____
ROOT
ATOM      1  N   UNL     1       2.406   7.888  18.934  0.00  0.00    +0.000 N 
ATOM      2  C   UNL     1       1.745   7.977  20.232  0.00  0.00    +0.000 C 
ATOM      3  C   UNL     1       0.945   9.228  20.092  0.00  0.00    +0.000 A 
ATOM      4  C   UNL     1       1.252   9.856  18.895  0.00  0.00    +0.000 A 
ATOM      5  C   UNL     1       0.640  10.997  18.455  0.00  0.00    +0.000 A 
ATOM      6  C   UNL     1      -0.321  11.515  19.301  0.00  0.00    +0.000 A 
ATOM      7  N   UNL     1      -0.647  10.921  20.499  0.00  0.00    +0.000 NA
ATOM      8  C   UNL     1      -0.022   9.777  20.898  0.00  0.00    +0.000 A 
ATOM      9  C   UNL     1       2.201   9.031  18.168  0.00  0.00    +0.000 C 
ATOM     10  O   UNL     1       2.643   9.337  17.075  0.00  0.00    +0.000 OA
ENDROOT
BRANCH   1  15
ATOM     11  C   UNL     1       4.453   5.174  17.366  0.00  0.00    +0.000 A 
ATOM     12  C   UNL     1       3.454   4.176  17.301  0.00  0.00    +0.000 A 
ATOM     13  C   UNL     1       2.164   4.386  17.774  0.00  0.00    +0.000 A 
ATOM     14  C   UNL     1       1.825   5.625  18.291  0.00  0.00    +0.000 A 
ATOM     15  C   UNL     1       2.775   6.648  18.377  0.00  0.00    +0.000 A 
ATOM     16  C   UNL     1       4.082   6.409  17.944  0.00  0.00    +0.000 A 
BRANCH  11  17
ATOM     17  C   UNL     1       5.918   4.897  16.775  0.00  0.00    +0.000 C 
ATOM     18  C   UNL     1       6.928   4.270  17.784  0.00  0.00    +0.000 C 
ATOM     19  O   UNL     1       7.830   5.385  17.670  0.00  0.00    +0.000 OA
ATOM     20  C   UNL     1       6.946   6.059  16.750  0.00  0.00    +0.000 C 
BRANCH  17  21
ATOM     21  C   UNL     1       5.821   4.070  15.476  0.00  0.00    +0.000 C 
BRANCH  21  27
ATOM     22  C   UNL     1       5.673   3.254  12.391  0.00  0.00    +0.000 C 
ATOM     23  N   UNL     1       6.566   4.191  13.019  0.00  0.00    +0.000 N 
ATOM     24  C   UNL     1       7.575   4.846  12.376  0.00  0.00    +0.000 A 
ATOM     25  N   UNL     1       8.195   5.635  13.220  0.00  0.00    +0.000 NA
ATOM     26  N   UNL     1       7.594   5.483  14.444  0.00  0.00    +0.000 NA
ATOM     27  C   UNL     1       6.625   4.596  14.331  0.00  0.00    +0.000 A 
ENDBRANCH  21  27
ENDBRANCH  17  21
ENDBRANCH  11  17
ENDBRANCH   1  15
BRANCH   8  28
ATOM     28  C   UNL     1      -0.442   9.117  22.189  0.00  0.00    +0.000 C 
ATOM     29  C   UNL     1       0.373   9.326  23.446  0.00  0.00    +0.000 C 
ATOM     30  C   UNL     1      -0.985   9.952  23.325  0.00  0.00    +0.000 C 
ENDBRANCH   8  28
BRANCH   6  31
ATOM     31  C   UNL     1      -1.037  12.792  18.907  0.00  0.00    +0.000 C 
BRANCH  31  32
ATOM     32  N   UNL     1      -0.749  14.007  19.690  0.00  0.00    +0.000 NA
ATOM     33  C   UNL     1      -0.460  15.203  18.896  0.00  0.00    +0.000 C 
ATOM     34  C   UNL     1       1.050  15.267  18.766  0.00  0.00    +0.000 C 
ATOM     35  C   UNL     1       1.569  14.580  20.016  0.00  0.00    +0.000 C 
ATOM     36  C   UNL     1       0.377  13.840  20.613  0.00  0.00    +0.000 C 
ENDBRANCH  31  32
ENDBRANCH   6  31
TORSDOF 7
ENDMDL
MODEL 5
REMARK VINA RESULT:      -9.0      3.401     10.135
REMARK  Name = 
REMARK  8 active torsions:
REMARK  status: ('A' for Active; 'I' for Inactive)
REMARK    1  A    between atoms: C_1  and  N_2
REMARK    2  A    between atoms: C_6  and  C_7
REMARK    3  A    between atoms: C_7  and  C_8
REMARK    4  A    between atoms: C_8  and  C_9
REMARK    5  A    between atoms: C_13  and  N_14
REMARK    6  A    between atoms: C_19  and  C_20
REMARK    7  A    between atoms: C_20  and  N_21
REMARK    8  A    between atoms: C_27  and  C_28
REMARK                            x       y       z     vdW  Elec       q    Type
REMARK                         _______ _______ _______ _____ _____    ______ ____
ROOT
ATOM      1  N   UNL     1       1.231   9.048  19.732  0.00  0.00    +0.000 N 
ATOM      2  C   UNL     1       2.216   8.762  18.694  0.00  0.00    +0.000 C 
ATOM      3  C   UNL     1       2.638   7.373  19.036  0.00  0.00    +0.000 A 
ATOM      4  C   UNL     1       2.063   6.984  20.235  0.00  0.00    +0.000 A 
ATOM      5  C   UNL     1       2.215   5.741  20.785  0.00  0.00    +0.000 A 
ATOM      6  C   UNL     1       3.011   4.872  20.065  0.00  0.00    +0.000 A 
ATOM      7  N   UNL     1       3.603   5.227  18.875  0.00  0.00    +0.000 NA
ATOM      8  C   UNL     1       3.418   6.473  18.353  0.00  0.00    +0.000 A 
ATOM      9  C   UNL     1       1.194   8.051  20.700  0.00  0.00    +0.000 C 
ATOM     10  O   UNL     1       0.551   7.979  21.733  0.00  0.00    +0.000 OA
ENDROOT
BRANCH   1  15
ATOM     11  C   UNL     1      -1.346  11.703  20.306  0.00  0.00    +0.000 A 
ATOM     12  C   UNL     1      -1.931  11.702  19.018  0.00  0.00    +0.000 A 
ATOM     13  C   UNL     1      -1.480  10.872  17.999  0.00  0.00    +0.000 A 
ATOM     14  C   UNL     1      -0.448   9.984  18.255  0.00  0.00    +0.000 A 
ATOM     15  C   UNL     1       0.165   9.943  19.512  0.00  0.00    +0.000 A 
ATOM     16  C   UNL     1      -0.265  10.817  20.514  0.00  0.00    +0.000 A 
BRANCH  11  17
ATOM     17  C   UNL     1      -1.925  12.654  21.461  0.00  0.00    +0.000 C 
ATOM     18  C   UNL     1      -0.873  13.586  22.134  0.00  0.00    +0.000 C 
ATOM     19  O   UNL     1      -1.099  13.009  23.432  0.00  0.00    +0.000 OA
ATOM     20  C   UNL     1      -2.068  12.083  22.896  0.00  0.00    +0.000 C 
BRANCH  17  21
ATOM     21  C   UNL     1      -3.140  13.447  20.938  0.00  0.00    +0.000 C 
BRANCH  21  27
ATOM     22  C   UNL     1      -4.302  15.051  23.445  0.00  0.00    +0.000 C 
ATOM     23  N   UNL     1      -4.865  13.899  22.791  0.00  0.00    +0.000 N 
ATOM     24  C   UNL     1      -5.988  13.247  23.205  0.00  0.00    +0.000 A 
ATOM     25  N   UNL     1      -6.243  12.251  22.392  0.00  0.00    +0.000 NA
ATOM     26  N   UNL     1      -5.260  12.237  21.436  0.00  0.00    +0.000 NA
ATOM     27  C   UNL     1      -4.414  13.216  21.686  0.00  0.00    +0.000 A 
ENDBRANCH  21  27
ENDBRANCH  17  21
ENDBRANCH  11  17
ENDBRANCH   1  15
BRANCH   8  28
ATOM     28  C   UNL     1       4.032   6.813  17.017  0.00  0.00    +0.000 C 
ATOM     29  C   UNL     1       5.526   7.019  16.901  0.00  0.00    +0.000 C 
ATOM     30  C   UNL     1       4.892   5.799  16.299  0.00  0.00    +0.000 C 
ENDBRANCH   8  28
BRANCH   6  31
ATOM     31  C   UNL     1       3.256   3.478  20.610  0.00  0.00    +0.000 C 
BRANCH  31  32
ATOM     32  N   UNL     1       2.432   2.380  20.074  0.00  0.00    +0.000 NA
ATOM     33  C   UNL     1       2.977   1.718  18.886  0.00  0.00    +0.000 C 
ATOM     34  C   UNL     1       2.341   2.405  17.693  0.00  0.00    +0.000 C 
ATOM     35  C   UNL     1       0.998   2.894  18.207  0.00  0.00    +0.000 C 
ATOM     36  C   UNL     1       1.073   2.801  19.727  0.00  0.00    +0.000 C 
ENDBRANCH  31  32
ENDBRANCH   6  31
TORSDOF 7
ENDMDL
MODEL 6
REMARK VINA RESULT:      -8.9      2.902      9.870
REMARK  Name = 
REMARK  8 active torsions:
REMARK  status: ('A' for Active; 'I' for Inactive)
REMARK    1  A    between atoms: C_1  and  N_2
REMARK    2  A    between atoms: C_6  and  C_7
REMARK    3  A    between atoms: C_7  and  C_8
REMARK    4  A    between atoms: C_8  and  C_9
REMARK    5  A    between atoms: C_13  and  N_14
REMARK    6  A    between atoms: C_19  and  C_20
REMARK    7  A    between atoms: C_20  and  N_21
REMARK    8  A    between atoms: C_27  and  C_28
REMARK                            x       y       z     vdW  Elec       q    Type
REMARK                         _______ _______ _______ _____ _____    ______ ____
ROOT
ATOM      1  N   UNL     1       1.677   8.766  19.278  0.00  0.00    +0.000 N 
ATOM      2  C   UNL     1       2.645   8.558  18.206  0.00  0.00    +0.000 C 
ATOM      3  C   UNL     1       3.136   7.179  18.488  0.00  0.00    +0.000 A 
ATOM      4  C   UNL     1       2.611   6.725  19.688  0.00  0.00    +0.000 A 
ATOM      5  C   UNL     1       2.832   5.472  20.190  0.00  0.00    +0.000 A 
ATOM      6  C   UNL     1       3.645   4.663  19.420  0.00  0.00    +0.000 A 
ATOM      7  N   UNL     1       4.188   5.083  18.228  0.00  0.00    +0.000 NA
ATOM      8  C   UNL     1       3.935   6.336  17.754  0.00  0.00    +0.000 A 
ATOM      9  C   UNL     1       1.710   7.736  20.212  0.00  0.00    +0.000 C 
ATOM     10  O   UNL     1       1.100   7.601  21.258  0.00  0.00    +0.000 OA
ENDROOT
BRANCH   1  15
ATOM     11  C   UNL     1      -0.954  11.333  19.988  0.00  0.00    +0.000 A 
ATOM     12  C   UNL     1      -1.616  11.297  18.740  0.00  0.00    +0.000 A 
ATOM     13  C   UNL     1      -1.198  10.474  17.701  0.00  0.00    +0.000 A 
ATOM     14  C   UNL     1      -0.121   9.626  17.900  0.00  0.00    +0.000 A 
ATOM     15  C   UNL     1       0.569   9.620  19.117  0.00  0.00    +0.000 A 
ATOM     16  C   UNL     1       0.169  10.488  20.137  0.00  0.00    +0.000 A 
BRANCH  11  17
ATOM     17  C   UNL     1      -1.495  12.274  21.169  0.00  0.00    +0.000 C 
ATOM     18  C   UNL     1      -0.402  13.120  21.889  0.00  0.00    +0.000 C 
ATOM     19  O   UNL     1      -0.680  12.511  23.163  0.00  0.00    +0.000 OA
ATOM     20  C   UNL     1      -1.692  11.662  22.582  0.00  0.00    +0.000 C 
BRANCH  17  21
ATOM     21  C   UNL     1      -2.655  13.153  20.660  0.00  0.00    +0.000 C 
BRANCH  21  27
ATOM     22  C   UNL     1      -5.071  12.205  18.796  0.00  0.00    +0.000 C 
ATOM     23  N   UNL     1      -5.053  12.332  20.230  0.00  0.00    +0.000 N 
ATOM     24  C   UNL     1      -6.133  12.129  21.037  0.00  0.00    +0.000 A 
ATOM     25  N   UNL     1      -5.788  12.310  22.288  0.00  0.00    +0.000 NA
ATOM     26  N   UNL     1      -4.460  12.657  22.303  0.00  0.00    +0.000 NA
ATOM     27  C   UNL     1      -4.020  12.693  21.061  0.00  0.00    +0.000 A 
ENDBRANCH  21  27
ENDBRANCH  17  21
ENDBRANCH  11  17
ENDBRANCH   1  15
BRANCH   8  28
ATOM     28  C   UNL     1       4.497   6.748  16.416  0.00  0.00    +0.000 C 
ATOM     29  C   UNL     1       5.993   6.868  16.227  0.00  0.00    +0.000 C 
ATOM     30  C   UNL     1       5.246   5.746  15.569  0.00  0.00    +0.000 C 
ENDBRANCH   8  28
BRANCH   6  31
ATOM     31  C   UNL     1       3.964   3.263  19.910  0.00  0.00    +0.000 C 
BRANCH  31  32
ATOM     32  N   UNL     1       2.994   2.196  19.609  0.00  0.00    +0.000 NA
ATOM     33  C   UNL     1       2.518   2.162  18.225  0.00  0.00    +0.000 C 
ATOM     34  C   UNL     1       1.226   2.958  18.205  0.00  0.00    +0.000 C 
ATOM     35  C   UNL     1       0.661   2.801  19.606  0.00  0.00    +0.000 C 
ATOM     36  C   UNL     1       1.801   2.251  20.457  0.00  0.00    +0.000 C 
ENDBRANCH  31  32
ENDBRANCH   6  31
TORSDOF 7
ENDMDL
MODEL 7
REMARK VINA RESULT:      -8.9      3.092      9.728
REMARK  Name = 
REMARK  8 active torsions:
REMARK  status: ('A' for Active; 'I' for Inactive)
REMARK    1  A    between atoms: C_1  and  N_2
REMARK    2  A    between atoms: C_6  and  C_7
REMARK    3  A    between atoms: C_7  and  C_8
REMARK    4  A    between atoms: C_8  and  C_9
REMARK    5  A    between atoms: C_13  and  N_14
REMARK    6  A    between atoms: C_19  and  C_20
REMARK    7  A    between atoms: C_20  and  N_21
REMARK    8  A    between atoms: C_27  and  C_28
REMARK                            x       y       z     vdW  Elec       q    Type
REMARK                         _______ _______ _______ _____ _____    ______ ____
ROOT
ATOM      1  N   UNL     1       1.591   8.900  19.270  0.00  0.00    +0.000 N 
ATOM      2  C   UNL     1       2.566   8.656  18.212  0.00  0.00    +0.000 C 
ATOM      3  C   UNL     1       3.045   7.281  18.536  0.00  0.00    +0.000 A 
ATOM      4  C   UNL     1       2.507   6.864  19.743  0.00  0.00    +0.000 A 
ATOM      5  C   UNL     1       2.714   5.624  20.281  0.00  0.00    +0.000 A 
ATOM      6  C   UNL     1       3.527   4.789  19.541  0.00  0.00    +0.000 A 
ATOM      7  N   UNL     1       4.083   5.172  18.342  0.00  0.00    +0.000 NA
ATOM      8  C   UNL     1       3.843   6.414  17.832  0.00  0.00    +0.000 A 
ATOM      9  C   UNL     1       1.609   7.896  20.232  0.00  0.00    +0.000 C 
ATOM     10  O   UNL     1       0.989   7.794  21.276  0.00  0.00    +0.000 OA
ENDROOT
BRANCH   1  15
ATOM     11  C   UNL     1      -0.896  11.650  19.789  0.00  0.00    +0.000 A 
ATOM     12  C   UNL     1      -1.686  11.430  18.637  0.00  0.00    +0.000 A 
ATOM     13  C   UNL     1      -1.397  10.428  17.719  0.00  0.00    +0.000 A 
ATOM     14  C   UNL     1      -0.324   9.585  17.952  0.00  0.00    +0.000 A 
ATOM     15  C   UNL     1       0.490   9.757  19.077  0.00  0.00    +0.000 A 
ATOM     16  C   UNL     1       0.218  10.799  19.967  0.00  0.00    +0.000 A 
BRANCH  11  17
ATOM     17  C   UNL     1      -1.290  12.796  20.840  0.00  0.00    +0.000 C 
ATOM     18  C   UNL     1      -2.666  13.481  20.580  0.00  0.00    +0.000 C 
ATOM     19  O   UNL     1      -2.061  14.777  20.422  0.00  0.00    +0.000 OA
ATOM     20  C   UNL     1      -0.740  14.231  20.622  0.00  0.00    +0.000 C 
BRANCH  17  21
ATOM     21  C   UNL     1      -1.183  12.257  22.281  0.00  0.00    +0.000 C 
BRANCH  21  27
ATOM     22  C   UNL     1      -1.642  14.866  24.067  0.00  0.00    +0.000 C 
ATOM     23  N   UNL     1      -2.486  13.706  23.958  0.00  0.00    +0.000 N 
ATOM     24  C   UNL     1      -3.621  13.505  24.687  0.00  0.00    +0.000 A 
ATOM     25  N   UNL     1      -4.166  12.363  24.346  0.00  0.00    +0.000 NA
ATOM     26  N   UNL     1      -3.366  11.794  23.388  0.00  0.00    +0.000 NA
ATOM     27  C   UNL     1      -2.340  12.591  23.167  0.00  0.00    +0.000 A 
ENDBRANCH  21  27
ENDBRANCH  17  21
ENDBRANCH  11  17
ENDBRANCH   1  15
BRANCH   8  28
ATOM     28  C   UNL     1       4.419   6.784  16.488  0.00  0.00    +0.000 C 
ATOM     29  C   UNL     1       5.916   6.911  16.313  0.00  0.00    +0.000 C 
ATOM     30  C   UNL     1       5.186   5.761  15.684  0.00  0.00    +0.000 C 
ENDBRANCH   8  28
BRANCH   6  31
ATOM     31  C   UNL     1       3.833   3.401  20.071  0.00  0.00    +0.000 C 
BRANCH  31  32
ATOM     32  N   UNL     1       2.887   2.320  19.742  0.00  0.00    +0.000 NA
ATOM     33  C   UNL     1       2.486   2.253  18.335  0.00  0.00    +0.000 C 
ATOM     34  C   UNL     1       1.192   3.038  18.228  0.00  0.00    +0.000 C 
ATOM     35  C   UNL     1       0.554   2.908  19.600  0.00  0.00    +0.000 C 
ATOM     36  C   UNL     1       1.649   2.385  20.523  0.00  0.00    +0.000 C 
ENDBRANCH  31  32
ENDBRANCH   6  31
TORSDOF 7
ENDMDL
MODEL 8
REMARK VINA RESULT:      -8.8      3.090     10.107
REMARK  Name = 
REMARK  8 active torsions:
REMARK  status: ('A' for Active; 'I' for Inactive)
REMARK    1  A    between atoms: C_1  and  N_2
REMARK    2  A    between atoms: C_6  and  C_7
REMARK    3  A    between atoms: C_7  and  C_8
REMARK    4  A    between atoms: C_8  and  C_9
REMARK    5  A    between atoms: C_13  and  N_14
REMARK    6  A    between atoms: C_19  and  C_20
REMARK    7  A    between atoms: C_20  and  N_21
REMARK    8  A    between atoms: C_27  and  C_28
REMARK                            x       y       z     vdW  Elec       q    Type
REMARK                         _______ _______ _______ _____ _____    ______ ____
ROOT
ATOM      1  N   UNL     1       1.141   9.076  19.700  0.00  0.00    +0.000 N 
ATOM      2  C   UNL     1       2.193   8.807  18.725  0.00  0.00    +0.000 C 
ATOM      3  C   UNL     1       2.574   7.402  19.053  0.00  0.00    +0.000 A 
ATOM      4  C   UNL     1       1.912   6.987  20.197  0.00  0.00    +0.000 A 
ATOM      5  C   UNL     1       2.011   5.726  20.719  0.00  0.00    +0.000 A 
ATOM      6  C   UNL     1       2.845   4.867  20.030  0.00  0.00    +0.000 A 
ATOM      7  N   UNL     1       3.522   5.248  18.895  0.00  0.00    +0.000 NA
ATOM      8  C   UNL     1       3.388   6.511  18.399  0.00  0.00    +0.000 A 
ATOM      9  C   UNL     1       1.026   8.051  20.634  0.00  0.00    +0.000 C 
ATOM     10  O   UNL     1       0.313   7.958  21.617  0.00  0.00    +0.000 OA
ENDROOT
BRANCH   1  15
ATOM     11  C   UNL     1      -1.435  11.750  20.174  0.00  0.00    +0.000 A 
ATOM     12  C   UNL     1      -1.931  11.792  18.851  0.00  0.00    +0.000 A 
ATOM     13  C   UNL     1      -1.422  10.985  17.841  0.00  0.00    +0.000 A 
ATOM     14  C   UNL     1      -0.421  10.076  18.141  0.00  0.00    +0.000 A 
ATOM     15  C   UNL     1       0.105   9.992  19.435  0.00  0.00    +0.000 A 
ATOM     16  C   UNL     1      -0.382  10.844  20.430  0.00  0.00    +0.000 A 
BRANCH  11  17
ATOM     17  C   UNL     1      -2.080  12.676  21.314  0.00  0.00    +0.000 C 
ATOM     18  C   UNL     1      -1.090  13.672  21.991  0.00  0.00    +0.000 C 
ATOM     19  O   UNL     1      -1.298  13.094  23.291  0.00  0.00    +0.000 OA
ATOM     20  C   UNL     1      -2.208  12.111  22.753  0.00  0.00    +0.000 C 
BRANCH  17  21
ATOM     21  C   UNL     1      -3.331  13.396  20.771  0.00  0.00    +0.000 C 
BRANCH  21  27
ATOM     22  C   UNL     1      -5.420  12.083  18.741  0.00  0.00    +0.000 C 
ATOM     23  N   UNL     1      -5.528  12.203  20.171  0.00  0.00    +0.000 N 
ATOM     24  C   UNL     1      -6.618  11.823  20.898  0.00  0.00    +0.000 A 
ATOM     25  N   UNL     1      -6.398  12.050  22.170  0.00  0.00    +0.000 NA
ATOM     26  N   UNL     1      -5.149  12.606  22.280  0.00  0.00    +0.000 NA
ATOM     27  C   UNL     1      -4.630  12.720  21.074  0.00  0.00    +0.000 A 
ENDBRANCH  21  27
ENDBRANCH  17  21
ENDBRANCH  11  17
ENDBRANCH   1  15
BRANCH   8  28
ATOM     28  C   UNL     1       4.097   6.881  17.119  0.00  0.00    +0.000 C 
ATOM     29  C   UNL     1       5.606   6.981  17.091  0.00  0.00    +0.000 C 
ATOM     30  C   UNL     1       4.920   5.850  16.383  0.00  0.00    +0.000 C 
ENDBRANCH   8  28
BRANCH   6  31
ATOM     31  C   UNL     1       3.035   3.455  20.549  0.00  0.00    +0.000 C 
BRANCH  31  32
ATOM     32  N   UNL     1       2.483   2.351  19.744  0.00  0.00    +0.000 NA
ATOM     33  C   UNL     1       3.475   1.555  19.018  0.00  0.00    +0.000 C 
ATOM     34  C   UNL     1       3.560   2.155  17.627  0.00  0.00    +0.000 C 
ATOM     35  C   UNL     1       2.185   2.753  17.386  0.00  0.00    +0.000 C 
ATOM     36  C   UNL     1       1.504   2.801  18.750  0.00  0.00    +0.000 C 
ENDBRANCH  31  32
ENDBRANCH   6  31
TORSDOF 7
ENDMDL
MODEL 9
REMARK VINA RESULT:      -8.8      2.564      9.671
REMARK  Name = 
REMARK  8 active torsions:
REMARK  status: ('A' for Active; 'I' for Inactive)
REMARK    1  A    between atoms: C_1  and  N_2
REMARK    2  A    between atoms: C_6  and  C_7
REMARK    3  A    between atoms: C_7  and  C_8
REMARK    4  A    between atoms: C_8  and  C_9
REMARK    5  A    between atoms: C_13  and  N_14
REMARK    6  A    between atoms: C_19  and  C_20
REMARK    7  A    between atoms: C_20  and  N_21
REMARK    8  A    between atoms: C_27  and  C_28
REMARK                            x       y       z     vdW  Elec       q    Type
REMARK                         _______ _______ _______ _____ _____    ______ ____
ROOT
ATOM      1  N   UNL     1       1.496   7.858  19.506  0.00  0.00    +0.000 N 
ATOM      2  C   UNL     1       1.724   6.460  19.858  0.00  0.00    +0.000 C 
ATOM      3  C   UNL     1       2.790   6.063  18.893  0.00  0.00    +0.000 A 
ATOM      4  C   UNL     1       3.020   7.090  17.992  0.00  0.00    +0.000 A 
ATOM      5  C   UNL     1       3.980   7.049  17.018  0.00  0.00    +0.000 A 
ATOM      6  C   UNL     1       4.722   5.885  16.972  0.00  0.00    +0.000 A 
ATOM      7  N   UNL     1       4.517   4.843  17.847  0.00  0.00    +0.000 NA
ATOM      8  C   UNL     1       3.556   4.927  18.811  0.00  0.00    +0.000 A 
ATOM      9  C   UNL     1       2.182   8.221  18.352  0.00  0.00    +0.000 C 
ATOM     10  O   UNL     1       2.183   9.269  17.732  0.00  0.00    +0.000 OA
ENDROOT
BRANCH   1  15
ATOM     11  C   UNL     1      -0.144  10.862  21.024  0.00  0.00    +0.000 A 
ATOM     12  C   UNL     1       0.171  10.604  22.379  0.00  0.00    +0.000 A 
ATOM     13  C   UNL     1       0.879   9.475  22.774  0.00  0.00    +0.000 A 
ATOM     14  C   UNL     1       1.329   8.586  21.812  0.00  0.00    +0.000 A 
ATOM     15  C   UNL     1       1.047   8.795  20.457  0.00  0.00    +0.000 A 
ATOM     16  C   UNL     1       0.293   9.909  20.077  0.00  0.00    +0.000 A 
BRANCH  11  17
ATOM     17  C   UNL     1      -0.931  12.197  20.613  0.00  0.00    +0.000 C 
ATOM     18  C   UNL     1      -2.193  11.971  19.727  0.00  0.00    +0.000 C 
ATOM     19  O   UNL     1      -1.659  12.765  18.653  0.00  0.00    +0.000 OA
ATOM     20  C   UNL     1      -0.439  13.007  19.385  0.00  0.00    +0.000 C 
BRANCH  17  21
ATOM     21  C   UNL     1      -1.258  13.031  21.869  0.00  0.00    +0.000 C 
BRANCH  21  27
ATOM     22  C   UNL     1      -3.688  15.024  21.296  0.00  0.00    +0.000 C 
ATOM     23  N   UNL     1      -3.687  13.837  22.110  0.00  0.00    +0.000 N 
ATOM     24  C   UNL     1      -4.749  13.406  22.849  0.00  0.00    +0.000 A 
ATOM     25  N   UNL     1      -4.434  12.293  23.464  0.00  0.00    +0.000 NA
ATOM     26  N   UNL     1      -3.134  11.995  23.139  0.00  0.00    +0.000 NA
ATOM     27  C   UNL     1      -2.674  12.937  22.339  0.00  0.00    +0.000 A 
ENDBRANCH  21  27
ENDBRANCH  17  21
ENDBRANCH  11  17
ENDBRANCH   1  15
BRANCH   8  28
ATOM     28  C   UNL     1       3.394   3.793  19.793  0.00  0.00    +0.000 C 
ATOM     29  C   UNL     1       2.332   2.739  19.565  0.00  0.00    +0.000 C 
ATOM     30  C   UNL     1       3.781   2.387  19.397  0.00  0.00    +0.000 C 
ENDBRANCH   8  28
BRANCH   6  31
ATOM     31  C   UNL     1       5.795   5.739  15.910  0.00  0.00    +0.000 C 
BRANCH  31  32
ATOM     32  N   UNL     1       7.200   5.856  16.338  0.00  0.00    +0.000 NA
ATOM     33  C   UNL     1       7.770   4.645  16.934  0.00  0.00    +0.000 C 
ATOM     34  C   UNL     1       7.593   4.793  18.434  0.00  0.00    +0.000 C 
ATOM     35  C   UNL     1       7.605   6.292  18.673  0.00  0.00    +0.000 C 
ATOM     36  C   UNL     1       7.417   6.936  17.303  0.00  0.00    +0.000 C 
ENDBRANCH  31  32
ENDBRANCH   6  31
TORSDOF 7
ENDMDL
